data_image0
_cell_length_a       16.2318
_cell_length_b       8.7252
_cell_length_c       20.7773
_cell_angle_alpha    90
_cell_angle_beta     94.984
_cell_angle_gamma    90

_symmetry_space_group_name_H-M    "P 1"
_symmetry_int_tables_number       1

loop_
  _symmetry_equiv_pos_as_xyz
  'x, y, z'

loop_
  _atom_site_label
  _atom_site_occupancy
  _atom_site_fract_x
  _atom_site_fract_y
  _atom_site_fract_z
  _atom_site_thermal_displace_type
  _atom_site_B_iso_or_equiv
  _atom_site_type_symbol
  Gd1      1.0000 0.24231  0.22108  0.71218  Biso   1.000  Gd
  O1       1.0000 0.17880  0.29900  0.80261  Biso   1.000  O
  O2       1.0000 0.12530  0.35740  0.66190  Biso   1.000  O
  O3       1.0000 0.37040  0.31990  0.74849  Biso   1.000  O
  O4       1.0000 0.36360  0.54310  0.79908  Biso   1.000  O
  O5       1.0000 0.17980  0.53670  0.84086  Biso   1.000  O
  O6       1.0000 0.21170  0.53130  0.70468  Biso   1.000  O
  N1       1.0000 0.98490  0.93390  0.49950  Biso   1.000  N
  C1       1.0000 0.99510  0.68560  0.54640  Biso   1.000  C
  H1       1.0000 0.94420  0.66380  0.52430  Biso   1.000  H
  C2       1.0000 0.10930  0.85830  0.57020  Biso   1.000  C
  H2       1.0000 0.13460  0.95220  0.56430  Biso   1.000  H
  C3       1.0000 0.03440  0.57660  0.58700  Biso   1.000  C
  H3       1.0000 0.00980  0.48150  0.59200  Biso   1.000  H
  C4       1.0000 0.40250  0.43010  0.78070  Biso   1.000  C
  C5       1.0000 0.14770  0.74800  0.61000  Biso   1.000  C
  H4       1.0000 0.20000  0.76760  0.63030  Biso   1.000  H
  C6       1.0000 0.14370  0.41570  0.82340  Biso   1.000  C
  C7       1.0000 0.03190  0.82600  0.53900  Biso   1.000  C
  C8       1.0000 0.05170  0.40630  0.82690  Biso   1.000  C
  C9       1.0000 0.11010  0.60920  0.62010  Biso   1.000  C
  C10      1.0000 0.00720  0.29000  0.79440  Biso   1.000  C
  H5       1.0000 0.03510  0.21470  0.77320  Biso   1.000  H
  C11      1.0000 0.15120  0.49320  0.66570  Biso   1.000  C
  C12      1.0000 0.49400  0.42560  0.79730  Biso   1.000  C
  C13      1.0000 0.53260  0.53810  0.83650  Biso   1.000  C
  H6       1.0000 0.50110  0.61410  0.85400  Biso   1.000  H
  C14      1.0000 0.00970  0.51590  0.85870  Biso   1.000  C
  H7       1.0000 0.03840  0.59420  0.88130  Biso   1.000  H
  N2       1.0000 0.75650  0.45990  0.83990  Biso   1.000  N
  C15      1.0000 0.54060  0.31210  0.77310  Biso   1.000  C
  H8       1.0000 0.51530  0.23430  0.74800  Biso   1.000  H
  C16      1.0000 0.92290  0.50840  0.85680  Biso   1.000  C
  H9       1.0000 0.89440  0.58180  0.87860  Biso   1.000  H
  C17      1.0000 0.66320  0.43080  0.82430  Biso   1.000  C
  N3       1.0000 0.78480  0.36130  0.81130  Biso   1.000  N
  C18      1.0000 0.61680  0.53790  0.84970  Biso   1.000  C
  H10      1.0000 0.64190  0.61280  0.87660  Biso   1.000  H
  C19      1.0000 0.88020  0.39460  0.82350  Biso   1.000  C
  C20      1.0000 0.92270  0.28460  0.79310  Biso   1.000  C
  H11      1.0000 0.89390  0.20530  0.77130  Biso   1.000  H
  C21      1.0000 0.62640  0.31370  0.78630  Biso   1.000  C
  H12      1.0000 0.65860  0.23750  0.76980  Biso   1.000  H
  Gd2      1.0000 0.25769  0.72108  0.78782  Biso   1.000  Gd
  O7       1.0000 0.32120  0.79900  0.69739  Biso   1.000  O
  O8       1.0000 0.37470  0.85740  0.83810  Biso   1.000  O
  O9       1.0000 0.12960  0.81990  0.75151  Biso   1.000  O
  O10      1.0000 0.13640  0.04310  0.70092  Biso   1.000  O
  O11      1.0000 0.32020  0.03670  0.65914  Biso   1.000  O
  O12      1.0000 0.28830  0.03130  0.79532  Biso   1.000  O
  N4       1.0000 0.51510  0.43390  0.00050  Biso   1.000  N
  C22      1.0000 0.50490  0.18560  0.95360  Biso   1.000  C
  H13      1.0000 0.55580  0.16380  0.97570  Biso   1.000  H
  C23      1.0000 0.39070  0.35830  0.92980  Biso   1.000  C
  H14      1.0000 0.36540  0.45220  0.93570  Biso   1.000  H
  C24      1.0000 0.46560  0.07660  0.91300  Biso   1.000  C
  H15      1.0000 0.49020  0.98150  0.90800  Biso   1.000  H
  C25      1.0000 0.09750  0.93010  0.71930  Biso   1.000  C
  C26      1.0000 0.35230  0.24800  0.89000  Biso   1.000  C
  H16      1.0000 0.30000  0.26760  0.86970  Biso   1.000  H
  C27      1.0000 0.35630  0.91570  0.67660  Biso   1.000  C
  C28      1.0000 0.46810  0.32600  0.96100  Biso   1.000  C
  C29      1.0000 0.44830  0.90630  0.67310  Biso   1.000  C
  C30      1.0000 0.38990  0.10920  0.87990  Biso   1.000  C
  C31      1.0000 0.49280  0.79000  0.70560  Biso   1.000  C
  H17      1.0000 0.46490  0.71470  0.72680  Biso   1.000  H
  C32      1.0000 0.34880  0.99320  0.83430  Biso   1.000  C
  C33      1.0000 0.00600  0.92560  0.70270  Biso   1.000  C
  C34      1.0000 0.96740  0.03810  0.66350  Biso   1.000  C
  H18      1.0000 0.99890  0.11410  0.64600  Biso   1.000  H
  C35      1.0000 0.49030  0.01590  0.64130  Biso   1.000  C
  H19      1.0000 0.46160  0.09420  0.61870  Biso   1.000  H
  N5       1.0000 0.74350  0.95990  0.66010  Biso   1.000  N
  C36      1.0000 0.95940  0.81210  0.72690  Biso   1.000  C
  H20      1.0000 0.98470  0.73430  0.75200  Biso   1.000  H
  C37      1.0000 0.57710  0.00840  0.64320  Biso   1.000  C
  H21      1.0000 0.60560  0.08180  0.62140  Biso   1.000  H
  C38      1.0000 0.83680  0.93080  0.67570  Biso   1.000  C
  N6       1.0000 0.71520  0.86130  0.68870  Biso   1.000  N
  C39      1.0000 0.88320  0.03790  0.65030  Biso   1.000  C
  H22      1.0000 0.85810  0.11280  0.62340  Biso   1.000  H
  C40      1.0000 0.61980  0.89460  0.67650  Biso   1.000  C
  C41      1.0000 0.57730  0.78460  0.70690  Biso   1.000  C
  H23      1.0000 0.60610  0.70530  0.72870  Biso   1.000  H
  C42      1.0000 0.87360  0.81370  0.71370  Biso   1.000  C
  H24      1.0000 0.84140  0.73750  0.73020  Biso   1.000  H
  Gd3      1.0000 0.75769  0.77892  0.28782  Biso   1.000  Gd
  O13      1.0000 0.82120  0.70100  0.19739  Biso   1.000  O
  O14      1.0000 0.87470  0.64260  0.33810  Biso   1.000  O
  O15      1.0000 0.62960  0.68010  0.25151  Biso   1.000  O
  O16      1.0000 0.63640  0.45690  0.20092  Biso   1.000  O
  O17      1.0000 0.82020  0.46330  0.15914  Biso   1.000  O
  O18      1.0000 0.78830  0.46870  0.29532  Biso   1.000  O
  N7       1.0000 0.01510  0.06610  0.50050  Biso   1.000  N
  C43      1.0000 0.00490  0.31440  0.45360  Biso   1.000  C
  H25      1.0000 0.05580  0.33620  0.47570  Biso   1.000  H
  C44      1.0000 0.89070  0.14170  0.42980  Biso   1.000  C
  H26      1.0000 0.86540  0.04780  0.43570  Biso   1.000  H
  C45      1.0000 0.96560  0.42340  0.41300  Biso   1.000  C
  H27      1.0000 0.99020  0.51850  0.40800  Biso   1.000  H
  C46      1.0000 0.59750  0.56990  0.21930  Biso   1.000  C
  C47      1.0000 0.85230  0.25200  0.39000  Biso   1.000  C
  H28      1.0000 0.80000  0.23240  0.36970  Biso   1.000  H
  C48      1.0000 0.85630  0.58430  0.17660  Biso   1.000  C
  C49      1.0000 0.96810  0.17400  0.46100  Biso   1.000  C
  C50      1.0000 0.94830  0.59370  0.17310  Biso   1.000  C
  C51      1.0000 0.88990  0.39080  0.37990  Biso   1.000  C
  C52      1.0000 0.99280  0.71000  0.20560  Biso   1.000  C
  H29      1.0000 0.96490  0.78530  0.22680  Biso   1.000  H
  C53      1.0000 0.84880  0.50680  0.33430  Biso   1.000  C
  C54      1.0000 0.50600  0.57440  0.20270  Biso   1.000  C
  C55      1.0000 0.46740  0.46190  0.16350  Biso   1.000  C
  H30      1.0000 0.49890  0.38590  0.14600  Biso   1.000  H
  C56      1.0000 0.99030  0.48410  0.14130  Biso   1.000  C
  H31      1.0000 0.96160  0.40580  0.11870  Biso   1.000  H
  N8       1.0000 0.24350  0.54010  0.16010  Biso   1.000  N
  C57      1.0000 0.45940  0.68790  0.22690  Biso   1.000  C
  H32      1.0000 0.48470  0.76570  0.25200  Biso   1.000  H
  C58      1.0000 0.07710  0.49160  0.14320  Biso   1.000  C
  H33      1.0000 0.10560  0.41820  0.12140  Biso   1.000  H
  C59      1.0000 0.33680  0.56920  0.17570  Biso   1.000  C
  N9       1.0000 0.21520  0.63870  0.18870  Biso   1.000  N
  C60      1.0000 0.38320  0.46210  0.15030  Biso   1.000  C
  H34      1.0000 0.35810  0.38720  0.12340  Biso   1.000  H
  C61      1.0000 0.11980  0.60540  0.17650  Biso   1.000  C
  C62      1.0000 0.07730  0.71540  0.20690  Biso   1.000  C
  H35      1.0000 0.10610  0.79470  0.22870  Biso   1.000  H
  C63      1.0000 0.37360  0.68630  0.21370  Biso   1.000  C
  H36      1.0000 0.34140  0.76250  0.23020  Biso   1.000  H
  Gd4      1.0000 0.74231  0.27892  0.21218  Biso   1.000  Gd
  O19      1.0000 0.67880  0.20100  0.30261  Biso   1.000  O
  O20      1.0000 0.62530  0.14260  0.16190  Biso   1.000  O
  O21      1.0000 0.87040  0.18010  0.24849  Biso   1.000  O
  O22      1.0000 0.86360  0.95690  0.29908  Biso   1.000  O
  O23      1.0000 0.67980  0.96330  0.34086  Biso   1.000  O
  O24      1.0000 0.71170  0.96870  0.20468  Biso   1.000  O
  N10      1.0000 0.48490  0.56610  0.99950  Biso   1.000  N
  C64      1.0000 0.49510  0.81440  0.04640  Biso   1.000  C
  H37      1.0000 0.44420  0.83620  0.02430  Biso   1.000  H
  C65      1.0000 0.60930  0.64170  0.07020  Biso   1.000  C
  H38      1.0000 0.63460  0.54780  0.06430  Biso   1.000  H
  C66      1.0000 0.53440  0.92340  0.08700  Biso   1.000  C
  H39      1.0000 0.50980  0.01850  0.09200  Biso   1.000  H
  C67      1.0000 0.90250  0.06990  0.28070  Biso   1.000  C
  C68      1.0000 0.64770  0.75200  0.11000  Biso   1.000  C
  H40      1.0000 0.70000  0.73240  0.13030  Biso   1.000  H
  C69      1.0000 0.64370  0.08430  0.32340  Biso   1.000  C
  C70      1.0000 0.53190  0.67400  0.03900  Biso   1.000  C
  C71      1.0000 0.55170  0.09370  0.32690  Biso   1.000  C
  C72      1.0000 0.61010  0.89080  0.12010  Biso   1.000  C
  C73      1.0000 0.50720  0.21000  0.29440  Biso   1.000  C
  H41      1.0000 0.53510  0.28530  0.27320  Biso   1.000  H
  C74      1.0000 0.65120  0.00680  0.16570  Biso   1.000  C
  C75      1.0000 0.99400  0.07440  0.29730  Biso   1.000  C
  C76      1.0000 0.03260  0.96190  0.33650  Biso   1.000  C
  H42      1.0000 0.00110  0.88590  0.35400  Biso   1.000  H
  C77      1.0000 0.50970  0.98410  0.35870  Biso   1.000  C
  H43      1.0000 0.53840  0.90580  0.38130  Biso   1.000  H
  N11      1.0000 0.25650  0.04010  0.33990  Biso   1.000  N
  C78      1.0000 0.04060  0.18790  0.27310  Biso   1.000  C
  H44      1.0000 0.01530  0.26570  0.24800  Biso   1.000  H
  C79      1.0000 0.42290  0.99160  0.35680  Biso   1.000  C
  H45      1.0000 0.39440  0.91820  0.37860  Biso   1.000  H
  C80      1.0000 0.16320  0.06920  0.32430  Biso   1.000  C
  N12      1.0000 0.28480  0.13870  0.31130  Biso   1.000  N
  C81      1.0000 0.11680  0.96210  0.34970  Biso   1.000  C
  H46      1.0000 0.14190  0.88720  0.37660  Biso   1.000  H
  C82      1.0000 0.38020  0.10540  0.32350  Biso   1.000  C
  C83      1.0000 0.42270  0.21540  0.29310  Biso   1.000  C
  H47      1.0000 0.39390  0.29470  0.27130  Biso   1.000  H
  C84      1.0000 0.12640  0.18630  0.28630  Biso   1.000  C
  H48      1.0000 0.15860  0.26250  0.26980  Biso   1.000  H
