data_image0
_cell_length_a       16.1705
_cell_length_b       8.6943
_cell_length_c       20.8797
_cell_angle_alpha    90
_cell_angle_beta     94.633
_cell_angle_gamma    90

_symmetry_space_group_name_H-M    "P 1"
_symmetry_int_tables_number       1

loop_
  _symmetry_equiv_pos_as_xyz
  'x, y, z'

loop_
  _atom_site_label
  _atom_site_occupancy
  _atom_site_fract_x
  _atom_site_fract_y
  _atom_site_fract_z
  _atom_site_thermal_displace_type
  _atom_site_B_iso_or_equiv
  _atom_site_type_symbol
  Er1      1.0000 0.24319  0.22305  0.71312  Biso   1.000  Er
  O1       1.0000 0.13030  0.36000  0.66340  Biso   1.000  O
  O2       1.0000 0.36670  0.32440  0.74940  Biso   1.000  O
  O3       1.0000 0.17770  0.54260  0.83710  Biso   1.000  O
  O4       1.0000 0.17850  0.30230  0.79990  Biso   1.000  O
  O5       1.0000 0.36080  0.54900  0.80030  Biso   1.000  O
  O6       1.0000 0.21440  0.53970  0.70520  Biso   1.000  O
  N1       1.0000 0.98570  0.93300  0.49940  Biso   1.000  N
  N2       1.0000 0.75380  0.45690  0.84020  Biso   1.000  N
  N3       1.0000 0.78370  0.36100  0.81180  Biso   1.000  N
  C1       1.0000 0.15430  0.49690  0.66660  Biso   1.000  C
  C2       1.0000 0.11280  0.61170  0.62100  Biso   1.000  C
  C3       1.0000 0.15040  0.75200  0.60970  Biso   1.000  C
  H1       1.0000 0.20280  0.77320  0.62950  Biso   1.000  H
  C4       1.0000 0.11090  0.86050  0.56950  Biso   1.000  C
  H2       1.0000 0.13610  0.95470  0.56290  Biso   1.000  H
  C5       1.0000 0.03300  0.82730  0.53920  Biso   1.000  C
  C6       1.0000 0.99760  0.68360  0.54680  Biso   1.000  C
  H3       1.0000 0.94730  0.65940  0.52440  Biso   1.000  H
  C7       1.0000 0.03710  0.57600  0.58770  Biso   1.000  C
  H4       1.0000 0.01310  0.48020  0.59290  Biso   1.000  H
  C8       1.0000 0.39890  0.43520  0.78110  Biso   1.000  C
  C9       1.0000 0.49090  0.42840  0.79810  Biso   1.000  C
  C10      1.0000 0.53030  0.54090  0.83750  Biso   1.000  C
  H5       1.0000 0.49890  0.61770  0.85480  Biso   1.000  H
  C11      1.0000 0.61460  0.53930  0.85100  Biso   1.000  C
  H6       1.0000 0.64000  0.61380  0.87780  Biso   1.000  H
  C12      1.0000 0.66010  0.43180  0.82580  Biso   1.000  C
  C13      1.0000 0.62360  0.31510  0.78670  Biso   1.000  C
  H7       1.0000 0.65640  0.24000  0.76960  Biso   1.000  H
  C14      1.0000 0.53750  0.31300  0.77380  Biso   1.000  C
  H8       1.0000 0.51200  0.23470  0.74900  Biso   1.000  H
  C15      1.0000 0.14320  0.41870  0.82080  Biso   1.000  C
  C16      1.0000 0.05060  0.40800  0.82530  Biso   1.000  C
  C17      1.0000 0.00720  0.51590  0.85810  Biso   1.000  C
  H9       1.0000 0.03560  0.59460  0.88060  Biso   1.000  H
  C18      1.0000 0.92140  0.50680  0.85740  Biso   1.000  C
  H10      1.0000 0.89260  0.57820  0.88020  Biso   1.000  H
  C19      1.0000 0.87890  0.39260  0.82310  Biso   1.000  C
  C20      1.0000 0.92110  0.28490  0.79110  Biso   1.000  C
  H11      1.0000 0.89220  0.20680  0.76860  Biso   1.000  H
  C21      1.0000 0.00670  0.29130  0.79190  Biso   1.000  C
  H12      1.0000 0.03510  0.21730  0.77010  Biso   1.000  H
  Er2      1.0000 0.25681  0.72305  0.78688  Biso   1.000  Er
  O7       1.0000 0.36970  0.86000  0.83660  Biso   1.000  O
  O8       1.0000 0.13330  0.82440  0.75060  Biso   1.000  O
  O9       1.0000 0.32230  0.04260  0.66290  Biso   1.000  O
  O10      1.0000 0.32150  0.80230  0.70010  Biso   1.000  O
  O11      1.0000 0.13920  0.04900  0.69970  Biso   1.000  O
  O12      1.0000 0.28560  0.03970  0.79480  Biso   1.000  O
  N4       1.0000 0.51430  0.43300  0.00060  Biso   1.000  N
  N5       1.0000 0.74620  0.95690  0.65980  Biso   1.000  N
  N6       1.0000 0.71630  0.86100  0.68820  Biso   1.000  N
  C22      1.0000 0.34570  0.99690  0.83340  Biso   1.000  C
  C23      1.0000 0.38720  0.11170  0.87900  Biso   1.000  C
  C24      1.0000 0.34960  0.25200  0.89030  Biso   1.000  C
  H13      1.0000 0.29720  0.27320  0.87050  Biso   1.000  H
  C25      1.0000 0.38910  0.36050  0.93050  Biso   1.000  C
  H14      1.0000 0.36390  0.45470  0.93710  Biso   1.000  H
  C26      1.0000 0.46700  0.32730  0.96080  Biso   1.000  C
  C27      1.0000 0.50240  0.18360  0.95320  Biso   1.000  C
  H15      1.0000 0.55270  0.15940  0.97560  Biso   1.000  H
  C28      1.0000 0.46290  0.07600  0.91230  Biso   1.000  C
  H16      1.0000 0.48690  0.98020  0.90710  Biso   1.000  H
  C29      1.0000 0.10110  0.93520  0.71890  Biso   1.000  C
  C30      1.0000 0.00910  0.92840  0.70190  Biso   1.000  C
  C31      1.0000 0.96970  0.04090  0.66250  Biso   1.000  C
  H17      1.0000 0.00110  0.11770  0.64520  Biso   1.000  H
  C32      1.0000 0.88540  0.03930  0.64900  Biso   1.000  C
  H18      1.0000 0.86000  0.11380  0.62220  Biso   1.000  H
  C33      1.0000 0.83990  0.93180  0.67420  Biso   1.000  C
  C34      1.0000 0.87640  0.81510  0.71330  Biso   1.000  C
  H19      1.0000 0.84360  0.74000  0.73040  Biso   1.000  H
  C35      1.0000 0.96250  0.81300  0.72620  Biso   1.000  C
  H20      1.0000 0.98800  0.73470  0.75100  Biso   1.000  H
  C36      1.0000 0.35680  0.91870  0.67920  Biso   1.000  C
  C37      1.0000 0.44940  0.90800  0.67470  Biso   1.000  C
  C38      1.0000 0.49280  0.01590  0.64190  Biso   1.000  C
  H21      1.0000 0.46440  0.09460  0.61940  Biso   1.000  H
  C39      1.0000 0.57860  0.00680  0.64260  Biso   1.000  C
  H22      1.0000 0.60740  0.07820  0.61980  Biso   1.000  H
  C40      1.0000 0.62110  0.89260  0.67690  Biso   1.000  C
  C41      1.0000 0.57890  0.78490  0.70890  Biso   1.000  C
  H23      1.0000 0.60780  0.70680  0.73140  Biso   1.000  H
  C42      1.0000 0.49330  0.79130  0.70810  Biso   1.000  C
  H24      1.0000 0.46490  0.71730  0.72990  Biso   1.000  H
  Er3      1.0000 0.75681  0.77695  0.28688  Biso   1.000  Er
  O13      1.0000 0.86970  0.64000  0.33660  Biso   1.000  O
  O14      1.0000 0.63330  0.67560  0.25060  Biso   1.000  O
  O15      1.0000 0.82230  0.45740  0.16290  Biso   1.000  O
  O16      1.0000 0.82150  0.69770  0.20010  Biso   1.000  O
  O17      1.0000 0.63920  0.45100  0.19970  Biso   1.000  O
  O18      1.0000 0.78560  0.46030  0.29480  Biso   1.000  O
  N7       1.0000 0.01430  0.06700  0.50060  Biso   1.000  N
  N8       1.0000 0.24620  0.54310  0.15980  Biso   1.000  N
  N9       1.0000 0.21630  0.63900  0.18820  Biso   1.000  N
  C43      1.0000 0.84570  0.50310  0.33340  Biso   1.000  C
  C44      1.0000 0.88720  0.38830  0.37900  Biso   1.000  C
  C45      1.0000 0.84960  0.24800  0.39030  Biso   1.000  C
  H25      1.0000 0.79720  0.22680  0.37050  Biso   1.000  H
  C46      1.0000 0.88910  0.13950  0.43050  Biso   1.000  C
  H26      1.0000 0.86390  0.04530  0.43710  Biso   1.000  H
  C47      1.0000 0.96700  0.17270  0.46080  Biso   1.000  C
  C48      1.0000 0.00240  0.31640  0.45320  Biso   1.000  C
  H27      1.0000 0.05270  0.34060  0.47560  Biso   1.000  H
  C49      1.0000 0.96290  0.42400  0.41230  Biso   1.000  C
  H28      1.0000 0.98690  0.51980  0.40710  Biso   1.000  H
  C50      1.0000 0.60110  0.56480  0.21890  Biso   1.000  C
  C51      1.0000 0.50910  0.57160  0.20190  Biso   1.000  C
  C52      1.0000 0.46970  0.45910  0.16250  Biso   1.000  C
  H29      1.0000 0.50110  0.38230  0.14520  Biso   1.000  H
  C53      1.0000 0.38540  0.46070  0.14900  Biso   1.000  C
  H30      1.0000 0.36000  0.38620  0.12220  Biso   1.000  H
  C54      1.0000 0.33990  0.56820  0.17420  Biso   1.000  C
  C55      1.0000 0.37640  0.68490  0.21330  Biso   1.000  C
  H31      1.0000 0.34360  0.76000  0.23040  Biso   1.000  H
  C56      1.0000 0.46250  0.68700  0.22620  Biso   1.000  C
  H32      1.0000 0.48800  0.76530  0.25100  Biso   1.000  H
  C57      1.0000 0.85680  0.58130  0.17920  Biso   1.000  C
  C58      1.0000 0.94940  0.59200  0.17470  Biso   1.000  C
  C59      1.0000 0.99280  0.48410  0.14190  Biso   1.000  C
  H33      1.0000 0.96440  0.40540  0.11940  Biso   1.000  H
  C60      1.0000 0.07860  0.49320  0.14260  Biso   1.000  C
  H34      1.0000 0.10740  0.42180  0.11980  Biso   1.000  H
  C61      1.0000 0.12110  0.60740  0.17690  Biso   1.000  C
  C62      1.0000 0.07890  0.71510  0.20890  Biso   1.000  C
  H35      1.0000 0.10780  0.79320  0.23140  Biso   1.000  H
  C63      1.0000 0.99330  0.70870  0.20810  Biso   1.000  C
  H36      1.0000 0.96490  0.78270  0.22990  Biso   1.000  H
  Er4      1.0000 0.74319  0.27695  0.21312  Biso   1.000  Er
  O19      1.0000 0.63030  0.14000  0.16340  Biso   1.000  O
  O20      1.0000 0.86670  0.17560  0.24940  Biso   1.000  O
  O21      1.0000 0.67770  0.95740  0.33710  Biso   1.000  O
  O22      1.0000 0.67850  0.19770  0.29990  Biso   1.000  O
  O23      1.0000 0.86080  0.95100  0.30030  Biso   1.000  O
  O24      1.0000 0.71440  0.96030  0.20520  Biso   1.000  O
  N10      1.0000 0.48570  0.56700  0.99940  Biso   1.000  N
  N11      1.0000 0.25380  0.04310  0.34020  Biso   1.000  N
  N12      1.0000 0.28370  0.13900  0.31180  Biso   1.000  N
  C64      1.0000 0.65430  0.00310  0.16660  Biso   1.000  C
  C65      1.0000 0.61280  0.88830  0.12100  Biso   1.000  C
  C66      1.0000 0.65040  0.74800  0.10970  Biso   1.000  C
  H37      1.0000 0.70280  0.72680  0.12950  Biso   1.000  H
  C67      1.0000 0.61090  0.63950  0.06950  Biso   1.000  C
  H38      1.0000 0.63610  0.54530  0.06290  Biso   1.000  H
  C68      1.0000 0.53300  0.67270  0.03920  Biso   1.000  C
  C69      1.0000 0.49760  0.81640  0.04680  Biso   1.000  C
  H39      1.0000 0.44730  0.84060  0.02440  Biso   1.000  H
  C70      1.0000 0.53710  0.92400  0.08770  Biso   1.000  C
  H40      1.0000 0.51310  0.01980  0.09290  Biso   1.000  H
  C71      1.0000 0.89890  0.06480  0.28110  Biso   1.000  C
  C72      1.0000 0.99090  0.07160  0.29810  Biso   1.000  C
  C73      1.0000 0.03030  0.95910  0.33750  Biso   1.000  C
  H41      1.0000 0.99890  0.88230  0.35480  Biso   1.000  H
  C74      1.0000 0.11460  0.96070  0.35100  Biso   1.000  C
  H42      1.0000 0.14000  0.88620  0.37780  Biso   1.000  H
  C75      1.0000 0.16010  0.06820  0.32580  Biso   1.000  C
  C76      1.0000 0.12360  0.18490  0.28670  Biso   1.000  C
  H43      1.0000 0.15640  0.26000  0.26960  Biso   1.000  H
  C77      1.0000 0.03750  0.18700  0.27380  Biso   1.000  C
  H44      1.0000 0.01200  0.26530  0.24900  Biso   1.000  H
  C78      1.0000 0.64320  0.08130  0.32080  Biso   1.000  C
  C79      1.0000 0.55060  0.09200  0.32530  Biso   1.000  C
  C80      1.0000 0.50720  0.98410  0.35810  Biso   1.000  C
  H45      1.0000 0.53560  0.90540  0.38060  Biso   1.000  H
  C81      1.0000 0.42140  0.99320  0.35740  Biso   1.000  C
  H46      1.0000 0.39260  0.92180  0.38020  Biso   1.000  H
  C82      1.0000 0.37890  0.10740  0.32310  Biso   1.000  C
  C83      1.0000 0.42110  0.21510  0.29110  Biso   1.000  C
  H47      1.0000 0.39220  0.29320  0.26860  Biso   1.000  H
  C84      1.0000 0.50670  0.20870  0.29190  Biso   1.000  C
  H48      1.0000 0.53510  0.28270  0.27010  Biso   1.000  H
