data_image0
_cell_length_a       29.4645
_cell_length_b       29.4645
_cell_length_c       14.2632
_cell_angle_alpha    90
_cell_angle_beta     90
_cell_angle_gamma    120

_symmetry_space_group_name_H-M    "P 1"
_symmetry_int_tables_number       1

loop_
  _symmetry_equiv_pos_as_xyz
  'x, y, z'

loop_
  _atom_site_label
  _atom_site_occupancy
  _atom_site_fract_x
  _atom_site_fract_y
  _atom_site_fract_z
  _atom_site_thermal_displace_type
  _atom_site_B_iso_or_equiv
  _atom_site_type_symbol
  Ag1      1.0000 0.46208  0.07037  0.74835  Biso   1.000  Ag
  C1       1.0000 0.44910  0.16430  0.65530  Biso   1.000  C
  H1       1.0000 0.48340  0.16630  0.64630  Biso   1.000  H
  H2       1.0000 0.44990  0.19390  0.62100  Biso   1.000  H
  N1       1.0000 0.44840  0.13950  0.81680  Biso   1.000  N
  C2       1.0000 0.44090  0.16900  0.75670  Biso   1.000  C
  C3       1.0000 0.42650  0.20530  0.78910  Biso   1.000  C
  H3       1.0000 0.42010  0.22540  0.74450  Biso   1.000  H
  N2       1.0000 0.42150  0.21230  0.88020  Biso   1.000  N
  C4       1.0000 0.42860  0.18140  0.93910  Biso   1.000  C
  H4       1.0000 0.42410  0.18420  0.00440  Biso   1.000  H
  C5       1.0000 0.44220  0.14530  0.90780  Biso   1.000  C
  H5       1.0000 0.44730  0.12420  0.95220  Biso   1.000  H
  N3       1.0000 0.40580  0.06920  0.63780  Biso   1.000  N
  C6       1.0000 0.40630  0.11310  0.61520  Biso   1.000  C
  C7       1.0000 0.36770  0.11140  0.55530  Biso   1.000  C
  H6       1.0000 0.36790  0.14300  0.54120  Biso   1.000  H
  N4       1.0000 0.33090  0.06700  0.51780  Biso   1.000  N
  C8       1.0000 0.33020  0.02300  0.54330  Biso   1.000  C
  H7       1.0000 0.30340  0.99020  0.52040  Biso   1.000  H
  C9       1.0000 0.36800  0.02490  0.60260  Biso   1.000  C
  H8       1.0000 0.36690  0.99310  0.61880  Biso   1.000  H
  Ag2      1.0000 0.12875  0.40370  0.08168  Biso   1.000  Ag
  C10      1.0000 0.11577  0.49763  0.98863  Biso   1.000  C
  H9       1.0000 0.15007  0.49963  0.97963  Biso   1.000  H
  H10      1.0000 0.11657  0.52723  0.95433  Biso   1.000  H
  N5       1.0000 0.11507  0.47283  0.15013  Biso   1.000  N
  C11      1.0000 0.10757  0.50233  0.09003  Biso   1.000  C
  C12      1.0000 0.09317  0.53863  0.12243  Biso   1.000  C
  H11      1.0000 0.08677  0.55873  0.07783  Biso   1.000  H
  N6       1.0000 0.08817  0.54563  0.21353  Biso   1.000  N
  C13      1.0000 0.09527  0.51473  0.27243  Biso   1.000  C
  H12      1.0000 0.09077  0.51753  0.33773  Biso   1.000  H
  C14      1.0000 0.10887  0.47863  0.24113  Biso   1.000  C
  H13      1.0000 0.11397  0.45753  0.28553  Biso   1.000  H
  N7       1.0000 0.07247  0.40253  0.97113  Biso   1.000  N
  C15      1.0000 0.07297  0.44643  0.94853  Biso   1.000  C
  C16      1.0000 0.03437  0.44473  0.88863  Biso   1.000  C
  H14      1.0000 0.03457  0.47633  0.87453  Biso   1.000  H
  N8       1.0000 0.99757  0.40033  0.85113  Biso   1.000  N
  C17      1.0000 0.99687  0.35633  0.87663  Biso   1.000  C
  H15      1.0000 0.97007  0.32353  0.85373  Biso   1.000  H
  C18      1.0000 0.03467  0.35823  0.93593  Biso   1.000  C
  H16      1.0000 0.03357  0.32643  0.95213  Biso   1.000  H
  Ag3      1.0000 0.79541  0.73704  0.41502  Biso   1.000  Ag
  C19      1.0000 0.78243  0.83097  0.32197  Biso   1.000  C
  H17      1.0000 0.81673  0.83297  0.31297  Biso   1.000  H
  H18      1.0000 0.78323  0.86057  0.28767  Biso   1.000  H
  N9       1.0000 0.78173  0.80617  0.48347  Biso   1.000  N
  C20      1.0000 0.77423  0.83567  0.42337  Biso   1.000  C
  C21      1.0000 0.75983  0.87197  0.45577  Biso   1.000  C
  H19      1.0000 0.75343  0.89207  0.41117  Biso   1.000  H
  N10      1.0000 0.75483  0.87897  0.54687  Biso   1.000  N
  C22      1.0000 0.76193  0.84807  0.60577  Biso   1.000  C
  H20      1.0000 0.75743  0.85087  0.67107  Biso   1.000  H
  C23      1.0000 0.77553  0.81197  0.57447  Biso   1.000  C
  H21      1.0000 0.78063  0.79087  0.61887  Biso   1.000  H
  N11      1.0000 0.73913  0.73587  0.30447  Biso   1.000  N
  C24      1.0000 0.73963  0.77977  0.28187  Biso   1.000  C
  C25      1.0000 0.70103  0.77807  0.22197  Biso   1.000  C
  H22      1.0000 0.70123  0.80967  0.20787  Biso   1.000  H
  N12      1.0000 0.66423  0.73367  0.18447  Biso   1.000  N
  C26      1.0000 0.66353  0.68967  0.20997  Biso   1.000  C
  H23      1.0000 0.63673  0.65687  0.18707  Biso   1.000  H
  C27      1.0000 0.70133  0.69157  0.26927  Biso   1.000  C
  H24      1.0000 0.70023  0.65977  0.28547  Biso   1.000  H
  Ag4      1.0000 0.92963  0.39171  0.74835  Biso   1.000  Ag
  C28      1.0000 0.83570  0.28480  0.65530  Biso   1.000  C
  H25      1.0000 0.83370  0.31710  0.64630  Biso   1.000  H
  H26      1.0000 0.80610  0.25600  0.62100  Biso   1.000  H
  N13      1.0000 0.86050  0.30890  0.81680  Biso   1.000  N
  C29      1.0000 0.83100  0.27190  0.75670  Biso   1.000  C
  C30      1.0000 0.79470  0.22120  0.78910  Biso   1.000  C
  H27      1.0000 0.77460  0.19470  0.74450  Biso   1.000  H
  N14      1.0000 0.78770  0.20920  0.88020  Biso   1.000  N
  C31      1.0000 0.81860  0.24720  0.93910  Biso   1.000  C
  H28      1.0000 0.81580  0.23990  0.00440  Biso   1.000  H
  C32      1.0000 0.85470  0.29690  0.90780  Biso   1.000  C
  H29      1.0000 0.87580  0.32310  0.95220  Biso   1.000  H
  N15      1.0000 0.93080  0.33660  0.63780  Biso   1.000  N
  C33      1.0000 0.88690  0.29320  0.61520  Biso   1.000  C
  C34      1.0000 0.88860  0.25630  0.55530  Biso   1.000  C
  H30      1.0000 0.85700  0.22490  0.54120  Biso   1.000  H
  N16      1.0000 0.93300  0.26390  0.51780  Biso   1.000  N
  C35      1.0000 0.97700  0.30720  0.54330  Biso   1.000  C
  H31      1.0000 0.00980  0.31320  0.52040  Biso   1.000  H
  C36      1.0000 0.97510  0.34310  0.60260  Biso   1.000  C
  H32      1.0000 0.00690  0.37380  0.61880  Biso   1.000  H
  Ag5      1.0000 0.59630  0.72504  0.08168  Biso   1.000  Ag
  C37      1.0000 0.50237  0.61813  0.98863  Biso   1.000  C
  H33      1.0000 0.50037  0.65043  0.97963  Biso   1.000  H
  H34      1.0000 0.47277  0.58933  0.95433  Biso   1.000  H
  N17      1.0000 0.52717  0.64223  0.15013  Biso   1.000  N
  C38      1.0000 0.49767  0.60523  0.09003  Biso   1.000  C
  C39      1.0000 0.46137  0.55453  0.12243  Biso   1.000  C
  H35      1.0000 0.44127  0.52803  0.07783  Biso   1.000  H
  N18      1.0000 0.45437  0.54253  0.21353  Biso   1.000  N
  C40      1.0000 0.48527  0.58053  0.27243  Biso   1.000  C
  H36      1.0000 0.48247  0.57323  0.33773  Biso   1.000  H
  C41      1.0000 0.52137  0.63023  0.24113  Biso   1.000  C
  H37      1.0000 0.54247  0.65643  0.28553  Biso   1.000  H
  N19      1.0000 0.59747  0.66993  0.97113  Biso   1.000  N
  C42      1.0000 0.55357  0.62653  0.94853  Biso   1.000  C
  C43      1.0000 0.55527  0.58963  0.88863  Biso   1.000  C
  H38      1.0000 0.52367  0.55823  0.87453  Biso   1.000  H
  N20      1.0000 0.59967  0.59723  0.85113  Biso   1.000  N
  C44      1.0000 0.64367  0.64053  0.87663  Biso   1.000  C
  H39      1.0000 0.67647  0.64653  0.85373  Biso   1.000  H
  C45      1.0000 0.64177  0.67643  0.93593  Biso   1.000  C
  H40      1.0000 0.67357  0.70713  0.95213  Biso   1.000  H
  Ag6      1.0000 0.26296  0.05838  0.41502  Biso   1.000  Ag
  C46      1.0000 0.16903  0.95147  0.32197  Biso   1.000  C
  H41      1.0000 0.16703  0.98377  0.31297  Biso   1.000  H
  H42      1.0000 0.13943  0.92267  0.28767  Biso   1.000  H
  N21      1.0000 0.19383  0.97557  0.48347  Biso   1.000  N
  C47      1.0000 0.16433  0.93857  0.42337  Biso   1.000  C
  C48      1.0000 0.12803  0.88787  0.45577  Biso   1.000  C
  H43      1.0000 0.10793  0.86137  0.41117  Biso   1.000  H
  N22      1.0000 0.12103  0.87587  0.54687  Biso   1.000  N
  C49      1.0000 0.15193  0.91387  0.60577  Biso   1.000  C
  H44      1.0000 0.14913  0.90657  0.67107  Biso   1.000  H
  C50      1.0000 0.18803  0.96357  0.57447  Biso   1.000  C
  H45      1.0000 0.20913  0.98977  0.61887  Biso   1.000  H
  N23      1.0000 0.26413  0.00327  0.30447  Biso   1.000  N
  C51      1.0000 0.22023  0.95987  0.28187  Biso   1.000  C
  C52      1.0000 0.22193  0.92297  0.22197  Biso   1.000  C
  H46      1.0000 0.19033  0.89157  0.20787  Biso   1.000  H
  N24      1.0000 0.26633  0.93057  0.18447  Biso   1.000  N
  C53      1.0000 0.31033  0.97387  0.20997  Biso   1.000  C
  H47      1.0000 0.34313  0.97987  0.18707  Biso   1.000  H
  C54      1.0000 0.30843  0.00977  0.26927  Biso   1.000  C
  H48      1.0000 0.34023  0.04047  0.28547  Biso   1.000  H
  Ag7      1.0000 0.60829  0.53792  0.74835  Biso   1.000  Ag
  C55      1.0000 0.71520  0.55090  0.65530  Biso   1.000  C
  H49      1.0000 0.68290  0.51660  0.64630  Biso   1.000  H
  H50      1.0000 0.74400  0.55010  0.62100  Biso   1.000  H
  N25      1.0000 0.69110  0.55160  0.81680  Biso   1.000  N
  C56      1.0000 0.72810  0.55910  0.75670  Biso   1.000  C
  C57      1.0000 0.77880  0.57350  0.78910  Biso   1.000  C
  H51      1.0000 0.80530  0.57990  0.74450  Biso   1.000  H
  N26      1.0000 0.79080  0.57850  0.88020  Biso   1.000  N
  C58      1.0000 0.75280  0.57140  0.93910  Biso   1.000  C
  H52      1.0000 0.76010  0.57590  0.00440  Biso   1.000  H
  C59      1.0000 0.70310  0.55780  0.90780  Biso   1.000  C
  H53      1.0000 0.67690  0.55270  0.95220  Biso   1.000  H
  N27      1.0000 0.66340  0.59420  0.63780  Biso   1.000  N
  C60      1.0000 0.70680  0.59370  0.61520  Biso   1.000  C
  C61      1.0000 0.74370  0.63230  0.55530  Biso   1.000  C
  H54      1.0000 0.77510  0.63210  0.54120  Biso   1.000  H
  N28      1.0000 0.73610  0.66910  0.51780  Biso   1.000  N
  C62      1.0000 0.69280  0.66980  0.54330  Biso   1.000  C
  H55      1.0000 0.68680  0.69660  0.52040  Biso   1.000  H
  C63      1.0000 0.65690  0.63200  0.60260  Biso   1.000  C
  H56      1.0000 0.62620  0.63310  0.61880  Biso   1.000  H
  Ag8      1.0000 0.27496  0.87125  0.08168  Biso   1.000  Ag
  C64      1.0000 0.38187  0.88423  0.98863  Biso   1.000  C
  H57      1.0000 0.34957  0.84993  0.97963  Biso   1.000  H
  H58      1.0000 0.41067  0.88343  0.95433  Biso   1.000  H
  N29      1.0000 0.35777  0.88493  0.15013  Biso   1.000  N
  C65      1.0000 0.39477  0.89243  0.09003  Biso   1.000  C
  C66      1.0000 0.44547  0.90683  0.12243  Biso   1.000  C
  H59      1.0000 0.47197  0.91323  0.07783  Biso   1.000  H
  N30      1.0000 0.45747  0.91183  0.21353  Biso   1.000  N
  C67      1.0000 0.41947  0.90473  0.27243  Biso   1.000  C
  H60      1.0000 0.42677  0.90923  0.33773  Biso   1.000  H
  C68      1.0000 0.36977  0.89113  0.24113  Biso   1.000  C
  H61      1.0000 0.34357  0.88603  0.28553  Biso   1.000  H
  N31      1.0000 0.33007  0.92753  0.97113  Biso   1.000  N
  C69      1.0000 0.37347  0.92703  0.94853  Biso   1.000  C
  C70      1.0000 0.41037  0.96563  0.88863  Biso   1.000  C
  H62      1.0000 0.44177  0.96543  0.87453  Biso   1.000  H
  N32      1.0000 0.40277  0.00243  0.85113  Biso   1.000  N
  C71      1.0000 0.35947  0.00313  0.87663  Biso   1.000  C
  H63      1.0000 0.35347  0.02993  0.85373  Biso   1.000  H
  C72      1.0000 0.32357  0.96533  0.93593  Biso   1.000  C
  H64      1.0000 0.29287  0.96643  0.95213  Biso   1.000  H
  Ag9      1.0000 0.94162  0.20459  0.41502  Biso   1.000  Ag
  C73      1.0000 0.04853  0.21757  0.32197  Biso   1.000  C
  H65      1.0000 0.01623  0.18327  0.31297  Biso   1.000  H
  H66      1.0000 0.07733  0.21677  0.28767  Biso   1.000  H
  N33      1.0000 0.02443  0.21827  0.48347  Biso   1.000  N
  C74      1.0000 0.06143  0.22577  0.42337  Biso   1.000  C
  C75      1.0000 0.11213  0.24017  0.45577  Biso   1.000  C
  H67      1.0000 0.13863  0.24657  0.41117  Biso   1.000  H
  N34      1.0000 0.12413  0.24517  0.54687  Biso   1.000  N
  C76      1.0000 0.08613  0.23807  0.60577  Biso   1.000  C
  H68      1.0000 0.09343  0.24257  0.67107  Biso   1.000  H
  C77      1.0000 0.03643  0.22447  0.57447  Biso   1.000  C
  H69      1.0000 0.01023  0.21937  0.61887  Biso   1.000  H
  N35      1.0000 0.99673  0.26087  0.30447  Biso   1.000  N
  C78      1.0000 0.04013  0.26037  0.28187  Biso   1.000  C
  C79      1.0000 0.07703  0.29897  0.22197  Biso   1.000  C
  H70      1.0000 0.10843  0.29877  0.20787  Biso   1.000  H
  N36      1.0000 0.06943  0.33577  0.18447  Biso   1.000  N
  C80      1.0000 0.02613  0.33647  0.20997  Biso   1.000  C
  H71      1.0000 0.02013  0.36327  0.18707  Biso   1.000  H
  C81      1.0000 0.99023  0.29867  0.26927  Biso   1.000  C
  H72      1.0000 0.95953  0.29977  0.28547  Biso   1.000  H
  Ag10     1.0000 0.53792  0.92963  0.25165  Biso   1.000  Ag
  C82      1.0000 0.55090  0.83570  0.34470  Biso   1.000  C
  H73      1.0000 0.51660  0.83370  0.35370  Biso   1.000  H
  H74      1.0000 0.55010  0.80610  0.37900  Biso   1.000  H
  N37      1.0000 0.55160  0.86050  0.18320  Biso   1.000  N
  C83      1.0000 0.55910  0.83100  0.24330  Biso   1.000  C
  C84      1.0000 0.57350  0.79470  0.21090  Biso   1.000  C
  H75      1.0000 0.57990  0.77460  0.25550  Biso   1.000  H
  N38      1.0000 0.57850  0.78770  0.11980  Biso   1.000  N
  C85      1.0000 0.57140  0.81860  0.06090  Biso   1.000  C
  H76      1.0000 0.57590  0.81580  0.99560  Biso   1.000  H
  C86      1.0000 0.55780  0.85470  0.09220  Biso   1.000  C
  H77      1.0000 0.55270  0.87580  0.04780  Biso   1.000  H
  N39      1.0000 0.59420  0.93080  0.36220  Biso   1.000  N
  C87      1.0000 0.59370  0.88690  0.38480  Biso   1.000  C
  C88      1.0000 0.63230  0.88860  0.44470  Biso   1.000  C
  H78      1.0000 0.63210  0.85700  0.45880  Biso   1.000  H
  N40      1.0000 0.66910  0.93300  0.48220  Biso   1.000  N
  C89      1.0000 0.66980  0.97700  0.45670  Biso   1.000  C
  H79      1.0000 0.69660  0.00980  0.47960  Biso   1.000  H
  C90      1.0000 0.63200  0.97510  0.39740  Biso   1.000  C
  H80      1.0000 0.63310  0.00690  0.38120  Biso   1.000  H
  Ag11     1.0000 0.20459  0.26296  0.58498  Biso   1.000  Ag
  C91      1.0000 0.21757  0.16903  0.67803  Biso   1.000  C
  H81      1.0000 0.18327  0.16703  0.68703  Biso   1.000  H
  H82      1.0000 0.21677  0.13943  0.71233  Biso   1.000  H
  N41      1.0000 0.21827  0.19383  0.51653  Biso   1.000  N
  C92      1.0000 0.22577  0.16433  0.57663  Biso   1.000  C
  C93      1.0000 0.24017  0.12803  0.54423  Biso   1.000  C
  H83      1.0000 0.24657  0.10793  0.58883  Biso   1.000  H
  N42      1.0000 0.24517  0.12103  0.45313  Biso   1.000  N
  C94      1.0000 0.23807  0.15193  0.39423  Biso   1.000  C
  H84      1.0000 0.24257  0.14913  0.32893  Biso   1.000  H
  C95      1.0000 0.22447  0.18803  0.42553  Biso   1.000  C
  H85      1.0000 0.21937  0.20913  0.38113  Biso   1.000  H
  N43      1.0000 0.26087  0.26413  0.69553  Biso   1.000  N
  C96      1.0000 0.26037  0.22023  0.71813  Biso   1.000  C
  C97      1.0000 0.29897  0.22193  0.77803  Biso   1.000  C
  H86      1.0000 0.29877  0.19033  0.79213  Biso   1.000  H
  N44      1.0000 0.33577  0.26633  0.81553  Biso   1.000  N
  C98      1.0000 0.33647  0.31033  0.79003  Biso   1.000  C
  H87      1.0000 0.36327  0.34313  0.81293  Biso   1.000  H
  C99      1.0000 0.29867  0.30843  0.73073  Biso   1.000  C
  H88      1.0000 0.29977  0.34023  0.71453  Biso   1.000  H
  Ag12     1.0000 0.87125  0.59630  0.91832  Biso   1.000  Ag
  C100     1.0000 0.88423  0.50237  0.01137  Biso   1.000  C
  H89      1.0000 0.84993  0.50037  0.02037  Biso   1.000  H
  H90      1.0000 0.88343  0.47277  0.04567  Biso   1.000  H
  N45      1.0000 0.88493  0.52717  0.84987  Biso   1.000  N
  C101     1.0000 0.89243  0.49767  0.90997  Biso   1.000  C
  C102     1.0000 0.90683  0.46137  0.87757  Biso   1.000  C
  H91      1.0000 0.91323  0.44127  0.92217  Biso   1.000  H
  N46      1.0000 0.91183  0.45437  0.78647  Biso   1.000  N
  C103     1.0000 0.90473  0.48527  0.72757  Biso   1.000  C
  H92      1.0000 0.90923  0.48247  0.66227  Biso   1.000  H
  C104     1.0000 0.89113  0.52137  0.75887  Biso   1.000  C
  H93      1.0000 0.88603  0.54247  0.71447  Biso   1.000  H
  N47      1.0000 0.92753  0.59747  0.02887  Biso   1.000  N
  C105     1.0000 0.92703  0.55357  0.05147  Biso   1.000  C
  C106     1.0000 0.96563  0.55527  0.11137  Biso   1.000  C
  H94      1.0000 0.96543  0.52367  0.12547  Biso   1.000  H
  N48      1.0000 0.00243  0.59967  0.14887  Biso   1.000  N
  C107     1.0000 0.00313  0.64367  0.12337  Biso   1.000  C
  H95      1.0000 0.02993  0.67647  0.14627  Biso   1.000  H
  C108     1.0000 0.96533  0.64177  0.06407  Biso   1.000  C
  H96      1.0000 0.96643  0.67357  0.04787  Biso   1.000  H
  Ag13     1.0000 0.07037  0.60829  0.25165  Biso   1.000  Ag
  C109     1.0000 0.16430  0.71520  0.34470  Biso   1.000  C
  H97      1.0000 0.16630  0.68290  0.35370  Biso   1.000  H
  H98      1.0000 0.19390  0.74400  0.37900  Biso   1.000  H
  N49      1.0000 0.13950  0.69110  0.18320  Biso   1.000  N
  C110     1.0000 0.16900  0.72810  0.24330  Biso   1.000  C
  C111     1.0000 0.20530  0.77880  0.21090  Biso   1.000  C
  H99      1.0000 0.22540  0.80530  0.25550  Biso   1.000  H
  N50      1.0000 0.21230  0.79080  0.11980  Biso   1.000  N
  C112     1.0000 0.18140  0.75280  0.06090  Biso   1.000  C
  H100     1.0000 0.18420  0.76010  0.99560  Biso   1.000  H
  C113     1.0000 0.14530  0.70310  0.09220  Biso   1.000  C
  H101     1.0000 0.12420  0.67690  0.04780  Biso   1.000  H
  N51      1.0000 0.06920  0.66340  0.36220  Biso   1.000  N
  C114     1.0000 0.11310  0.70680  0.38480  Biso   1.000  C
  C115     1.0000 0.11140  0.74370  0.44470  Biso   1.000  C
  H102     1.0000 0.14300  0.77510  0.45880  Biso   1.000  H
  N52      1.0000 0.06700  0.73610  0.48220  Biso   1.000  N
  C116     1.0000 0.02300  0.69280  0.45670  Biso   1.000  C
  H103     1.0000 0.99020  0.68680  0.47960  Biso   1.000  H
  C117     1.0000 0.02490  0.65690  0.39740  Biso   1.000  C
  H104     1.0000 0.99310  0.62620  0.38120  Biso   1.000  H
  Ag14     1.0000 0.73704  0.94162  0.58498  Biso   1.000  Ag
  C118     1.0000 0.83097  0.04853  0.67803  Biso   1.000  C
  H105     1.0000 0.83297  0.01623  0.68703  Biso   1.000  H
  H106     1.0000 0.86057  0.07733  0.71233  Biso   1.000  H
  N53      1.0000 0.80617  0.02443  0.51653  Biso   1.000  N
  C119     1.0000 0.83567  0.06143  0.57663  Biso   1.000  C
  C120     1.0000 0.87197  0.11213  0.54423  Biso   1.000  C
  H107     1.0000 0.89207  0.13863  0.58883  Biso   1.000  H
  N54      1.0000 0.87897  0.12413  0.45313  Biso   1.000  N
  C121     1.0000 0.84807  0.08613  0.39423  Biso   1.000  C
  H108     1.0000 0.85087  0.09343  0.32893  Biso   1.000  H
  C122     1.0000 0.81197  0.03643  0.42553  Biso   1.000  C
  H109     1.0000 0.79087  0.01023  0.38113  Biso   1.000  H
  N55      1.0000 0.73587  0.99673  0.69553  Biso   1.000  N
  C123     1.0000 0.77977  0.04013  0.71813  Biso   1.000  C
  C124     1.0000 0.77807  0.07703  0.77803  Biso   1.000  C
  H110     1.0000 0.80967  0.10843  0.79213  Biso   1.000  H
  N56      1.0000 0.73367  0.06943  0.81553  Biso   1.000  N
  C125     1.0000 0.68967  0.02613  0.79003  Biso   1.000  C
  H111     1.0000 0.65687  0.02013  0.81293  Biso   1.000  H
  C126     1.0000 0.69157  0.99023  0.73073  Biso   1.000  C
  H112     1.0000 0.65977  0.95953  0.71453  Biso   1.000  H
  Ag15     1.0000 0.40370  0.27496  0.91832  Biso   1.000  Ag
  C127     1.0000 0.49763  0.38187  0.01137  Biso   1.000  C
  H113     1.0000 0.49963  0.34957  0.02037  Biso   1.000  H
  H114     1.0000 0.52723  0.41067  0.04567  Biso   1.000  H
  N57      1.0000 0.47283  0.35777  0.84987  Biso   1.000  N
  C128     1.0000 0.50233  0.39477  0.90997  Biso   1.000  C
  C129     1.0000 0.53863  0.44547  0.87757  Biso   1.000  C
  H115     1.0000 0.55873  0.47197  0.92217  Biso   1.000  H
  N58      1.0000 0.54563  0.45747  0.78647  Biso   1.000  N
  C130     1.0000 0.51473  0.41947  0.72757  Biso   1.000  C
  H116     1.0000 0.51753  0.42677  0.66227  Biso   1.000  H
  C131     1.0000 0.47863  0.36977  0.75887  Biso   1.000  C
  H117     1.0000 0.45753  0.34357  0.71447  Biso   1.000  H
  N59      1.0000 0.40253  0.33007  0.02887  Biso   1.000  N
  C132     1.0000 0.44643  0.37347  0.05147  Biso   1.000  C
  C133     1.0000 0.44473  0.41037  0.11137  Biso   1.000  C
  H118     1.0000 0.47633  0.44177  0.12547  Biso   1.000  H
  N60      1.0000 0.40033  0.40277  0.14887  Biso   1.000  N
  C134     1.0000 0.35633  0.35947  0.12337  Biso   1.000  C
  H119     1.0000 0.32353  0.35347  0.14627  Biso   1.000  H
  C135     1.0000 0.35823  0.32357  0.06407  Biso   1.000  C
  H120     1.0000 0.32643  0.29287  0.04787  Biso   1.000  H
  Ag16     1.0000 0.39171  0.46208  0.25165  Biso   1.000  Ag
  C136     1.0000 0.28480  0.44910  0.34470  Biso   1.000  C
  H121     1.0000 0.31710  0.48340  0.35370  Biso   1.000  H
  H122     1.0000 0.25600  0.44990  0.37900  Biso   1.000  H
  N61      1.0000 0.30890  0.44840  0.18320  Biso   1.000  N
  C137     1.0000 0.27190  0.44090  0.24330  Biso   1.000  C
  C138     1.0000 0.22120  0.42650  0.21090  Biso   1.000  C
  H123     1.0000 0.19470  0.42010  0.25550  Biso   1.000  H
  N62      1.0000 0.20920  0.42150  0.11980  Biso   1.000  N
  C139     1.0000 0.24720  0.42860  0.06090  Biso   1.000  C
  H124     1.0000 0.23990  0.42410  0.99560  Biso   1.000  H
  C140     1.0000 0.29690  0.44220  0.09220  Biso   1.000  C
  H125     1.0000 0.32310  0.44730  0.04780  Biso   1.000  H
  N63      1.0000 0.33660  0.40580  0.36220  Biso   1.000  N
  C141     1.0000 0.29320  0.40630  0.38480  Biso   1.000  C
  C142     1.0000 0.25630  0.36770  0.44470  Biso   1.000  C
  H126     1.0000 0.22490  0.36790  0.45880  Biso   1.000  H
  N64      1.0000 0.26390  0.33090  0.48220  Biso   1.000  N
  C143     1.0000 0.30720  0.33020  0.45670  Biso   1.000  C
  H127     1.0000 0.31320  0.30340  0.47960  Biso   1.000  H
  C144     1.0000 0.34310  0.36800  0.39740  Biso   1.000  C
  H128     1.0000 0.37380  0.36690  0.38120  Biso   1.000  H
  Ag17     1.0000 0.05838  0.79541  0.58498  Biso   1.000  Ag
  C145     1.0000 0.95147  0.78243  0.67803  Biso   1.000  C
  H129     1.0000 0.98377  0.81673  0.68703  Biso   1.000  H
  H130     1.0000 0.92267  0.78323  0.71233  Biso   1.000  H
  N65      1.0000 0.97557  0.78173  0.51653  Biso   1.000  N
  C146     1.0000 0.93857  0.77423  0.57663  Biso   1.000  C
  C147     1.0000 0.88787  0.75983  0.54423  Biso   1.000  C
  H131     1.0000 0.86137  0.75343  0.58883  Biso   1.000  H
  N66      1.0000 0.87587  0.75483  0.45313  Biso   1.000  N
  C148     1.0000 0.91387  0.76193  0.39423  Biso   1.000  C
  H132     1.0000 0.90657  0.75743  0.32893  Biso   1.000  H
  C149     1.0000 0.96357  0.77553  0.42553  Biso   1.000  C
  H133     1.0000 0.98977  0.78063  0.38113  Biso   1.000  H
  N67      1.0000 0.00327  0.73913  0.69553  Biso   1.000  N
  C150     1.0000 0.95987  0.73963  0.71813  Biso   1.000  C
  C151     1.0000 0.92297  0.70103  0.77803  Biso   1.000  C
  H134     1.0000 0.89157  0.70123  0.79213  Biso   1.000  H
  N68      1.0000 0.93057  0.66423  0.81553  Biso   1.000  N
  C152     1.0000 0.97387  0.66353  0.79003  Biso   1.000  C
  H135     1.0000 0.97987  0.63673  0.81293  Biso   1.000  H
  C153     1.0000 0.00977  0.70133  0.73073  Biso   1.000  C
  H136     1.0000 0.04047  0.70023  0.71453  Biso   1.000  H
  Ag18     1.0000 0.72504  0.12875  0.91832  Biso   1.000  Ag
  C154     1.0000 0.61813  0.11577  0.01137  Biso   1.000  C
  H137     1.0000 0.65043  0.15007  0.02037  Biso   1.000  H
  H138     1.0000 0.58933  0.11657  0.04567  Biso   1.000  H
  N69      1.0000 0.64223  0.11507  0.84987  Biso   1.000  N
  C155     1.0000 0.60523  0.10757  0.90997  Biso   1.000  C
  C156     1.0000 0.55453  0.09317  0.87757  Biso   1.000  C
  H139     1.0000 0.52803  0.08677  0.92217  Biso   1.000  H
  N70      1.0000 0.54253  0.08817  0.78647  Biso   1.000  N
  C157     1.0000 0.58053  0.09527  0.72757  Biso   1.000  C
  H140     1.0000 0.57323  0.09077  0.66227  Biso   1.000  H
  C158     1.0000 0.63023  0.10887  0.75887  Biso   1.000  C
  H141     1.0000 0.65643  0.11397  0.71447  Biso   1.000  H
  N71      1.0000 0.66993  0.07247  0.02887  Biso   1.000  N
  C159     1.0000 0.62653  0.07297  0.05147  Biso   1.000  C
  C160     1.0000 0.58963  0.03437  0.11137  Biso   1.000  C
  H142     1.0000 0.55823  0.03457  0.12547  Biso   1.000  H
  N72      1.0000 0.59723  0.99757  0.14887  Biso   1.000  N
  C161     1.0000 0.64053  0.99687  0.12337  Biso   1.000  C
  H143     1.0000 0.64653  0.97007  0.14627  Biso   1.000  H
  C162     1.0000 0.67643  0.03467  0.06407  Biso   1.000  C
  H144     1.0000 0.70713  0.03357  0.04787  Biso   1.000  H
