data_image0
_cell_length_a       29.054
_cell_length_b       29.054
_cell_length_c       12.6638
_cell_angle_alpha    90
_cell_angle_beta     90
_cell_angle_gamma    120

_symmetry_space_group_name_H-M    "P 1"
_symmetry_int_tables_number       1

loop_
  _symmetry_equiv_pos_as_xyz
  'x, y, z'

loop_
  _atom_site_label
  _atom_site_occupancy
  _atom_site_fract_x
  _atom_site_fract_y
  _atom_site_fract_z
  _atom_site_thermal_displace_type
  _atom_site_B_iso_or_equiv
  _atom_site_type_symbol
  Ag1      1.0000 0.47070  0.07052  0.21322  Biso   1.000  Ag
  N1       1.0000 0.44400  0.13040  0.29820  Biso   1.000  N
  N2       1.0000 0.41800  0.20180  0.38650  Biso   1.000  N
  N3       1.0000 0.34400  0.07820  0.95110  Biso   1.000  N
  N4       1.0000 0.42560  0.07960  0.07120  Biso   1.000  N
  C1       1.0000 0.44320  0.16930  0.23990  Biso   1.000  C
  C2       1.0000 0.37840  0.12090  0.00580  Biso   1.000  C
  H1       1.0000 0.37480  0.15160  0.00440  Biso   1.000  H
  C3       1.0000 0.39250  0.03700  0.01510  Biso   1.000  C
  H2       1.0000 0.39660  0.00660  0.01680  Biso   1.000  H
  C4       1.0000 0.41940  0.12230  0.06470  Biso   1.000  C
  C5       1.0000 0.35260  0.03590  0.95490  Biso   1.000  C
  H3       1.0000 0.33030  0.00490  0.91490  Biso   1.000  H
  C6       1.0000 0.41530  0.16250  0.44160  Biso   1.000  C
  H4       1.0000 0.40380  0.15820  0.51290  Biso   1.000  H
  C7       1.0000 0.42860  0.12770  0.39990  Biso   1.000  C
  H5       1.0000 0.42710  0.10040  0.44370  Biso   1.000  H
  C8       1.0000 0.43050  0.20440  0.28410  Biso   1.000  C
  H6       1.0000 0.43070  0.23130  0.24120  Biso   1.000  H
  C9       1.0000 0.45810  0.17130  0.12600  Biso   1.000  C
  H7       1.0000 0.49390  0.17520  0.12170  Biso   1.000  H
  H8       1.0000 0.45990  0.20300  0.09270  Biso   1.000  H
  Ag2      1.0000 0.13737  0.40385  0.54655  Biso   1.000  Ag
  N5       1.0000 0.11067  0.46373  0.63153  Biso   1.000  N
  N6       1.0000 0.08467  0.53513  0.71983  Biso   1.000  N
  N7       1.0000 0.01067  0.41153  0.28443  Biso   1.000  N
  N8       1.0000 0.09227  0.41293  0.40453  Biso   1.000  N
  C10      1.0000 0.10987  0.50263  0.57323  Biso   1.000  C
  C11      1.0000 0.04507  0.45423  0.33913  Biso   1.000  C
  H9       1.0000 0.04147  0.48493  0.33773  Biso   1.000  H
  C12      1.0000 0.05917  0.37033  0.34843  Biso   1.000  C
  H10      1.0000 0.06327  0.33993  0.35013  Biso   1.000  H
  C13      1.0000 0.08607  0.45563  0.39803  Biso   1.000  C
  C14      1.0000 0.01927  0.36923  0.28823  Biso   1.000  C
  H11      1.0000 0.99697  0.33823  0.24823  Biso   1.000  H
  C15      1.0000 0.08197  0.49583  0.77493  Biso   1.000  C
  H12      1.0000 0.07047  0.49153  0.84623  Biso   1.000  H
  C16      1.0000 0.09527  0.46103  0.73323  Biso   1.000  C
  H13      1.0000 0.09377  0.43373  0.77703  Biso   1.000  H
  C17      1.0000 0.09717  0.53773  0.61743  Biso   1.000  C
  H14      1.0000 0.09737  0.56463  0.57453  Biso   1.000  H
  C18      1.0000 0.12477  0.50463  0.45933  Biso   1.000  C
  H15      1.0000 0.16057  0.50853  0.45503  Biso   1.000  H
  H16      1.0000 0.12657  0.53633  0.42603  Biso   1.000  H
  Ag3      1.0000 0.80403  0.73719  0.87989  Biso   1.000  Ag
  N9       1.0000 0.77733  0.79707  0.96487  Biso   1.000  N
  N10      1.0000 0.75133  0.86847  0.05317  Biso   1.000  N
  N11      1.0000 0.67733  0.74487  0.61777  Biso   1.000  N
  N12      1.0000 0.75893  0.74627  0.73787  Biso   1.000  N
  C19      1.0000 0.77653  0.83597  0.90657  Biso   1.000  C
  C20      1.0000 0.71173  0.78757  0.67247  Biso   1.000  C
  H17      1.0000 0.70813  0.81827  0.67107  Biso   1.000  H
  C21      1.0000 0.72583  0.70367  0.68177  Biso   1.000  C
  H18      1.0000 0.72993  0.67327  0.68347  Biso   1.000  H
  C22      1.0000 0.75273  0.78897  0.73137  Biso   1.000  C
  C23      1.0000 0.68593  0.70257  0.62157  Biso   1.000  C
  H19      1.0000 0.66363  0.67157  0.58157  Biso   1.000  H
  C24      1.0000 0.74863  0.82917  0.10827  Biso   1.000  C
  H20      1.0000 0.73713  0.82487  0.17957  Biso   1.000  H
  C25      1.0000 0.76193  0.79437  0.06657  Biso   1.000  C
  H21      1.0000 0.76043  0.76707  0.11037  Biso   1.000  H
  C26      1.0000 0.76383  0.87107  0.95077  Biso   1.000  C
  H22      1.0000 0.76403  0.89797  0.90787  Biso   1.000  H
  C27      1.0000 0.79143  0.83797  0.79267  Biso   1.000  C
  H23      1.0000 0.82723  0.84187  0.78837  Biso   1.000  H
  H24      1.0000 0.79323  0.86967  0.75937  Biso   1.000  H
  Ag4      1.0000 0.92948  0.40018  0.21322  Biso   1.000  Ag
  N13      1.0000 0.86960  0.31360  0.29820  Biso   1.000  N
  N14      1.0000 0.79820  0.21620  0.38650  Biso   1.000  N
  N15      1.0000 0.92180  0.26580  0.95110  Biso   1.000  N
  N16      1.0000 0.92040  0.34600  0.07120  Biso   1.000  N
  C28      1.0000 0.83070  0.27390  0.23990  Biso   1.000  C
  C29      1.0000 0.87910  0.25750  0.00580  Biso   1.000  C
  H25      1.0000 0.84840  0.22320  0.00440  Biso   1.000  H
  C30      1.0000 0.96300  0.35550  0.01510  Biso   1.000  C
  H26      1.0000 0.99340  0.39000  0.01680  Biso   1.000  H
  C31      1.0000 0.87770  0.29710  0.06470  Biso   1.000  C
  C32      1.0000 0.96410  0.31670  0.95490  Biso   1.000  C
  H27      1.0000 0.99510  0.32540  0.91490  Biso   1.000  H
  C33      1.0000 0.83750  0.25280  0.44160  Biso   1.000  C
  H28      1.0000 0.84180  0.24560  0.51290  Biso   1.000  H
  C34      1.0000 0.87230  0.30090  0.39990  Biso   1.000  C
  H29      1.0000 0.89960  0.32670  0.44370  Biso   1.000  H
  C35      1.0000 0.79560  0.22610  0.28410  Biso   1.000  C
  H30      1.0000 0.76870  0.19940  0.24120  Biso   1.000  H
  C36      1.0000 0.82870  0.28680  0.12600  Biso   1.000  C
  H31      1.0000 0.82480  0.31870  0.12170  Biso   1.000  H
  H32      1.0000 0.79700  0.25690  0.09270  Biso   1.000  H
  Ag5      1.0000 0.59615  0.73351  0.54655  Biso   1.000  Ag
  N17      1.0000 0.53627  0.64693  0.63153  Biso   1.000  N
  N18      1.0000 0.46487  0.54953  0.71983  Biso   1.000  N
  N19      1.0000 0.58847  0.59913  0.28443  Biso   1.000  N
  N20      1.0000 0.58707  0.67933  0.40453  Biso   1.000  N
  C37      1.0000 0.49737  0.60723  0.57323  Biso   1.000  C
  C38      1.0000 0.54577  0.59083  0.33913  Biso   1.000  C
  H33      1.0000 0.51507  0.55653  0.33773  Biso   1.000  H
  C39      1.0000 0.62967  0.68883  0.34843  Biso   1.000  C
  H34      1.0000 0.66007  0.72333  0.35013  Biso   1.000  H
  C40      1.0000 0.54437  0.63043  0.39803  Biso   1.000  C
  C41      1.0000 0.63077  0.65003  0.28823  Biso   1.000  C
  H35      1.0000 0.66177  0.65873  0.24823  Biso   1.000  H
  C42      1.0000 0.50417  0.58613  0.77493  Biso   1.000  C
  H36      1.0000 0.50847  0.57893  0.84623  Biso   1.000  H
  C43      1.0000 0.53897  0.63423  0.73323  Biso   1.000  C
  H37      1.0000 0.56627  0.66003  0.77703  Biso   1.000  H
  C44      1.0000 0.46227  0.55943  0.61743  Biso   1.000  C
  H38      1.0000 0.43537  0.53273  0.57453  Biso   1.000  H
  C45      1.0000 0.49537  0.62013  0.45933  Biso   1.000  C
  H39      1.0000 0.49147  0.65203  0.45503  Biso   1.000  H
  H40      1.0000 0.46367  0.59023  0.42603  Biso   1.000  H
  Ag6      1.0000 0.26281  0.06685  0.87989  Biso   1.000  Ag
  N21      1.0000 0.20293  0.98027  0.96487  Biso   1.000  N
  N22      1.0000 0.13153  0.88287  0.05317  Biso   1.000  N
  N23      1.0000 0.25513  0.93247  0.61777  Biso   1.000  N
  N24      1.0000 0.25373  0.01267  0.73787  Biso   1.000  N
  C46      1.0000 0.16403  0.94057  0.90657  Biso   1.000  C
  C47      1.0000 0.21243  0.92417  0.67247  Biso   1.000  C
  H41      1.0000 0.18173  0.88987  0.67107  Biso   1.000  H
  C48      1.0000 0.29633  0.02217  0.68177  Biso   1.000  C
  H42      1.0000 0.32673  0.05667  0.68347  Biso   1.000  H
  C49      1.0000 0.21103  0.96377  0.73137  Biso   1.000  C
  C50      1.0000 0.29743  0.98337  0.62157  Biso   1.000  C
  H43      1.0000 0.32843  0.99207  0.58157  Biso   1.000  H
  C51      1.0000 0.17083  0.91947  0.10827  Biso   1.000  C
  H44      1.0000 0.17513  0.91227  0.17957  Biso   1.000  H
  C52      1.0000 0.20563  0.96757  0.06657  Biso   1.000  C
  H45      1.0000 0.23293  0.99337  0.11037  Biso   1.000  H
  C53      1.0000 0.12893  0.89277  0.95077  Biso   1.000  C
  H46      1.0000 0.10203  0.86607  0.90787  Biso   1.000  H
  C54      1.0000 0.16203  0.95347  0.79267  Biso   1.000  C
  H47      1.0000 0.15813  0.98537  0.78837  Biso   1.000  H
  H48      1.0000 0.13033  0.92357  0.75937  Biso   1.000  H
  Ag7      1.0000 0.59982  0.52930  0.21322  Biso   1.000  Ag
  N25      1.0000 0.68640  0.55600  0.29820  Biso   1.000  N
  N26      1.0000 0.78380  0.58200  0.38650  Biso   1.000  N
  N27      1.0000 0.73420  0.65600  0.95110  Biso   1.000  N
  N28      1.0000 0.65400  0.57440  0.07120  Biso   1.000  N
  C55      1.0000 0.72610  0.55680  0.23990  Biso   1.000  C
  C56      1.0000 0.74250  0.62160  0.00580  Biso   1.000  C
  H49      1.0000 0.77680  0.62520  0.00440  Biso   1.000  H
  C57      1.0000 0.64450  0.60750  0.01510  Biso   1.000  C
  H50      1.0000 0.61000  0.60340  0.01680  Biso   1.000  H
  C58      1.0000 0.70290  0.58060  0.06470  Biso   1.000  C
  C59      1.0000 0.68330  0.64740  0.95490  Biso   1.000  C
  H51      1.0000 0.67460  0.66970  0.91490  Biso   1.000  H
  C60      1.0000 0.74720  0.58470  0.44160  Biso   1.000  C
  H52      1.0000 0.75440  0.59620  0.51290  Biso   1.000  H
  C61      1.0000 0.69910  0.57140  0.39990  Biso   1.000  C
  H53      1.0000 0.67330  0.57290  0.44370  Biso   1.000  H
  C62      1.0000 0.77390  0.56950  0.28410  Biso   1.000  C
  H54      1.0000 0.80060  0.56930  0.24120  Biso   1.000  H
  C63      1.0000 0.71320  0.54190  0.12600  Biso   1.000  C
  H55      1.0000 0.68130  0.50610  0.12170  Biso   1.000  H
  H56      1.0000 0.74310  0.54010  0.09270  Biso   1.000  H
  Ag8      1.0000 0.26649  0.86263  0.54655  Biso   1.000  Ag
  N29      1.0000 0.35307  0.88933  0.63153  Biso   1.000  N
  N30      1.0000 0.45047  0.91533  0.71983  Biso   1.000  N
  N31      1.0000 0.40087  0.98933  0.28443  Biso   1.000  N
  N32      1.0000 0.32067  0.90773  0.40453  Biso   1.000  N
  C64      1.0000 0.39277  0.89013  0.57323  Biso   1.000  C
  C65      1.0000 0.40917  0.95493  0.33913  Biso   1.000  C
  H57      1.0000 0.44347  0.95853  0.33773  Biso   1.000  H
  C66      1.0000 0.31117  0.94083  0.34843  Biso   1.000  C
  H58      1.0000 0.27667  0.93673  0.35013  Biso   1.000  H
  C67      1.0000 0.36957  0.91393  0.39803  Biso   1.000  C
  C68      1.0000 0.34997  0.98073  0.28823  Biso   1.000  C
  H59      1.0000 0.34127  0.00303  0.24823  Biso   1.000  H
  C69      1.0000 0.41387  0.91803  0.77493  Biso   1.000  C
  H60      1.0000 0.42107  0.92953  0.84623  Biso   1.000  H
  C70      1.0000 0.36577  0.90473  0.73323  Biso   1.000  C
  H61      1.0000 0.33997  0.90623  0.77703  Biso   1.000  H
  C71      1.0000 0.44057  0.90283  0.61743  Biso   1.000  C
  H62      1.0000 0.46727  0.90263  0.57453  Biso   1.000  H
  C72      1.0000 0.37987  0.87523  0.45933  Biso   1.000  C
  H63      1.0000 0.34797  0.83943  0.45503  Biso   1.000  H
  H64      1.0000 0.40977  0.87343  0.42603  Biso   1.000  H
  Ag9      1.0000 0.93315  0.19597  0.87989  Biso   1.000  Ag
  N33      1.0000 0.01973  0.22267  0.96487  Biso   1.000  N
  N34      1.0000 0.11713  0.24867  0.05317  Biso   1.000  N
  N35      1.0000 0.06753  0.32267  0.61777  Biso   1.000  N
  N36      1.0000 0.98733  0.24107  0.73787  Biso   1.000  N
  C73      1.0000 0.05943  0.22347  0.90657  Biso   1.000  C
  C74      1.0000 0.07583  0.28827  0.67247  Biso   1.000  C
  H65      1.0000 0.11013  0.29187  0.67107  Biso   1.000  H
  C75      1.0000 0.97783  0.27417  0.68177  Biso   1.000  C
  H66      1.0000 0.94333  0.27007  0.68347  Biso   1.000  H
  C76      1.0000 0.03623  0.24727  0.73137  Biso   1.000  C
  C77      1.0000 0.01663  0.31407  0.62157  Biso   1.000  C
  H67      1.0000 0.00793  0.33637  0.58157  Biso   1.000  H
  C78      1.0000 0.08053  0.25137  0.10827  Biso   1.000  C
  H68      1.0000 0.08773  0.26287  0.17957  Biso   1.000  H
  C79      1.0000 0.03243  0.23807  0.06657  Biso   1.000  C
  H69      1.0000 0.00663  0.23957  0.11037  Biso   1.000  H
  C80      1.0000 0.10723  0.23617  0.95077  Biso   1.000  C
  H70      1.0000 0.13393  0.23597  0.90787  Biso   1.000  H
  C81      1.0000 0.04653  0.20857  0.79267  Biso   1.000  C
  H71      1.0000 0.01463  0.17277  0.78837  Biso   1.000  H
  H72      1.0000 0.07643  0.20677  0.75937  Biso   1.000  H
  Ag10     1.0000 0.52930  0.92948  0.78678  Biso   1.000  Ag
  N37      1.0000 0.55600  0.86960  0.70180  Biso   1.000  N
  N38      1.0000 0.58200  0.79820  0.61350  Biso   1.000  N
  N39      1.0000 0.65600  0.92180  0.04890  Biso   1.000  N
  N40      1.0000 0.57440  0.92040  0.92880  Biso   1.000  N
  C82      1.0000 0.55680  0.83070  0.76010  Biso   1.000  C
  C83      1.0000 0.62160  0.87910  0.99420  Biso   1.000  C
  H73      1.0000 0.62520  0.84840  0.99560  Biso   1.000  H
  C84      1.0000 0.60750  0.96300  0.98490  Biso   1.000  C
  H74      1.0000 0.60340  0.99340  0.98320  Biso   1.000  H
  C85      1.0000 0.58060  0.87770  0.93530  Biso   1.000  C
  C86      1.0000 0.64740  0.96410  0.04510  Biso   1.000  C
  H75      1.0000 0.66970  0.99510  0.08510  Biso   1.000  H
  C87      1.0000 0.58470  0.83750  0.55840  Biso   1.000  C
  H76      1.0000 0.59620  0.84180  0.48710  Biso   1.000  H
  C88      1.0000 0.57140  0.87230  0.60010  Biso   1.000  C
  H77      1.0000 0.57290  0.89960  0.55630  Biso   1.000  H
  C89      1.0000 0.56950  0.79560  0.71590  Biso   1.000  C
  H78      1.0000 0.56930  0.76870  0.75880  Biso   1.000  H
  C90      1.0000 0.54190  0.82870  0.87400  Biso   1.000  C
  H79      1.0000 0.50610  0.82480  0.87830  Biso   1.000  H
  H80      1.0000 0.54010  0.79700  0.90730  Biso   1.000  H
  Ag11     1.0000 0.19597  0.26281  0.12011  Biso   1.000  Ag
  N41      1.0000 0.22267  0.20293  0.03513  Biso   1.000  N
  N42      1.0000 0.24867  0.13153  0.94683  Biso   1.000  N
  N43      1.0000 0.32267  0.25513  0.38223  Biso   1.000  N
  N44      1.0000 0.24107  0.25373  0.26213  Biso   1.000  N
  C91      1.0000 0.22347  0.16403  0.09343  Biso   1.000  C
  C92      1.0000 0.28827  0.21243  0.32753  Biso   1.000  C
  H81      1.0000 0.29187  0.18173  0.32893  Biso   1.000  H
  C93      1.0000 0.27417  0.29633  0.31823  Biso   1.000  C
  H82      1.0000 0.27007  0.32673  0.31653  Biso   1.000  H
  C94      1.0000 0.24727  0.21103  0.26863  Biso   1.000  C
  C95      1.0000 0.31407  0.29743  0.37843  Biso   1.000  C
  H83      1.0000 0.33637  0.32843  0.41843  Biso   1.000  H
  C96      1.0000 0.25137  0.17083  0.89173  Biso   1.000  C
  H84      1.0000 0.26287  0.17513  0.82043  Biso   1.000  H
  C97      1.0000 0.23807  0.20563  0.93343  Biso   1.000  C
  H85      1.0000 0.23957  0.23293  0.88963  Biso   1.000  H
  C98      1.0000 0.23617  0.12893  0.04923  Biso   1.000  C
  H86      1.0000 0.23597  0.10203  0.09213  Biso   1.000  H
  C99      1.0000 0.20857  0.16203  0.20733  Biso   1.000  C
  H87      1.0000 0.17277  0.15813  0.21163  Biso   1.000  H
  H88      1.0000 0.20677  0.13033  0.24063  Biso   1.000  H
  Ag12     1.0000 0.86263  0.59615  0.45345  Biso   1.000  Ag
  N45      1.0000 0.88933  0.53627  0.36847  Biso   1.000  N
  N46      1.0000 0.91533  0.46487  0.28017  Biso   1.000  N
  N47      1.0000 0.98933  0.58847  0.71557  Biso   1.000  N
  N48      1.0000 0.90773  0.58707  0.59547  Biso   1.000  N
  C100     1.0000 0.89013  0.49737  0.42677  Biso   1.000  C
  C101     1.0000 0.95493  0.54577  0.66087  Biso   1.000  C
  H89      1.0000 0.95853  0.51507  0.66227  Biso   1.000  H
  C102     1.0000 0.94083  0.62967  0.65157  Biso   1.000  C
  H90      1.0000 0.93673  0.66007  0.64987  Biso   1.000  H
  C103     1.0000 0.91393  0.54437  0.60197  Biso   1.000  C
  C104     1.0000 0.98073  0.63077  0.71177  Biso   1.000  C
  H91      1.0000 0.00303  0.66177  0.75177  Biso   1.000  H
  C105     1.0000 0.91803  0.50417  0.22507  Biso   1.000  C
  H92      1.0000 0.92953  0.50847  0.15377  Biso   1.000  H
  C106     1.0000 0.90473  0.53897  0.26677  Biso   1.000  C
  H93      1.0000 0.90623  0.56627  0.22297  Biso   1.000  H
  C107     1.0000 0.90283  0.46227  0.38257  Biso   1.000  C
  H94      1.0000 0.90263  0.43537  0.42547  Biso   1.000  H
  C108     1.0000 0.87523  0.49537  0.54067  Biso   1.000  C
  H95      1.0000 0.83943  0.49147  0.54497  Biso   1.000  H
  H96      1.0000 0.87343  0.46367  0.57397  Biso   1.000  H
  Ag13     1.0000 0.07052  0.59982  0.78678  Biso   1.000  Ag
  N49      1.0000 0.13040  0.68640  0.70180  Biso   1.000  N
  N50      1.0000 0.20180  0.78380  0.61350  Biso   1.000  N
  N51      1.0000 0.07820  0.73420  0.04890  Biso   1.000  N
  N52      1.0000 0.07960  0.65400  0.92880  Biso   1.000  N
  C109     1.0000 0.16930  0.72610  0.76010  Biso   1.000  C
  C110     1.0000 0.12090  0.74250  0.99420  Biso   1.000  C
  H97      1.0000 0.15160  0.77680  0.99560  Biso   1.000  H
  C111     1.0000 0.03700  0.64450  0.98490  Biso   1.000  C
  H98      1.0000 0.00660  0.61000  0.98320  Biso   1.000  H
  C112     1.0000 0.12230  0.70290  0.93530  Biso   1.000  C
  C113     1.0000 0.03590  0.68330  0.04510  Biso   1.000  C
  H99      1.0000 0.00490  0.67460  0.08510  Biso   1.000  H
  C114     1.0000 0.16250  0.74720  0.55840  Biso   1.000  C
  H100     1.0000 0.15820  0.75440  0.48710  Biso   1.000  H
  C115     1.0000 0.12770  0.69910  0.60010  Biso   1.000  C
  H101     1.0000 0.10040  0.67330  0.55630  Biso   1.000  H
  C116     1.0000 0.20440  0.77390  0.71590  Biso   1.000  C
  H102     1.0000 0.23130  0.80060  0.75880  Biso   1.000  H
  C117     1.0000 0.17130  0.71320  0.87400  Biso   1.000  C
  H103     1.0000 0.17520  0.68130  0.87830  Biso   1.000  H
  H104     1.0000 0.20300  0.74310  0.90730  Biso   1.000  H
  Ag14     1.0000 0.73719  0.93315  0.12011  Biso   1.000  Ag
  N53      1.0000 0.79707  0.01973  0.03513  Biso   1.000  N
  N54      1.0000 0.86847  0.11713  0.94683  Biso   1.000  N
  N55      1.0000 0.74487  0.06753  0.38223  Biso   1.000  N
  N56      1.0000 0.74627  0.98733  0.26213  Biso   1.000  N
  C118     1.0000 0.83597  0.05943  0.09343  Biso   1.000  C
  C119     1.0000 0.78757  0.07583  0.32753  Biso   1.000  C
  H105     1.0000 0.81827  0.11013  0.32893  Biso   1.000  H
  C120     1.0000 0.70367  0.97783  0.31823  Biso   1.000  C
  H106     1.0000 0.67327  0.94333  0.31653  Biso   1.000  H
  C121     1.0000 0.78897  0.03623  0.26863  Biso   1.000  C
  C122     1.0000 0.70257  0.01663  0.37843  Biso   1.000  C
  H107     1.0000 0.67157  0.00793  0.41843  Biso   1.000  H
  C123     1.0000 0.82917  0.08053  0.89173  Biso   1.000  C
  H108     1.0000 0.82487  0.08773  0.82043  Biso   1.000  H
  C124     1.0000 0.79437  0.03243  0.93343  Biso   1.000  C
  H109     1.0000 0.76707  0.00663  0.88963  Biso   1.000  H
  C125     1.0000 0.87107  0.10723  0.04923  Biso   1.000  C
  H110     1.0000 0.89797  0.13393  0.09213  Biso   1.000  H
  C126     1.0000 0.83797  0.04653  0.20733  Biso   1.000  C
  H111     1.0000 0.84187  0.01463  0.21163  Biso   1.000  H
  H112     1.0000 0.86967  0.07643  0.24063  Biso   1.000  H
  Ag15     1.0000 0.40385  0.26649  0.45345  Biso   1.000  Ag
  N57      1.0000 0.46373  0.35307  0.36847  Biso   1.000  N
  N58      1.0000 0.53513  0.45047  0.28017  Biso   1.000  N
  N59      1.0000 0.41153  0.40087  0.71557  Biso   1.000  N
  N60      1.0000 0.41293  0.32067  0.59547  Biso   1.000  N
  C127     1.0000 0.50263  0.39277  0.42677  Biso   1.000  C
  C128     1.0000 0.45423  0.40917  0.66087  Biso   1.000  C
  H113     1.0000 0.48493  0.44347  0.66227  Biso   1.000  H
  C129     1.0000 0.37033  0.31117  0.65157  Biso   1.000  C
  H114     1.0000 0.33993  0.27667  0.64987  Biso   1.000  H
  C130     1.0000 0.45563  0.36957  0.60197  Biso   1.000  C
  C131     1.0000 0.36923  0.34997  0.71177  Biso   1.000  C
  H115     1.0000 0.33823  0.34127  0.75177  Biso   1.000  H
  C132     1.0000 0.49583  0.41387  0.22507  Biso   1.000  C
  H116     1.0000 0.49153  0.42107  0.15377  Biso   1.000  H
  C133     1.0000 0.46103  0.36577  0.26677  Biso   1.000  C
  H117     1.0000 0.43373  0.33997  0.22297  Biso   1.000  H
  C134     1.0000 0.53773  0.44057  0.38257  Biso   1.000  C
  H118     1.0000 0.56463  0.46727  0.42547  Biso   1.000  H
  C135     1.0000 0.50463  0.37987  0.54067  Biso   1.000  C
  H119     1.0000 0.50853  0.34797  0.54497  Biso   1.000  H
  H120     1.0000 0.53633  0.40977  0.57397  Biso   1.000  H
  Ag16     1.0000 0.40018  0.47070  0.78678  Biso   1.000  Ag
  N61      1.0000 0.31360  0.44400  0.70180  Biso   1.000  N
  N62      1.0000 0.21620  0.41800  0.61350  Biso   1.000  N
  N63      1.0000 0.26580  0.34400  0.04890  Biso   1.000  N
  N64      1.0000 0.34600  0.42560  0.92880  Biso   1.000  N
  C136     1.0000 0.27390  0.44320  0.76010  Biso   1.000  C
  C137     1.0000 0.25750  0.37840  0.99420  Biso   1.000  C
  H121     1.0000 0.22320  0.37480  0.99560  Biso   1.000  H
  C138     1.0000 0.35550  0.39250  0.98490  Biso   1.000  C
  H122     1.0000 0.39000  0.39660  0.98320  Biso   1.000  H
  C139     1.0000 0.29710  0.41940  0.93530  Biso   1.000  C
  C140     1.0000 0.31670  0.35260  0.04510  Biso   1.000  C
  H123     1.0000 0.32540  0.33030  0.08510  Biso   1.000  H
  C141     1.0000 0.25280  0.41530  0.55840  Biso   1.000  C
  H124     1.0000 0.24560  0.40380  0.48710  Biso   1.000  H
  C142     1.0000 0.30090  0.42860  0.60010  Biso   1.000  C
  H125     1.0000 0.32670  0.42710  0.55630  Biso   1.000  H
  C143     1.0000 0.22610  0.43050  0.71590  Biso   1.000  C
  H126     1.0000 0.19940  0.43070  0.75880  Biso   1.000  H
  C144     1.0000 0.28680  0.45810  0.87400  Biso   1.000  C
  H127     1.0000 0.31870  0.49390  0.87830  Biso   1.000  H
  H128     1.0000 0.25690  0.45990  0.90730  Biso   1.000  H
  Ag17     1.0000 0.06685  0.80403  0.12011  Biso   1.000  Ag
  N65      1.0000 0.98027  0.77733  0.03513  Biso   1.000  N
  N66      1.0000 0.88287  0.75133  0.94683  Biso   1.000  N
  N67      1.0000 0.93247  0.67733  0.38223  Biso   1.000  N
  N68      1.0000 0.01267  0.75893  0.26213  Biso   1.000  N
  C145     1.0000 0.94057  0.77653  0.09343  Biso   1.000  C
  C146     1.0000 0.92417  0.71173  0.32753  Biso   1.000  C
  H129     1.0000 0.88987  0.70813  0.32893  Biso   1.000  H
  C147     1.0000 0.02217  0.72583  0.31823  Biso   1.000  C
  H130     1.0000 0.05667  0.72993  0.31653  Biso   1.000  H
  C148     1.0000 0.96377  0.75273  0.26863  Biso   1.000  C
  C149     1.0000 0.98337  0.68593  0.37843  Biso   1.000  C
  H131     1.0000 0.99207  0.66363  0.41843  Biso   1.000  H
  C150     1.0000 0.91947  0.74863  0.89173  Biso   1.000  C
  H132     1.0000 0.91227  0.73713  0.82043  Biso   1.000  H
  C151     1.0000 0.96757  0.76193  0.93343  Biso   1.000  C
  H133     1.0000 0.99337  0.76043  0.88963  Biso   1.000  H
  C152     1.0000 0.89277  0.76383  0.04923  Biso   1.000  C
  H134     1.0000 0.86607  0.76403  0.09213  Biso   1.000  H
  C153     1.0000 0.95347  0.79143  0.20733  Biso   1.000  C
  H135     1.0000 0.98537  0.82723  0.21163  Biso   1.000  H
  H136     1.0000 0.92357  0.79323  0.24063  Biso   1.000  H
  Ag18     1.0000 0.73351  0.13737  0.45345  Biso   1.000  Ag
  N69      1.0000 0.64693  0.11067  0.36847  Biso   1.000  N
  N70      1.0000 0.54953  0.08467  0.28017  Biso   1.000  N
  N71      1.0000 0.59913  0.01067  0.71557  Biso   1.000  N
  N72      1.0000 0.67933  0.09227  0.59547  Biso   1.000  N
  C154     1.0000 0.60723  0.10987  0.42677  Biso   1.000  C
  C155     1.0000 0.59083  0.04507  0.66087  Biso   1.000  C
  H137     1.0000 0.55653  0.04147  0.66227  Biso   1.000  H
  C156     1.0000 0.68883  0.05917  0.65157  Biso   1.000  C
  H138     1.0000 0.72333  0.06327  0.64987  Biso   1.000  H
  C157     1.0000 0.63043  0.08607  0.60197  Biso   1.000  C
  C158     1.0000 0.65003  0.01927  0.71177  Biso   1.000  C
  H139     1.0000 0.65873  0.99697  0.75177  Biso   1.000  H
  C159     1.0000 0.58613  0.08197  0.22507  Biso   1.000  C
  H140     1.0000 0.57893  0.07047  0.15377  Biso   1.000  H
  C160     1.0000 0.63423  0.09527  0.26677  Biso   1.000  C
  H141     1.0000 0.66003  0.09377  0.22297  Biso   1.000  H
  C161     1.0000 0.55943  0.09717  0.38257  Biso   1.000  C
  H142     1.0000 0.53273  0.09737  0.42547  Biso   1.000  H
  C162     1.0000 0.62013  0.12477  0.54067  Biso   1.000  C
  H143     1.0000 0.65203  0.16057  0.54497  Biso   1.000  H
  H144     1.0000 0.59023  0.12657  0.57397  Biso   1.000  H
