data_image0
_cell_length_a       28.9105
_cell_length_b       28.9105
_cell_length_c       14.3863
_cell_angle_alpha    90
_cell_angle_beta     90
_cell_angle_gamma    120

_symmetry_space_group_name_H-M    "P 1"
_symmetry_int_tables_number       1

loop_
  _symmetry_equiv_pos_as_xyz
  'x, y, z'

loop_
  _atom_site_label
  _atom_site_occupancy
  _atom_site_fract_x
  _atom_site_fract_y
  _atom_site_fract_z
  _atom_site_thermal_displace_type
  _atom_site_B_iso_or_equiv
  _atom_site_type_symbol
  Ag1      1.0000 0.80207  0.06580  0.39295  Biso   1.000  Ag
  N1       1.0000 0.73293  0.99703  0.29810  Biso   1.000  N
  C1       1.0000 0.76840  0.92660  0.60060  Biso   1.000  C
  H1       1.0000 0.76500  0.92270  0.66620  Biso   1.000  H
  C2       1.0000 0.73800  0.95522  0.27140  Biso   1.000  C
  C3       1.0000 0.77775  0.94139  0.41570  Biso   1.000  C
  C4       1.0000 0.78267  0.94900  0.31210  Biso   1.000  C
  H2       1.0000 0.78240  0.91780  0.28310  Biso   1.000  H
  H3       1.0000 0.81730  0.98110  0.29730  Biso   1.000  H
  C5       1.0000 0.75820  0.89128  0.45550  Biso   1.000  C
  H4       1.0000 0.74720  0.86120  0.41600  Biso   1.000  H
  N2       1.0000 0.79250  0.98433  0.46850  Biso   1.000  N
  C6       1.0000 0.65870  0.96590  0.19720  Biso   1.000  C
  H5       1.0000 0.63110  0.97080  0.17230  Biso   1.000  H
  N3       1.0000 0.75429  0.88383  0.54720  Biso   1.000  N
  C7       1.0000 0.70230  0.91860  0.20710  Biso   1.000  C
  H6       1.0000 0.70610  0.88890  0.18990  Biso   1.000  H
  C8       1.0000 0.78790  0.97650  0.56100  Biso   1.000  C
  H7       1.0000 0.79840  0.00640  0.60060  Biso   1.000  H
  N4       1.0000 0.66270  0.92398  0.16880  Biso   1.000  N
  C9       1.0000 0.69350  0.00230  0.26160  Biso   1.000  C
  H8       1.0000 0.68910  0.03140  0.28000  Biso   1.000  H
  Ag2      1.0000 0.46874  0.39913  0.72628  Biso   1.000  Ag
  N5       1.0000 0.39960  0.33036  0.63143  Biso   1.000  N
  C10      1.0000 0.43507  0.25993  0.93393  Biso   1.000  C
  H9       1.0000 0.43167  0.25603  0.99953  Biso   1.000  H
  C11      1.0000 0.40467  0.28855  0.60473  Biso   1.000  C
  C12      1.0000 0.44442  0.27472  0.74903  Biso   1.000  C
  C13      1.0000 0.44934  0.28233  0.64543  Biso   1.000  C
  H10      1.0000 0.44907  0.25113  0.61643  Biso   1.000  H
  H11      1.0000 0.48397  0.31443  0.63063  Biso   1.000  H
  C14      1.0000 0.42487  0.22461  0.78883  Biso   1.000  C
  H12      1.0000 0.41387  0.19453  0.74933  Biso   1.000  H
  N6       1.0000 0.45917  0.31766  0.80183  Biso   1.000  N
  C15      1.0000 0.32537  0.29923  0.53053  Biso   1.000  C
  H13      1.0000 0.29777  0.30413  0.50563  Biso   1.000  H
  N7       1.0000 0.42096  0.21716  0.88053  Biso   1.000  N
  C16      1.0000 0.36897  0.25193  0.54043  Biso   1.000  C
  H14      1.0000 0.37277  0.22223  0.52323  Biso   1.000  H
  C17      1.0000 0.45457  0.30983  0.89433  Biso   1.000  C
  H15      1.0000 0.46507  0.33973  0.93393  Biso   1.000  H
  N8       1.0000 0.32937  0.25731  0.50213  Biso   1.000  N
  C18      1.0000 0.36017  0.33563  0.59493  Biso   1.000  C
  H16      1.0000 0.35577  0.36473  0.61333  Biso   1.000  H
  Ag3      1.0000 0.13540  0.73247  0.05962  Biso   1.000  Ag
  N9       1.0000 0.06626  0.66370  0.96477  Biso   1.000  N
  C19      1.0000 0.10173  0.59327  0.26727  Biso   1.000  C
  H17      1.0000 0.09833  0.58937  0.33287  Biso   1.000  H
  C20      1.0000 0.07133  0.62189  0.93807  Biso   1.000  C
  C21      1.0000 0.11108  0.60806  0.08237  Biso   1.000  C
  C22      1.0000 0.11600  0.61567  0.97877  Biso   1.000  C
  H18      1.0000 0.11573  0.58447  0.94977  Biso   1.000  H
  H19      1.0000 0.15063  0.64777  0.96397  Biso   1.000  H
  C23      1.0000 0.09153  0.55795  0.12217  Biso   1.000  C
  H20      1.0000 0.08053  0.52787  0.08267  Biso   1.000  H
  N10      1.0000 0.12583  0.65100  0.13517  Biso   1.000  N
  C24      1.0000 0.99203  0.63257  0.86387  Biso   1.000  C
  H21      1.0000 0.96443  0.63747  0.83897  Biso   1.000  H
  N11      1.0000 0.08762  0.55050  0.21387  Biso   1.000  N
  C25      1.0000 0.03563  0.58527  0.87377  Biso   1.000  C
  H22      1.0000 0.03943  0.55557  0.85657  Biso   1.000  H
  C26      1.0000 0.12123  0.64317  0.22767  Biso   1.000  C
  H23      1.0000 0.13173  0.67307  0.26727  Biso   1.000  H
  N12      1.0000 0.99603  0.59065  0.83547  Biso   1.000  N
  C27      1.0000 0.02683  0.66897  0.92827  Biso   1.000  C
  H24      1.0000 0.02243  0.69807  0.94667  Biso   1.000  H
  Ag4      1.0000 0.93420  0.73627  0.39295  Biso   1.000  Ag
  N13      1.0000 0.00297  0.73590  0.29810  Biso   1.000  N
  C28      1.0000 0.07340  0.84180  0.60060  Biso   1.000  C
  H25      1.0000 0.07730  0.84230  0.66620  Biso   1.000  H
  C29      1.0000 0.04478  0.78278  0.27140  Biso   1.000  C
  C30      1.0000 0.05861  0.83636  0.41570  Biso   1.000  C
  C31      1.0000 0.05100  0.83367  0.31210  Biso   1.000  C
  H26      1.0000 0.08220  0.86460  0.28310  Biso   1.000  H
  H27      1.0000 0.01890  0.83620  0.29730  Biso   1.000  H
  C32      1.0000 0.10872  0.86692  0.45550  Biso   1.000  C
  H28      1.0000 0.13880  0.88600  0.41600  Biso   1.000  H
  N14      1.0000 0.01567  0.80817  0.46850  Biso   1.000  N
  C33      1.0000 0.03410  0.69280  0.19720  Biso   1.000  C
  H29      1.0000 0.02920  0.66030  0.17230  Biso   1.000  H
  N15      1.0000 0.11617  0.87046  0.54720  Biso   1.000  N
  C34      1.0000 0.08140  0.78370  0.20710  Biso   1.000  C
  H30      1.0000 0.11110  0.81720  0.18990  Biso   1.000  H
  C35      1.0000 0.02350  0.81140  0.56100  Biso   1.000  C
  H31      1.0000 0.99360  0.79200  0.60060  Biso   1.000  H
  N16      1.0000 0.07602  0.73872  0.16880  Biso   1.000  N
  C36      1.0000 0.99770  0.69120  0.26160  Biso   1.000  C
  H32      1.0000 0.96860  0.65770  0.28000  Biso   1.000  H
  Ag5      1.0000 0.60087  0.06960  0.72628  Biso   1.000  Ag
  N17      1.0000 0.66964  0.06923  0.63143  Biso   1.000  N
  C37      1.0000 0.74007  0.17513  0.93393  Biso   1.000  C
  H33      1.0000 0.74397  0.17563  0.99953  Biso   1.000  H
  C38      1.0000 0.71145  0.11611  0.60473  Biso   1.000  C
  C39      1.0000 0.72528  0.16969  0.74903  Biso   1.000  C
  C40      1.0000 0.71767  0.16700  0.64543  Biso   1.000  C
  H34      1.0000 0.74887  0.19793  0.61643  Biso   1.000  H
  H35      1.0000 0.68557  0.16953  0.63063  Biso   1.000  H
  C41      1.0000 0.77539  0.20025  0.78883  Biso   1.000  C
  H36      1.0000 0.80547  0.21933  0.74933  Biso   1.000  H
  N18      1.0000 0.68234  0.14150  0.80183  Biso   1.000  N
  C42      1.0000 0.70077  0.02613  0.53053  Biso   1.000  C
  H37      1.0000 0.69587  0.99363  0.50563  Biso   1.000  H
  N19      1.0000 0.78284  0.20379  0.88053  Biso   1.000  N
  C43      1.0000 0.74807  0.11703  0.54043  Biso   1.000  C
  H38      1.0000 0.77777  0.15053  0.52323  Biso   1.000  H
  C44      1.0000 0.69017  0.14473  0.89433  Biso   1.000  C
  H39      1.0000 0.66027  0.12533  0.93393  Biso   1.000  H
  N20      1.0000 0.74269  0.07205  0.50213  Biso   1.000  N
  C45      1.0000 0.66437  0.02453  0.59493  Biso   1.000  C
  H40      1.0000 0.63527  0.99103  0.61333  Biso   1.000  H
  Ag6      1.0000 0.26753  0.40294  0.05962  Biso   1.000  Ag
  N21      1.0000 0.33630  0.40257  0.96477  Biso   1.000  N
  C46      1.0000 0.40673  0.50847  0.26727  Biso   1.000  C
  H41      1.0000 0.41063  0.50897  0.33287  Biso   1.000  H
  C47      1.0000 0.37811  0.44945  0.93807  Biso   1.000  C
  C48      1.0000 0.39194  0.50303  0.08237  Biso   1.000  C
  C49      1.0000 0.38433  0.50034  0.97877  Biso   1.000  C
  H42      1.0000 0.41553  0.53127  0.94977  Biso   1.000  H
  H43      1.0000 0.35223  0.50287  0.96397  Biso   1.000  H
  C50      1.0000 0.44205  0.53359  0.12217  Biso   1.000  C
  H44      1.0000 0.47213  0.55267  0.08267  Biso   1.000  H
  N22      1.0000 0.34900  0.47484  0.13517  Biso   1.000  N
  C51      1.0000 0.36743  0.35947  0.86387  Biso   1.000  C
  H45      1.0000 0.36253  0.32697  0.83897  Biso   1.000  H
  N23      1.0000 0.44950  0.53713  0.21387  Biso   1.000  N
  C52      1.0000 0.41473  0.45037  0.87377  Biso   1.000  C
  H46      1.0000 0.44443  0.48387  0.85657  Biso   1.000  H
  C53      1.0000 0.35683  0.47807  0.22767  Biso   1.000  C
  H47      1.0000 0.32693  0.45867  0.26727  Biso   1.000  H
  N24      1.0000 0.40935  0.40539  0.83547  Biso   1.000  N
  C54      1.0000 0.33103  0.35787  0.92827  Biso   1.000  C
  H48      1.0000 0.30193  0.32437  0.94667  Biso   1.000  H
  Ag7      1.0000 0.26373  0.19793  0.39295  Biso   1.000  Ag
  N25      1.0000 0.26410  0.26707  0.29810  Biso   1.000  N
  C55      1.0000 0.15820  0.23160  0.60060  Biso   1.000  C
  H49      1.0000 0.15770  0.23500  0.66620  Biso   1.000  H
  C56      1.0000 0.21722  0.26200  0.27140  Biso   1.000  C
  C57      1.0000 0.16364  0.22225  0.41570  Biso   1.000  C
  C58      1.0000 0.16633  0.21733  0.31210  Biso   1.000  C
  H50      1.0000 0.13540  0.21760  0.28310  Biso   1.000  H
  H51      1.0000 0.16380  0.18270  0.29730  Biso   1.000  H
  C59      1.0000 0.13308  0.24180  0.45550  Biso   1.000  C
  H52      1.0000 0.11400  0.25280  0.41600  Biso   1.000  H
  N26      1.0000 0.19183  0.20750  0.46850  Biso   1.000  N
  C60      1.0000 0.30720  0.34130  0.19720  Biso   1.000  C
  H53      1.0000 0.33970  0.36890  0.17230  Biso   1.000  H
  N27      1.0000 0.12954  0.24571  0.54720  Biso   1.000  N
  C61      1.0000 0.21630  0.29770  0.20710  Biso   1.000  C
  H54      1.0000 0.18280  0.29390  0.18990  Biso   1.000  H
  C62      1.0000 0.18860  0.21210  0.56100  Biso   1.000  C
  H55      1.0000 0.20800  0.20160  0.60060  Biso   1.000  H
  N28      1.0000 0.26128  0.33730  0.16880  Biso   1.000  N
  C63      1.0000 0.30880  0.30650  0.26160  Biso   1.000  C
  H56      1.0000 0.34230  0.31090  0.28000  Biso   1.000  H
  Ag8      1.0000 0.93040  0.53126  0.72628  Biso   1.000  Ag
  N29      1.0000 0.93077  0.60040  0.63143  Biso   1.000  N
  C64      1.0000 0.82487  0.56493  0.93393  Biso   1.000  C
  H57      1.0000 0.82437  0.56833  0.99953  Biso   1.000  H
  C65      1.0000 0.88389  0.59533  0.60473  Biso   1.000  C
  C66      1.0000 0.83031  0.55558  0.74903  Biso   1.000  C
  C67      1.0000 0.83300  0.55066  0.64543  Biso   1.000  C
  H58      1.0000 0.80207  0.55093  0.61643  Biso   1.000  H
  H59      1.0000 0.83047  0.51603  0.63063  Biso   1.000  H
  C68      1.0000 0.79975  0.57513  0.78883  Biso   1.000  C
  H60      1.0000 0.78067  0.58613  0.74933  Biso   1.000  H
  N30      1.0000 0.85850  0.54083  0.80183  Biso   1.000  N
  C69      1.0000 0.97387  0.67463  0.53053  Biso   1.000  C
  H61      1.0000 0.00637  0.70223  0.50563  Biso   1.000  H
  N31      1.0000 0.79621  0.57904  0.88053  Biso   1.000  N
  C70      1.0000 0.88297  0.63103  0.54043  Biso   1.000  C
  H62      1.0000 0.84947  0.62723  0.52323  Biso   1.000  H
  C71      1.0000 0.85527  0.54543  0.89433  Biso   1.000  C
  H63      1.0000 0.87467  0.53493  0.93393  Biso   1.000  H
  N32      1.0000 0.92795  0.67063  0.50213  Biso   1.000  N
  C72      1.0000 0.97547  0.63983  0.59493  Biso   1.000  C
  H64      1.0000 0.00897  0.64423  0.61333  Biso   1.000  H
  Ag9      1.0000 0.59706  0.86460  0.05962  Biso   1.000  Ag
  N33      1.0000 0.59743  0.93374  0.96477  Biso   1.000  N
  C73      1.0000 0.49153  0.89827  0.26727  Biso   1.000  C
  H65      1.0000 0.49103  0.90167  0.33287  Biso   1.000  H
  C74      1.0000 0.55055  0.92867  0.93807  Biso   1.000  C
  C75      1.0000 0.49697  0.88892  0.08237  Biso   1.000  C
  C76      1.0000 0.49966  0.88400  0.97877  Biso   1.000  C
  H66      1.0000 0.46873  0.88427  0.94977  Biso   1.000  H
  H67      1.0000 0.49713  0.84937  0.96397  Biso   1.000  H
  C77      1.0000 0.46641  0.90847  0.12217  Biso   1.000  C
  H68      1.0000 0.44733  0.91947  0.08267  Biso   1.000  H
  N34      1.0000 0.52516  0.87417  0.13517  Biso   1.000  N
  C78      1.0000 0.64053  0.00797  0.86387  Biso   1.000  C
  H69      1.0000 0.67303  0.03557  0.83897  Biso   1.000  H
  N35      1.0000 0.46287  0.91238  0.21387  Biso   1.000  N
  C79      1.0000 0.54963  0.96437  0.87377  Biso   1.000  C
  H70      1.0000 0.51613  0.96057  0.85657  Biso   1.000  H
  C80      1.0000 0.52193  0.87877  0.22767  Biso   1.000  C
  H71      1.0000 0.54133  0.86827  0.26727  Biso   1.000  H
  N36      1.0000 0.59461  0.00397  0.83547  Biso   1.000  N
  C81      1.0000 0.64213  0.97317  0.92827  Biso   1.000  C
  H72      1.0000 0.67563  0.97757  0.94667  Biso   1.000  H
  Ag10     1.0000 0.19793  0.93420  0.60705  Biso   1.000  Ag
  N37      1.0000 0.26707  0.00297  0.70190  Biso   1.000  N
  C82      1.0000 0.23160  0.07340  0.39940  Biso   1.000  C
  H73      1.0000 0.23500  0.07730  0.33380  Biso   1.000  H
  C83      1.0000 0.26200  0.04478  0.72860  Biso   1.000  C
  C84      1.0000 0.22225  0.05861  0.58430  Biso   1.000  C
  C85      1.0000 0.21733  0.05100  0.68790  Biso   1.000  C
  H74      1.0000 0.21760  0.08220  0.71690  Biso   1.000  H
  H75      1.0000 0.18270  0.01890  0.70270  Biso   1.000  H
  C86      1.0000 0.24180  0.10872  0.54450  Biso   1.000  C
  H76      1.0000 0.25280  0.13880  0.58400  Biso   1.000  H
  N38      1.0000 0.20750  0.01567  0.53150  Biso   1.000  N
  C87      1.0000 0.34130  0.03410  0.80280  Biso   1.000  C
  H77      1.0000 0.36890  0.02920  0.82770  Biso   1.000  H
  N39      1.0000 0.24571  0.11617  0.45280  Biso   1.000  N
  C88      1.0000 0.29770  0.08140  0.79290  Biso   1.000  C
  H78      1.0000 0.29390  0.11110  0.81010  Biso   1.000  H
  C89      1.0000 0.21210  0.02350  0.43900  Biso   1.000  C
  H79      1.0000 0.20160  0.99360  0.39940  Biso   1.000  H
  N40      1.0000 0.33730  0.07602  0.83120  Biso   1.000  N
  C90      1.0000 0.30650  0.99770  0.73840  Biso   1.000  C
  H80      1.0000 0.31090  0.96860  0.72000  Biso   1.000  H
  Ag11     1.0000 0.86460  0.26753  0.94038  Biso   1.000  Ag
  N41      1.0000 0.93374  0.33630  0.03523  Biso   1.000  N
  C91      1.0000 0.89827  0.40673  0.73273  Biso   1.000  C
  H81      1.0000 0.90167  0.41063  0.66713  Biso   1.000  H
  C92      1.0000 0.92867  0.37811  0.06193  Biso   1.000  C
  C93      1.0000 0.88892  0.39194  0.91763  Biso   1.000  C
  C94      1.0000 0.88400  0.38433  0.02123  Biso   1.000  C
  H82      1.0000 0.88427  0.41553  0.05023  Biso   1.000  H
  H83      1.0000 0.84937  0.35223  0.03603  Biso   1.000  H
  C95      1.0000 0.90847  0.44205  0.87783  Biso   1.000  C
  H84      1.0000 0.91947  0.47213  0.91733  Biso   1.000  H
  N42      1.0000 0.87417  0.34900  0.86483  Biso   1.000  N
  C96      1.0000 0.00797  0.36743  0.13613  Biso   1.000  C
  H85      1.0000 0.03557  0.36253  0.16103  Biso   1.000  H
  N43      1.0000 0.91238  0.44950  0.78613  Biso   1.000  N
  C97      1.0000 0.96437  0.41473  0.12623  Biso   1.000  C
  H86      1.0000 0.96057  0.44443  0.14343  Biso   1.000  H
  C98      1.0000 0.87877  0.35683  0.77233  Biso   1.000  C
  H87      1.0000 0.86827  0.32693  0.73273  Biso   1.000  H
  N44      1.0000 0.00397  0.40935  0.16453  Biso   1.000  N
  C99      1.0000 0.97317  0.33103  0.07173  Biso   1.000  C
  H88      1.0000 0.97757  0.30193  0.05333  Biso   1.000  H
  Ag12     1.0000 0.53126  0.60087  0.27372  Biso   1.000  Ag
  N45      1.0000 0.60040  0.66964  0.36857  Biso   1.000  N
  C100     1.0000 0.56493  0.74007  0.06607  Biso   1.000  C
  H89      1.0000 0.56833  0.74397  0.00047  Biso   1.000  H
  C101     1.0000 0.59533  0.71145  0.39527  Biso   1.000  C
  C102     1.0000 0.55558  0.72528  0.25097  Biso   1.000  C
  C103     1.0000 0.55066  0.71767  0.35457  Biso   1.000  C
  H90      1.0000 0.55093  0.74887  0.38357  Biso   1.000  H
  H91      1.0000 0.51603  0.68557  0.36937  Biso   1.000  H
  C104     1.0000 0.57513  0.77539  0.21117  Biso   1.000  C
  H92      1.0000 0.58613  0.80547  0.25067  Biso   1.000  H
  N46      1.0000 0.54083  0.68234  0.19817  Biso   1.000  N
  C105     1.0000 0.67463  0.70077  0.46947  Biso   1.000  C
  H93      1.0000 0.70223  0.69587  0.49437  Biso   1.000  H
  N47      1.0000 0.57904  0.78284  0.11947  Biso   1.000  N
  C106     1.0000 0.63103  0.74807  0.45957  Biso   1.000  C
  H94      1.0000 0.62723  0.77777  0.47677  Biso   1.000  H
  C107     1.0000 0.54543  0.69017  0.10567  Biso   1.000  C
  H95      1.0000 0.53493  0.66027  0.06607  Biso   1.000  H
  N48      1.0000 0.67063  0.74269  0.49787  Biso   1.000  N
  C108     1.0000 0.63983  0.66437  0.40507  Biso   1.000  C
  H96      1.0000 0.64423  0.63527  0.38667  Biso   1.000  H
  Ag13     1.0000 0.06580  0.26373  0.60705  Biso   1.000  Ag
  N49      1.0000 0.99703  0.26410  0.70190  Biso   1.000  N
  C109     1.0000 0.92660  0.15820  0.39940  Biso   1.000  C
  H97      1.0000 0.92270  0.15770  0.33380  Biso   1.000  H
  C110     1.0000 0.95522  0.21722  0.72860  Biso   1.000  C
  C111     1.0000 0.94139  0.16364  0.58430  Biso   1.000  C
  C112     1.0000 0.94900  0.16633  0.68790  Biso   1.000  C
  H98      1.0000 0.91780  0.13540  0.71690  Biso   1.000  H
  H99      1.0000 0.98110  0.16380  0.70270  Biso   1.000  H
  C113     1.0000 0.89128  0.13308  0.54450  Biso   1.000  C
  H100     1.0000 0.86120  0.11400  0.58400  Biso   1.000  H
  N50      1.0000 0.98433  0.19183  0.53150  Biso   1.000  N
  C114     1.0000 0.96590  0.30720  0.80280  Biso   1.000  C
  H101     1.0000 0.97080  0.33970  0.82770  Biso   1.000  H
  N51      1.0000 0.88383  0.12954  0.45280  Biso   1.000  N
  C115     1.0000 0.91860  0.21630  0.79290  Biso   1.000  C
  H102     1.0000 0.88890  0.18280  0.81010  Biso   1.000  H
  C116     1.0000 0.97650  0.18860  0.43900  Biso   1.000  C
  H103     1.0000 0.00640  0.20800  0.39940  Biso   1.000  H
  N52      1.0000 0.92398  0.26128  0.83120  Biso   1.000  N
  C117     1.0000 0.00230  0.30880  0.73840  Biso   1.000  C
  H104     1.0000 0.03140  0.34230  0.72000  Biso   1.000  H
  Ag14     1.0000 0.73247  0.59706  0.94038  Biso   1.000  Ag
  N53      1.0000 0.66370  0.59743  0.03523  Biso   1.000  N
  C118     1.0000 0.59327  0.49153  0.73273  Biso   1.000  C
  H105     1.0000 0.58937  0.49103  0.66713  Biso   1.000  H
  C119     1.0000 0.62189  0.55055  0.06193  Biso   1.000  C
  C120     1.0000 0.60806  0.49697  0.91763  Biso   1.000  C
  C121     1.0000 0.61567  0.49966  0.02123  Biso   1.000  C
  H106     1.0000 0.58447  0.46873  0.05023  Biso   1.000  H
  H107     1.0000 0.64777  0.49713  0.03603  Biso   1.000  H
  C122     1.0000 0.55795  0.46641  0.87783  Biso   1.000  C
  H108     1.0000 0.52787  0.44733  0.91733  Biso   1.000  H
  N54      1.0000 0.65100  0.52516  0.86483  Biso   1.000  N
  C123     1.0000 0.63257  0.64053  0.13613  Biso   1.000  C
  H109     1.0000 0.63747  0.67303  0.16103  Biso   1.000  H
  N55      1.0000 0.55050  0.46287  0.78613  Biso   1.000  N
  C124     1.0000 0.58527  0.54963  0.12623  Biso   1.000  C
  H110     1.0000 0.55557  0.51613  0.14343  Biso   1.000  H
  C125     1.0000 0.64317  0.52193  0.77233  Biso   1.000  C
  H111     1.0000 0.67307  0.54133  0.73273  Biso   1.000  H
  N56      1.0000 0.59065  0.59461  0.16453  Biso   1.000  N
  C126     1.0000 0.66897  0.64213  0.07173  Biso   1.000  C
  H112     1.0000 0.69807  0.67563  0.05333  Biso   1.000  H
  Ag15     1.0000 0.39913  0.93040  0.27372  Biso   1.000  Ag
  N57      1.0000 0.33036  0.93077  0.36857  Biso   1.000  N
  C127     1.0000 0.25993  0.82487  0.06607  Biso   1.000  C
  H113     1.0000 0.25603  0.82437  0.00047  Biso   1.000  H
  C128     1.0000 0.28855  0.88389  0.39527  Biso   1.000  C
  C129     1.0000 0.27472  0.83031  0.25097  Biso   1.000  C
  C130     1.0000 0.28233  0.83300  0.35457  Biso   1.000  C
  H114     1.0000 0.25113  0.80207  0.38357  Biso   1.000  H
  H115     1.0000 0.31443  0.83047  0.36937  Biso   1.000  H
  C131     1.0000 0.22461  0.79975  0.21117  Biso   1.000  C
  H116     1.0000 0.19453  0.78067  0.25067  Biso   1.000  H
  N58      1.0000 0.31766  0.85850  0.19817  Biso   1.000  N
  C132     1.0000 0.29923  0.97387  0.46947  Biso   1.000  C
  H117     1.0000 0.30413  0.00637  0.49437  Biso   1.000  H
  N59      1.0000 0.21716  0.79621  0.11947  Biso   1.000  N
  C133     1.0000 0.25193  0.88297  0.45957  Biso   1.000  C
  H118     1.0000 0.22223  0.84947  0.47677  Biso   1.000  H
  C134     1.0000 0.30983  0.85527  0.10567  Biso   1.000  C
  H119     1.0000 0.33973  0.87467  0.06607  Biso   1.000  H
  N60      1.0000 0.25731  0.92795  0.49787  Biso   1.000  N
  C135     1.0000 0.33563  0.97547  0.40507  Biso   1.000  C
  H120     1.0000 0.36473  0.00897  0.38667  Biso   1.000  H
  Ag16     1.0000 0.73627  0.80207  0.60705  Biso   1.000  Ag
  N61      1.0000 0.73590  0.73293  0.70190  Biso   1.000  N
  C136     1.0000 0.84180  0.76840  0.39940  Biso   1.000  C
  H121     1.0000 0.84230  0.76500  0.33380  Biso   1.000  H
  C137     1.0000 0.78278  0.73800  0.72860  Biso   1.000  C
  C138     1.0000 0.83636  0.77775  0.58430  Biso   1.000  C
  C139     1.0000 0.83367  0.78267  0.68790  Biso   1.000  C
  H122     1.0000 0.86460  0.78240  0.71690  Biso   1.000  H
  H123     1.0000 0.83620  0.81730  0.70270  Biso   1.000  H
  C140     1.0000 0.86692  0.75820  0.54450  Biso   1.000  C
  H124     1.0000 0.88600  0.74720  0.58400  Biso   1.000  H
  N62      1.0000 0.80817  0.79250  0.53150  Biso   1.000  N
  C141     1.0000 0.69280  0.65870  0.80280  Biso   1.000  C
  H125     1.0000 0.66030  0.63110  0.82770  Biso   1.000  H
  N63      1.0000 0.87046  0.75429  0.45280  Biso   1.000  N
  C142     1.0000 0.78370  0.70230  0.79290  Biso   1.000  C
  H126     1.0000 0.81720  0.70610  0.81010  Biso   1.000  H
  C143     1.0000 0.81140  0.78790  0.43900  Biso   1.000  C
  H127     1.0000 0.79200  0.79840  0.39940  Biso   1.000  H
  N64      1.0000 0.73872  0.66270  0.83120  Biso   1.000  N
  C144     1.0000 0.69120  0.69350  0.73840  Biso   1.000  C
  H128     1.0000 0.65770  0.68910  0.72000  Biso   1.000  H
  Ag17     1.0000 0.40294  0.13540  0.94038  Biso   1.000  Ag
  N65      1.0000 0.40257  0.06626  0.03523  Biso   1.000  N
  C145     1.0000 0.50847  0.10173  0.73273  Biso   1.000  C
  H129     1.0000 0.50897  0.09833  0.66713  Biso   1.000  H
  C146     1.0000 0.44945  0.07133  0.06193  Biso   1.000  C
  C147     1.0000 0.50303  0.11108  0.91763  Biso   1.000  C
  C148     1.0000 0.50034  0.11600  0.02123  Biso   1.000  C
  H130     1.0000 0.53127  0.11573  0.05023  Biso   1.000  H
  H131     1.0000 0.50287  0.15063  0.03603  Biso   1.000  H
  C149     1.0000 0.53359  0.09153  0.87783  Biso   1.000  C
  H132     1.0000 0.55267  0.08053  0.91733  Biso   1.000  H
  N66      1.0000 0.47484  0.12583  0.86483  Biso   1.000  N
  C150     1.0000 0.35947  0.99203  0.13613  Biso   1.000  C
  H133     1.0000 0.32697  0.96443  0.16103  Biso   1.000  H
  N67      1.0000 0.53713  0.08762  0.78613  Biso   1.000  N
  C151     1.0000 0.45037  0.03563  0.12623  Biso   1.000  C
  H134     1.0000 0.48387  0.03943  0.14343  Biso   1.000  H
  C152     1.0000 0.47807  0.12123  0.77233  Biso   1.000  C
  H135     1.0000 0.45867  0.13173  0.73273  Biso   1.000  H
  N68      1.0000 0.40539  0.99603  0.16453  Biso   1.000  N
  C153     1.0000 0.35787  0.02683  0.07173  Biso   1.000  C
  H136     1.0000 0.32437  0.02243  0.05333  Biso   1.000  H
  Ag18     1.0000 0.06960  0.46874  0.27372  Biso   1.000  Ag
  N69      1.0000 0.06923  0.39960  0.36857  Biso   1.000  N
  C154     1.0000 0.17513  0.43507  0.06607  Biso   1.000  C
  H137     1.0000 0.17563  0.43167  0.00047  Biso   1.000  H
  C155     1.0000 0.11611  0.40467  0.39527  Biso   1.000  C
  C156     1.0000 0.16969  0.44442  0.25097  Biso   1.000  C
  C157     1.0000 0.16700  0.44934  0.35457  Biso   1.000  C
  H138     1.0000 0.19793  0.44907  0.38357  Biso   1.000  H
  H139     1.0000 0.16953  0.48397  0.36937  Biso   1.000  H
  C158     1.0000 0.20025  0.42487  0.21117  Biso   1.000  C
  H140     1.0000 0.21933  0.41387  0.25067  Biso   1.000  H
  N70      1.0000 0.14150  0.45917  0.19817  Biso   1.000  N
  C159     1.0000 0.02613  0.32537  0.46947  Biso   1.000  C
  H141     1.0000 0.99363  0.29777  0.49437  Biso   1.000  H
  N71      1.0000 0.20379  0.42096  0.11947  Biso   1.000  N
  C160     1.0000 0.11703  0.36897  0.45957  Biso   1.000  C
  H142     1.0000 0.15053  0.37277  0.47677  Biso   1.000  H
  C161     1.0000 0.14473  0.45457  0.10567  Biso   1.000  C
  H143     1.0000 0.12533  0.46507  0.06607  Biso   1.000  H
  N72      1.0000 0.07205  0.32937  0.49787  Biso   1.000  N
  C162     1.0000 0.02453  0.36017  0.40507  Biso   1.000  C
  H144     1.0000 0.99103  0.35577  0.38667  Biso   1.000  H
