data_image0
_cell_length_a       28.123
_cell_length_b       28.123
_cell_length_c       14.436
_cell_angle_alpha    90
_cell_angle_beta     90
_cell_angle_gamma    120

_symmetry_space_group_name_H-M    "P 1"
_symmetry_int_tables_number       1

loop_
  _symmetry_equiv_pos_as_xyz
  'x, y, z'

loop_
  _atom_site_label
  _atom_site_occupancy
  _atom_site_fract_x
  _atom_site_fract_y
  _atom_site_fract_z
  _atom_site_thermal_displace_type
  _atom_site_B_iso_or_equiv
  _atom_site_type_symbol
  Ag1      1.0000 0.79960  0.07384  0.39670  Biso   1.000  Ag
  N1       1.0000 0.74320  0.88080  0.54840  Biso   1.000  N
  C1       1.0000 0.75790  0.89160  0.45860  Biso   1.000  C
  H1       1.0000 0.75700  0.86370  0.42020  Biso   1.000  H
  N2       1.0000 0.75120  0.01400  0.28080  Biso   1.000  N
  C2       1.0000 0.74510  0.92000  0.59620  Biso   1.000  C
  H2       1.0000 0.73660  0.91350  0.66030  Biso   1.000  H
  N3       1.0000 0.67690  0.93490  0.15790  Biso   1.000  N
  N4       1.0000 0.77570  0.98400  0.47240  Biso   1.000  N
  C3       1.0000 0.67720  0.98210  0.16830  Biso   1.000  C
  H3       1.0000 0.65220  0.98850  0.13380  Biso   1.000  H
  C4       1.0000 0.74900  0.96630  0.26530  Biso   1.000  C
  C5       1.0000 0.71480  0.92700  0.20520  Biso   1.000  C
  H4       1.0000 0.71690  0.89470  0.19600  Biso   1.000  H
  C6       1.0000 0.77520  0.94610  0.41990  Biso   1.000  C
  C7       1.0000 0.79240  0.95790  0.32410  Biso   1.000  C
  H5       1.0000 0.79560  0.92710  0.29770  Biso   1.000  H
  H6       1.0000 0.82890  0.99150  0.32060  Biso   1.000  H
  C8       1.0000 0.75860  0.97100  0.56170  Biso   1.000  C
  H7       1.0000 0.75590  0.99700  0.60020  Biso   1.000  H
  C9       1.0000 0.71240  0.02080  0.22680  Biso   1.000  C
  H8       1.0000 0.71150  0.05400  0.23250  Biso   1.000  H
  Ag2      1.0000 0.46627  0.40717  0.73003  Biso   1.000  Ag
  N5       1.0000 0.40987  0.21413  0.88173  Biso   1.000  N
  C10      1.0000 0.42457  0.22493  0.79193  Biso   1.000  C
  H9       1.0000 0.42367  0.19703  0.75353  Biso   1.000  H
  N6       1.0000 0.41787  0.34733  0.61413  Biso   1.000  N
  C11      1.0000 0.41177  0.25333  0.92953  Biso   1.000  C
  H10      1.0000 0.40327  0.24683  0.99363  Biso   1.000  H
  N7       1.0000 0.34357  0.26823  0.49123  Biso   1.000  N
  N8       1.0000 0.44237  0.31733  0.80573  Biso   1.000  N
  C12      1.0000 0.34387  0.31543  0.50163  Biso   1.000  C
  H11      1.0000 0.31887  0.32183  0.46713  Biso   1.000  H
  C13      1.0000 0.41567  0.29963  0.59863  Biso   1.000  C
  C14      1.0000 0.38147  0.26033  0.53853  Biso   1.000  C
  H12      1.0000 0.38357  0.22803  0.52933  Biso   1.000  H
  C15      1.0000 0.44187  0.27943  0.75323  Biso   1.000  C
  C16      1.0000 0.45907  0.29123  0.65743  Biso   1.000  C
  H13      1.0000 0.46227  0.26043  0.63103  Biso   1.000  H
  H14      1.0000 0.49557  0.32483  0.65393  Biso   1.000  H
  C17      1.0000 0.42527  0.30433  0.89503  Biso   1.000  C
  H15      1.0000 0.42257  0.33033  0.93353  Biso   1.000  H
  C18      1.0000 0.37907  0.35413  0.56013  Biso   1.000  C
  H16      1.0000 0.37817  0.38733  0.56583  Biso   1.000  H
  Ag3      1.0000 0.13293  0.74051  0.06337  Biso   1.000  Ag
  N9       1.0000 0.07653  0.54747  0.21507  Biso   1.000  N
  C19      1.0000 0.09123  0.55827  0.12527  Biso   1.000  C
  H17      1.0000 0.09033  0.53037  0.08687  Biso   1.000  H
  N10      1.0000 0.08453  0.68067  0.94747  Biso   1.000  N
  C20      1.0000 0.07843  0.58667  0.26287  Biso   1.000  C
  H18      1.0000 0.06993  0.58017  0.32697  Biso   1.000  H
  N11      1.0000 0.01023  0.60157  0.82457  Biso   1.000  N
  N12      1.0000 0.10903  0.65067  0.13907  Biso   1.000  N
  C21      1.0000 0.01053  0.64877  0.83497  Biso   1.000  C
  H19      1.0000 0.98553  0.65517  0.80047  Biso   1.000  H
  C22      1.0000 0.08233  0.63297  0.93197  Biso   1.000  C
  C23      1.0000 0.04813  0.59367  0.87187  Biso   1.000  C
  H20      1.0000 0.05023  0.56137  0.86267  Biso   1.000  H
  C24      1.0000 0.10853  0.61277  0.08657  Biso   1.000  C
  C25      1.0000 0.12573  0.62457  0.99077  Biso   1.000  C
  H21      1.0000 0.12893  0.59377  0.96437  Biso   1.000  H
  H22      1.0000 0.16223  0.65817  0.98727  Biso   1.000  H
  C26      1.0000 0.09193  0.63767  0.22837  Biso   1.000  C
  H23      1.0000 0.08923  0.66367  0.26687  Biso   1.000  H
  C27      1.0000 0.04573  0.68747  0.89347  Biso   1.000  C
  H24      1.0000 0.04483  0.72067  0.89917  Biso   1.000  H
  Ag4      1.0000 0.92616  0.72576  0.39670  Biso   1.000  Ag
  N13      1.0000 0.11920  0.86240  0.54840  Biso   1.000  N
  C28      1.0000 0.10840  0.86630  0.45860  Biso   1.000  C
  H25      1.0000 0.13630  0.89330  0.42020  Biso   1.000  H
  N14      1.0000 0.98600  0.73720  0.28080  Biso   1.000  N
  C29      1.0000 0.08000  0.82510  0.59620  Biso   1.000  C
  H26      1.0000 0.08650  0.82310  0.66030  Biso   1.000  H
  N15      1.0000 0.06510  0.74200  0.15790  Biso   1.000  N
  N16      1.0000 0.01600  0.79170  0.47240  Biso   1.000  N
  C30      1.0000 0.01790  0.69510  0.16830  Biso   1.000  C
  H27      1.0000 0.01150  0.66370  0.13380  Biso   1.000  H
  C31      1.0000 0.03370  0.78270  0.26530  Biso   1.000  C
  C32      1.0000 0.07300  0.78780  0.20520  Biso   1.000  C
  H28      1.0000 0.10530  0.82220  0.19600  Biso   1.000  H
  C33      1.0000 0.05390  0.82910  0.41990  Biso   1.000  C
  C34      1.0000 0.04210  0.83450  0.32410  Biso   1.000  C
  H29      1.0000 0.07290  0.86850  0.29770  Biso   1.000  H
  H30      1.0000 0.00850  0.83740  0.32060  Biso   1.000  H
  C35      1.0000 0.02900  0.78760  0.56170  Biso   1.000  C
  H31      1.0000 0.00300  0.75890  0.60020  Biso   1.000  H
  C36      1.0000 0.97920  0.69160  0.22680  Biso   1.000  C
  H32      1.0000 0.94600  0.65750  0.23250  Biso   1.000  H
  Ag5      1.0000 0.59283  0.05909  0.73003  Biso   1.000  Ag
  N17      1.0000 0.78587  0.19573  0.88173  Biso   1.000  N
  C37      1.0000 0.77507  0.19963  0.79193  Biso   1.000  C
  H33      1.0000 0.80297  0.22663  0.75353  Biso   1.000  H
  N18      1.0000 0.65267  0.07053  0.61413  Biso   1.000  N
  C38      1.0000 0.74667  0.15843  0.92953  Biso   1.000  C
  H34      1.0000 0.75317  0.15643  0.99363  Biso   1.000  H
  N19      1.0000 0.73177  0.07533  0.49123  Biso   1.000  N
  N20      1.0000 0.68267  0.12503  0.80573  Biso   1.000  N
  C39      1.0000 0.68457  0.02843  0.50163  Biso   1.000  C
  H35      1.0000 0.67817  0.99703  0.46713  Biso   1.000  H
  C40      1.0000 0.70037  0.11603  0.59863  Biso   1.000  C
  C41      1.0000 0.73967  0.12113  0.53853  Biso   1.000  C
  H36      1.0000 0.77197  0.15553  0.52933  Biso   1.000  H
  C42      1.0000 0.72057  0.16243  0.75323  Biso   1.000  C
  C43      1.0000 0.70877  0.16783  0.65743  Biso   1.000  C
  H37      1.0000 0.73957  0.20183  0.63103  Biso   1.000  H
  H38      1.0000 0.67517  0.17073  0.65393  Biso   1.000  H
  C44      1.0000 0.69567  0.12093  0.89503  Biso   1.000  C
  H39      1.0000 0.66967  0.09223  0.93353  Biso   1.000  H
  C45      1.0000 0.64587  0.02493  0.56013  Biso   1.000  C
  H40      1.0000 0.61267  0.99083  0.56583  Biso   1.000  H
  Ag6      1.0000 0.25949  0.39243  0.06337  Biso   1.000  Ag
  N21      1.0000 0.45253  0.52907  0.21507  Biso   1.000  N
  C46      1.0000 0.44173  0.53297  0.12527  Biso   1.000  C
  H41      1.0000 0.46963  0.55997  0.08687  Biso   1.000  H
  N22      1.0000 0.31933  0.40387  0.94747  Biso   1.000  N
  C47      1.0000 0.41333  0.49177  0.26287  Biso   1.000  C
  H42      1.0000 0.41983  0.48977  0.32697  Biso   1.000  H
  N23      1.0000 0.39843  0.40867  0.82457  Biso   1.000  N
  N24      1.0000 0.34933  0.45837  0.13907  Biso   1.000  N
  C48      1.0000 0.35123  0.36177  0.83497  Biso   1.000  C
  H43      1.0000 0.34483  0.33037  0.80047  Biso   1.000  H
  C49      1.0000 0.36703  0.44937  0.93197  Biso   1.000  C
  C50      1.0000 0.40633  0.45447  0.87187  Biso   1.000  C
  H44      1.0000 0.43863  0.48887  0.86267  Biso   1.000  H
  C51      1.0000 0.38723  0.49577  0.08657  Biso   1.000  C
  C52      1.0000 0.37543  0.50117  0.99077  Biso   1.000  C
  H45      1.0000 0.40623  0.53517  0.96437  Biso   1.000  H
  H46      1.0000 0.34183  0.50407  0.98727  Biso   1.000  H
  C53      1.0000 0.36233  0.45427  0.22837  Biso   1.000  C
  H47      1.0000 0.33633  0.42557  0.26687  Biso   1.000  H
  C54      1.0000 0.31253  0.35827  0.89347  Biso   1.000  C
  H48      1.0000 0.27933  0.32417  0.89917  Biso   1.000  H
  Ag7      1.0000 0.27424  0.20040  0.39670  Biso   1.000  Ag
  N25      1.0000 0.13760  0.25680  0.54840  Biso   1.000  N
  C55      1.0000 0.13370  0.24210  0.45860  Biso   1.000  C
  H49      1.0000 0.10670  0.24300  0.42020  Biso   1.000  H
  N26      1.0000 0.26280  0.24880  0.28080  Biso   1.000  N
  C56      1.0000 0.17490  0.25490  0.59620  Biso   1.000  C
  H50      1.0000 0.17690  0.26340  0.66030  Biso   1.000  H
  N27      1.0000 0.25800  0.32310  0.15790  Biso   1.000  N
  N28      1.0000 0.20830  0.22430  0.47240  Biso   1.000  N
  C57      1.0000 0.30490  0.32280  0.16830  Biso   1.000  C
  H51      1.0000 0.33630  0.34780  0.13380  Biso   1.000  H
  C58      1.0000 0.21730  0.25100  0.26530  Biso   1.000  C
  C59      1.0000 0.21220  0.28520  0.20520  Biso   1.000  C
  H52      1.0000 0.17780  0.28310  0.19600  Biso   1.000  H
  C60      1.0000 0.17090  0.22480  0.41990  Biso   1.000  C
  C61      1.0000 0.16550  0.20760  0.32410  Biso   1.000  C
  H53      1.0000 0.13150  0.20440  0.29770  Biso   1.000  H
  H54      1.0000 0.16260  0.17110  0.32060  Biso   1.000  H
  C62      1.0000 0.21240  0.24140  0.56170  Biso   1.000  C
  H55      1.0000 0.24110  0.24410  0.60020  Biso   1.000  H
  C63      1.0000 0.30840  0.28760  0.22680  Biso   1.000  C
  H56      1.0000 0.34250  0.28850  0.23250  Biso   1.000  H
  Ag8      1.0000 0.94091  0.53373  0.73003  Biso   1.000  Ag
  N29      1.0000 0.80427  0.59013  0.88173  Biso   1.000  N
  C64      1.0000 0.80037  0.57543  0.79193  Biso   1.000  C
  H57      1.0000 0.77337  0.57633  0.75353  Biso   1.000  H
  N30      1.0000 0.92947  0.58213  0.61413  Biso   1.000  N
  C65      1.0000 0.84157  0.58823  0.92953  Biso   1.000  C
  H58      1.0000 0.84357  0.59673  0.99363  Biso   1.000  H
  N31      1.0000 0.92467  0.65643  0.49123  Biso   1.000  N
  N32      1.0000 0.87497  0.55763  0.80573  Biso   1.000  N
  C66      1.0000 0.97157  0.65613  0.50163  Biso   1.000  C
  H59      1.0000 0.00297  0.68113  0.46713  Biso   1.000  H
  C67      1.0000 0.88397  0.58433  0.59863  Biso   1.000  C
  C68      1.0000 0.87887  0.61853  0.53853  Biso   1.000  C
  H60      1.0000 0.84447  0.61643  0.52933  Biso   1.000  H
  C69      1.0000 0.83757  0.55813  0.75323  Biso   1.000  C
  C70      1.0000 0.83217  0.54093  0.65743  Biso   1.000  C
  H61      1.0000 0.79817  0.53773  0.63103  Biso   1.000  H
  H62      1.0000 0.82927  0.50443  0.65393  Biso   1.000  H
  C71      1.0000 0.87907  0.57473  0.89503  Biso   1.000  C
  H63      1.0000 0.90777  0.57743  0.93353  Biso   1.000  H
  C72      1.0000 0.97507  0.62093  0.56013  Biso   1.000  C
  H64      1.0000 0.00917  0.62183  0.56583  Biso   1.000  H
  Ag9      1.0000 0.60757  0.86707  0.06337  Biso   1.000  Ag
  N33      1.0000 0.47093  0.92347  0.21507  Biso   1.000  N
  C73      1.0000 0.46703  0.90877  0.12527  Biso   1.000  C
  H65      1.0000 0.44003  0.90967  0.08687  Biso   1.000  H
  N34      1.0000 0.59613  0.91547  0.94747  Biso   1.000  N
  C74      1.0000 0.50823  0.92157  0.26287  Biso   1.000  C
  H66      1.0000 0.51023  0.93007  0.32697  Biso   1.000  H
  N35      1.0000 0.59133  0.98977  0.82457  Biso   1.000  N
  N36      1.0000 0.54163  0.89097  0.13907  Biso   1.000  N
  C75      1.0000 0.63823  0.98947  0.83497  Biso   1.000  C
  H67      1.0000 0.66963  0.01447  0.80047  Biso   1.000  H
  C76      1.0000 0.55063  0.91767  0.93197  Biso   1.000  C
  C77      1.0000 0.54553  0.95187  0.87187  Biso   1.000  C
  H68      1.0000 0.51113  0.94977  0.86267  Biso   1.000  H
  C78      1.0000 0.50423  0.89147  0.08657  Biso   1.000  C
  C79      1.0000 0.49883  0.87427  0.99077  Biso   1.000  C
  H69      1.0000 0.46483  0.87107  0.96437  Biso   1.000  H
  H70      1.0000 0.49593  0.83777  0.98727  Biso   1.000  H
  C80      1.0000 0.54573  0.90807  0.22837  Biso   1.000  C
  H71      1.0000 0.57443  0.91077  0.26687  Biso   1.000  H
  C81      1.0000 0.64173  0.95427  0.89347  Biso   1.000  C
  H72      1.0000 0.67583  0.95517  0.89917  Biso   1.000  H
  Ag10     1.0000 0.20040  0.92616  0.60330  Biso   1.000  Ag
  N37      1.0000 0.25680  0.11920  0.45160  Biso   1.000  N
  C82      1.0000 0.24210  0.10840  0.54140  Biso   1.000  C
  H73      1.0000 0.24300  0.13630  0.57980  Biso   1.000  H
  N38      1.0000 0.24880  0.98600  0.71920  Biso   1.000  N
  C83      1.0000 0.25490  0.08000  0.40380  Biso   1.000  C
  H74      1.0000 0.26340  0.08650  0.33970  Biso   1.000  H
  N39      1.0000 0.32310  0.06510  0.84210  Biso   1.000  N
  N40      1.0000 0.22430  0.01600  0.52760  Biso   1.000  N
  C84      1.0000 0.32280  0.01790  0.83170  Biso   1.000  C
  H75      1.0000 0.34780  0.01150  0.86620  Biso   1.000  H
  C85      1.0000 0.25100  0.03370  0.73470  Biso   1.000  C
  C86      1.0000 0.28520  0.07300  0.79480  Biso   1.000  C
  H76      1.0000 0.28310  0.10530  0.80400  Biso   1.000  H
  C87      1.0000 0.22480  0.05390  0.58010  Biso   1.000  C
  C88      1.0000 0.20760  0.04210  0.67590  Biso   1.000  C
  H77      1.0000 0.20440  0.07290  0.70230  Biso   1.000  H
  H78      1.0000 0.17110  0.00850  0.67940  Biso   1.000  H
  C89      1.0000 0.24140  0.02900  0.43830  Biso   1.000  C
  H79      1.0000 0.24410  0.00300  0.39980  Biso   1.000  H
  C90      1.0000 0.28760  0.97920  0.77320  Biso   1.000  C
  H80      1.0000 0.28850  0.94600  0.76750  Biso   1.000  H
  Ag11     1.0000 0.86707  0.25949  0.93663  Biso   1.000  Ag
  N41      1.0000 0.92347  0.45253  0.78493  Biso   1.000  N
  C91      1.0000 0.90877  0.44173  0.87473  Biso   1.000  C
  H81      1.0000 0.90967  0.46963  0.91313  Biso   1.000  H
  N42      1.0000 0.91547  0.31933  0.05253  Biso   1.000  N
  C92      1.0000 0.92157  0.41333  0.73713  Biso   1.000  C
  H82      1.0000 0.93007  0.41983  0.67303  Biso   1.000  H
  N43      1.0000 0.98977  0.39843  0.17543  Biso   1.000  N
  N44      1.0000 0.89097  0.34933  0.86093  Biso   1.000  N
  C93      1.0000 0.98947  0.35123  0.16503  Biso   1.000  C
  H83      1.0000 0.01447  0.34483  0.19953  Biso   1.000  H
  C94      1.0000 0.91767  0.36703  0.06803  Biso   1.000  C
  C95      1.0000 0.95187  0.40633  0.12813  Biso   1.000  C
  H84      1.0000 0.94977  0.43863  0.13733  Biso   1.000  H
  C96      1.0000 0.89147  0.38723  0.91343  Biso   1.000  C
  C97      1.0000 0.87427  0.37543  0.00923  Biso   1.000  C
  H85      1.0000 0.87107  0.40623  0.03563  Biso   1.000  H
  H86      1.0000 0.83777  0.34183  0.01273  Biso   1.000  H
  C98      1.0000 0.90807  0.36233  0.77163  Biso   1.000  C
  H87      1.0000 0.91077  0.33633  0.73313  Biso   1.000  H
  C99      1.0000 0.95427  0.31253  0.10653  Biso   1.000  C
  H88      1.0000 0.95517  0.27933  0.10083  Biso   1.000  H
  Ag12     1.0000 0.53373  0.59283  0.26997  Biso   1.000  Ag
  N45      1.0000 0.59013  0.78587  0.11827  Biso   1.000  N
  C100     1.0000 0.57543  0.77507  0.20807  Biso   1.000  C
  H89      1.0000 0.57633  0.80297  0.24647  Biso   1.000  H
  N46      1.0000 0.58213  0.65267  0.38587  Biso   1.000  N
  C101     1.0000 0.58823  0.74667  0.07047  Biso   1.000  C
  H90      1.0000 0.59673  0.75317  0.00637  Biso   1.000  H
  N47      1.0000 0.65643  0.73177  0.50877  Biso   1.000  N
  N48      1.0000 0.55763  0.68267  0.19427  Biso   1.000  N
  C102     1.0000 0.65613  0.68457  0.49837  Biso   1.000  C
  H91      1.0000 0.68113  0.67817  0.53287  Biso   1.000  H
  C103     1.0000 0.58433  0.70037  0.40137  Biso   1.000  C
  C104     1.0000 0.61853  0.73967  0.46147  Biso   1.000  C
  H92      1.0000 0.61643  0.77197  0.47067  Biso   1.000  H
  C105     1.0000 0.55813  0.72057  0.24677  Biso   1.000  C
  C106     1.0000 0.54093  0.70877  0.34257  Biso   1.000  C
  H93      1.0000 0.53773  0.73957  0.36897  Biso   1.000  H
  H94      1.0000 0.50443  0.67517  0.34607  Biso   1.000  H
  C107     1.0000 0.57473  0.69567  0.10497  Biso   1.000  C
  H95      1.0000 0.57743  0.66967  0.06647  Biso   1.000  H
  C108     1.0000 0.62093  0.64587  0.43987  Biso   1.000  C
  H96      1.0000 0.62183  0.61267  0.43417  Biso   1.000  H
  Ag13     1.0000 0.07384  0.27424  0.60330  Biso   1.000  Ag
  N49      1.0000 0.88080  0.13760  0.45160  Biso   1.000  N
  C109     1.0000 0.89160  0.13370  0.54140  Biso   1.000  C
  H97      1.0000 0.86370  0.10670  0.57980  Biso   1.000  H
  N50      1.0000 0.01400  0.26280  0.71920  Biso   1.000  N
  C110     1.0000 0.92000  0.17490  0.40380  Biso   1.000  C
  H98      1.0000 0.91350  0.17690  0.33970  Biso   1.000  H
  N51      1.0000 0.93490  0.25800  0.84210  Biso   1.000  N
  N52      1.0000 0.98400  0.20830  0.52760  Biso   1.000  N
  C111     1.0000 0.98210  0.30490  0.83170  Biso   1.000  C
  H99      1.0000 0.98850  0.33630  0.86620  Biso   1.000  H
  C112     1.0000 0.96630  0.21730  0.73470  Biso   1.000  C
  C113     1.0000 0.92700  0.21220  0.79480  Biso   1.000  C
  H100     1.0000 0.89470  0.17780  0.80400  Biso   1.000  H
  C114     1.0000 0.94610  0.17090  0.58010  Biso   1.000  C
  C115     1.0000 0.95790  0.16550  0.67590  Biso   1.000  C
  H101     1.0000 0.92710  0.13150  0.70230  Biso   1.000  H
  H102     1.0000 0.99150  0.16260  0.67940  Biso   1.000  H
  C116     1.0000 0.97100  0.21240  0.43830  Biso   1.000  C
  H103     1.0000 0.99700  0.24110  0.39980  Biso   1.000  H
  C117     1.0000 0.02080  0.30840  0.77320  Biso   1.000  C
  H104     1.0000 0.05400  0.34250  0.76750  Biso   1.000  H
  Ag14     1.0000 0.74051  0.60757  0.93663  Biso   1.000  Ag
  N53      1.0000 0.54747  0.47093  0.78493  Biso   1.000  N
  C118     1.0000 0.55827  0.46703  0.87473  Biso   1.000  C
  H105     1.0000 0.53037  0.44003  0.91313  Biso   1.000  H
  N54      1.0000 0.68067  0.59613  0.05253  Biso   1.000  N
  C119     1.0000 0.58667  0.50823  0.73713  Biso   1.000  C
  H106     1.0000 0.58017  0.51023  0.67303  Biso   1.000  H
  N55      1.0000 0.60157  0.59133  0.17543  Biso   1.000  N
  N56      1.0000 0.65067  0.54163  0.86093  Biso   1.000  N
  C120     1.0000 0.64877  0.63823  0.16503  Biso   1.000  C
  H107     1.0000 0.65517  0.66963  0.19953  Biso   1.000  H
  C121     1.0000 0.63297  0.55063  0.06803  Biso   1.000  C
  C122     1.0000 0.59367  0.54553  0.12813  Biso   1.000  C
  H108     1.0000 0.56137  0.51113  0.13733  Biso   1.000  H
  C123     1.0000 0.61277  0.50423  0.91343  Biso   1.000  C
  C124     1.0000 0.62457  0.49883  0.00923  Biso   1.000  C
  H109     1.0000 0.59377  0.46483  0.03563  Biso   1.000  H
  H110     1.0000 0.65817  0.49593  0.01273  Biso   1.000  H
  C125     1.0000 0.63767  0.54573  0.77163  Biso   1.000  C
  H111     1.0000 0.66367  0.57443  0.73313  Biso   1.000  H
  C126     1.0000 0.68747  0.64173  0.10653  Biso   1.000  C
  H112     1.0000 0.72067  0.67583  0.10083  Biso   1.000  H
  Ag15     1.0000 0.40717  0.94091  0.26997  Biso   1.000  Ag
  N57      1.0000 0.21413  0.80427  0.11827  Biso   1.000  N
  C127     1.0000 0.22493  0.80037  0.20807  Biso   1.000  C
  H113     1.0000 0.19703  0.77337  0.24647  Biso   1.000  H
  N58      1.0000 0.34733  0.92947  0.38587  Biso   1.000  N
  C128     1.0000 0.25333  0.84157  0.07047  Biso   1.000  C
  H114     1.0000 0.24683  0.84357  0.00637  Biso   1.000  H
  N59      1.0000 0.26823  0.92467  0.50877  Biso   1.000  N
  N60      1.0000 0.31733  0.87497  0.19427  Biso   1.000  N
  C129     1.0000 0.31543  0.97157  0.49837  Biso   1.000  C
  H115     1.0000 0.32183  0.00297  0.53287  Biso   1.000  H
  C130     1.0000 0.29963  0.88397  0.40137  Biso   1.000  C
  C131     1.0000 0.26033  0.87887  0.46147  Biso   1.000  C
  H116     1.0000 0.22803  0.84447  0.47067  Biso   1.000  H
  C132     1.0000 0.27943  0.83757  0.24677  Biso   1.000  C
  C133     1.0000 0.29123  0.83217  0.34257  Biso   1.000  C
  H117     1.0000 0.26043  0.79817  0.36897  Biso   1.000  H
  H118     1.0000 0.32483  0.82927  0.34607  Biso   1.000  H
  C134     1.0000 0.30433  0.87907  0.10497  Biso   1.000  C
  H119     1.0000 0.33033  0.90777  0.06647  Biso   1.000  H
  C135     1.0000 0.35413  0.97507  0.43987  Biso   1.000  C
  H120     1.0000 0.38733  0.00917  0.43417  Biso   1.000  H
  Ag16     1.0000 0.72576  0.79960  0.60330  Biso   1.000  Ag
  N61      1.0000 0.86240  0.74320  0.45160  Biso   1.000  N
  C136     1.0000 0.86630  0.75790  0.54140  Biso   1.000  C
  H121     1.0000 0.89330  0.75700  0.57980  Biso   1.000  H
  N62      1.0000 0.73720  0.75120  0.71920  Biso   1.000  N
  C137     1.0000 0.82510  0.74510  0.40380  Biso   1.000  C
  H122     1.0000 0.82310  0.73660  0.33970  Biso   1.000  H
  N63      1.0000 0.74200  0.67690  0.84210  Biso   1.000  N
  N64      1.0000 0.79170  0.77570  0.52760  Biso   1.000  N
  C138     1.0000 0.69510  0.67720  0.83170  Biso   1.000  C
  H123     1.0000 0.66370  0.65220  0.86620  Biso   1.000  H
  C139     1.0000 0.78270  0.74900  0.73470  Biso   1.000  C
  C140     1.0000 0.78780  0.71480  0.79480  Biso   1.000  C
  H124     1.0000 0.82220  0.71690  0.80400  Biso   1.000  H
  C141     1.0000 0.82910  0.77520  0.58010  Biso   1.000  C
  C142     1.0000 0.83450  0.79240  0.67590  Biso   1.000  C
  H125     1.0000 0.86850  0.79560  0.70230  Biso   1.000  H
  H126     1.0000 0.83740  0.82890  0.67940  Biso   1.000  H
  C143     1.0000 0.78760  0.75860  0.43830  Biso   1.000  C
  H127     1.0000 0.75890  0.75590  0.39980  Biso   1.000  H
  C144     1.0000 0.69160  0.71240  0.77320  Biso   1.000  C
  H128     1.0000 0.65750  0.71150  0.76750  Biso   1.000  H
  Ag17     1.0000 0.39243  0.13293  0.93663  Biso   1.000  Ag
  N65      1.0000 0.52907  0.07653  0.78493  Biso   1.000  N
  C145     1.0000 0.53297  0.09123  0.87473  Biso   1.000  C
  H129     1.0000 0.55997  0.09033  0.91313  Biso   1.000  H
  N66      1.0000 0.40387  0.08453  0.05253  Biso   1.000  N
  C146     1.0000 0.49177  0.07843  0.73713  Biso   1.000  C
  H130     1.0000 0.48977  0.06993  0.67303  Biso   1.000  H
  N67      1.0000 0.40867  0.01023  0.17543  Biso   1.000  N
  N68      1.0000 0.45837  0.10903  0.86093  Biso   1.000  N
  C147     1.0000 0.36177  0.01053  0.16503  Biso   1.000  C
  H131     1.0000 0.33037  0.98553  0.19953  Biso   1.000  H
  C148     1.0000 0.44937  0.08233  0.06803  Biso   1.000  C
  C149     1.0000 0.45447  0.04813  0.12813  Biso   1.000  C
  H132     1.0000 0.48887  0.05023  0.13733  Biso   1.000  H
  C150     1.0000 0.49577  0.10853  0.91343  Biso   1.000  C
  C151     1.0000 0.50117  0.12573  0.00923  Biso   1.000  C
  H133     1.0000 0.53517  0.12893  0.03563  Biso   1.000  H
  H134     1.0000 0.50407  0.16223  0.01273  Biso   1.000  H
  C152     1.0000 0.45427  0.09193  0.77163  Biso   1.000  C
  H135     1.0000 0.42557  0.08923  0.73313  Biso   1.000  H
  C153     1.0000 0.35827  0.04573  0.10653  Biso   1.000  C
  H136     1.0000 0.32417  0.04483  0.10083  Biso   1.000  H
  Ag18     1.0000 0.05909  0.46627  0.26997  Biso   1.000  Ag
  N69      1.0000 0.19573  0.40987  0.11827  Biso   1.000  N
  C154     1.0000 0.19963  0.42457  0.20807  Biso   1.000  C
  H137     1.0000 0.22663  0.42367  0.24647  Biso   1.000  H
  N70      1.0000 0.07053  0.41787  0.38587  Biso   1.000  N
  C155     1.0000 0.15843  0.41177  0.07047  Biso   1.000  C
  H138     1.0000 0.15643  0.40327  0.00637  Biso   1.000  H
  N71      1.0000 0.07533  0.34357  0.50877  Biso   1.000  N
  N72      1.0000 0.12503  0.44237  0.19427  Biso   1.000  N
  C156     1.0000 0.02843  0.34387  0.49837  Biso   1.000  C
  H139     1.0000 0.99703  0.31887  0.53287  Biso   1.000  H
  C157     1.0000 0.11603  0.41567  0.40137  Biso   1.000  C
  C158     1.0000 0.12113  0.38147  0.46147  Biso   1.000  C
  H140     1.0000 0.15553  0.38357  0.47067  Biso   1.000  H
  C159     1.0000 0.16243  0.44187  0.24677  Biso   1.000  C
  C160     1.0000 0.16783  0.45907  0.34257  Biso   1.000  C
  H141     1.0000 0.20183  0.46227  0.36897  Biso   1.000  H
  H142     1.0000 0.17073  0.49557  0.34607  Biso   1.000  H
  C161     1.0000 0.12093  0.42527  0.10497  Biso   1.000  C
  H143     1.0000 0.09223  0.42257  0.06647  Biso   1.000  H
  C162     1.0000 0.02493  0.37907  0.43987  Biso   1.000  C
  H144     1.0000 0.99083  0.37817  0.43417  Biso   1.000  H
