data_image0
_cell_length_a       26.682
_cell_length_b       39.63
_cell_length_c       17.0967
_cell_angle_alpha    90
_cell_angle_beta     100.95
_cell_angle_gamma    90

_symmetry_space_group_name_H-M    "P 1"
_symmetry_int_tables_number       1

loop_
  _symmetry_equiv_pos_as_xyz
  'x, y, z'

loop_
  _atom_site_label
  _atom_site_occupancy
  _atom_site_fract_x
  _atom_site_fract_y
  _atom_site_fract_z
  _atom_site_thermal_displace_type
  _atom_site_B_iso_or_equiv
  _atom_site_type_symbol
  Cd1      1.0000 0.19292  0.16879  0.50422  Biso   1.000  Cd
  N1       1.0000 0.16810  0.11414  0.50530  Biso   1.000  N
  N2       1.0000 0.15650  0.06066  0.47270  Biso   1.000  N
  C1       1.0000 0.43800  0.18820  0.07850  Biso   1.000  C
  C2       1.0000 0.46980  0.16270  0.04390  Biso   1.000  C
  H1       1.0000 0.49120  0.15000  0.08620  Biso   1.000  H
  H2       1.0000 0.44800  0.14690  0.00980  Biso   1.000  H
  C3       1.0000 0.47190  0.21650  0.12420  Biso   1.000  C
  H3       1.0000 0.48990  0.22860  0.08860  Biso   1.000  H
  H4       1.0000 0.45110  0.23250  0.14690  Biso   1.000  H
  C4       1.0000 0.40740  0.17064  0.13470  Biso   1.000  C
  H5       1.0000 0.38340  0.15460  0.10550  Biso   1.000  H
  H6       1.0000 0.43010  0.15870  0.17670  Biso   1.000  H
  C5       1.0000 0.40230  0.20650  0.01070  Biso   1.000  C
  H7       1.0000 0.38330  0.22400  0.03190  Biso   1.000  H
  H8       1.0000 0.42170  0.21670  0.97440  Biso   1.000  H
  C6       1.0000 0.54000  0.22010  0.23610  Biso   1.000  C
  C7       1.0000 0.54320  0.25550  0.22700  Biso   1.000  C
  H9       1.0000 0.52300  0.26640  0.18410  Biso   1.000  H
  C8       1.0000 0.57630  0.27340  0.28220  Biso   1.000  C
  H10      1.0000 0.57830  0.29660  0.27550  Biso   1.000  H
  C9       1.0000 0.60690  0.25890  0.34700  Biso   1.000  C
  C10      1.0000 0.60350  0.22400  0.35610  Biso   1.000  C
  H11      1.0000 0.62330  0.21370  0.40030  Biso   1.000  H
  C11      1.0000 0.57090  0.20410  0.29990  Biso   1.000  C
  H12      1.0000 0.57000  0.18080  0.30550  Biso   1.000  H
  C12      1.0000 0.64120  0.27920  0.40710  Biso   1.000  C
  C13      1.0000 0.35470  0.18870  0.22650  Biso   1.000  C
  C14      1.0000 0.33840  0.21640  0.26520  Biso   1.000  C
  H13      1.0000 0.34560  0.23820  0.25080  Biso   1.000  H
  C15      1.0000 0.31180  0.21070  0.32470  Biso   1.000  C
  H14      1.0000 0.30130  0.22910  0.35140  Biso   1.000  H
  C16      1.0000 0.29970  0.17834  0.34680  Biso   1.000  C
  C17      1.0000 0.31580  0.15220  0.30690  Biso   1.000  C
  H15      1.0000 0.30740  0.13050  0.32040  Biso   1.000  H
  C18      1.0000 0.34380  0.15600  0.24770  Biso   1.000  C
  H16      1.0000 0.35500  0.13730  0.22280  Biso   1.000  H
  C19      1.0000 0.26910  0.17310  0.41100  Biso   1.000  C
  C20      1.0000 0.34250  0.18840  0.89460  Biso   1.000  C
  C21      1.0000 0.33900  0.21930  0.85960  Biso   1.000  C
  H17      1.0000 0.35480  0.23780  0.88750  Biso   1.000  H
  C22      1.0000 0.31190  0.22330  0.78180  Biso   1.000  C
  H18      1.0000 0.31020  0.24450  0.75790  Biso   1.000  H
  C23      1.0000 0.28750  0.19630  0.73990  Biso   1.000  C
  C24      1.0000 0.29230  0.16460  0.77560  Biso   1.000  C
  H19      1.0000 0.27930  0.14560  0.74690  Biso   1.000  H
  C25      1.0000 0.31660  0.16170  0.85400  Biso   1.000  C
  H20      1.0000 0.31550  0.14120  0.88010  Biso   1.000  H
  C26      1.0000 0.25900  0.20010  0.65510  Biso   1.000  C
  C27      1.0000 0.17730  0.09090  0.45700  Biso   1.000  C
  H21      1.0000 0.19580  0.09420  0.41670  Biso   1.000  H
  C28      1.0000 0.14220  0.09980  0.56000  Biso   1.000  C
  H22      1.0000 0.13310  0.11070  0.60340  Biso   1.000  H
  C29      1.0000 0.13210  0.06600  0.53850  Biso   1.000  C
  H23      1.0000 0.11340  0.05050  0.56220  Biso   1.000  H
  C30      1.0000 0.15930  0.03000  0.43260  Biso   1.000  C
  C31      1.0000 0.15940  0.03070  0.35130  Biso   1.000  C
  H24      1.0000 0.15960  0.05130  0.32500  Biso   1.000  H
  C32      1.0000 0.15350  0.02470  0.18200  Biso   1.000  C
  O1       1.0000 0.50751  0.19992  0.18640  Biso   1.000  O
  O2       1.0000 0.38090  0.19678  0.16720  Biso   1.000  O
  O3       1.0000 0.36820  0.18133  0.97020  Biso   1.000  O
  O4       1.0000 0.64300  0.31058  0.39410  Biso   1.000  O
  O5       1.0000 0.66581  0.26563  0.46930  Biso   1.000  O
  O6       1.0000 0.26230  0.19707  0.45560  Biso   1.000  O
  O7       1.0000 0.24910  0.14459  0.41690  Biso   1.000  O
  O8       1.0000 0.25910  0.22814  0.62320  Biso   1.000  O
  O9       1.0000 0.23850  0.17375  0.62420  Biso   1.000  O
  N3       1.0000 0.15840  0.01570  0.10490  Biso   1.000  N
  Cd2      1.0000 0.69292  0.66879  0.50422  Biso   1.000  Cd
  N4       1.0000 0.66810  0.61414  0.50530  Biso   1.000  N
  N5       1.0000 0.65650  0.56066  0.47270  Biso   1.000  N
  C33      1.0000 0.93800  0.68820  0.07850  Biso   1.000  C
  C34      1.0000 0.96980  0.66270  0.04390  Biso   1.000  C
  H25      1.0000 0.99120  0.65000  0.08620  Biso   1.000  H
  H26      1.0000 0.94800  0.64690  0.00980  Biso   1.000  H
  C35      1.0000 0.97190  0.71650  0.12420  Biso   1.000  C
  H27      1.0000 0.98990  0.72860  0.08860  Biso   1.000  H
  H28      1.0000 0.95110  0.73250  0.14690  Biso   1.000  H
  C36      1.0000 0.90740  0.67064  0.13470  Biso   1.000  C
  H29      1.0000 0.88340  0.65460  0.10550  Biso   1.000  H
  H30      1.0000 0.93010  0.65870  0.17670  Biso   1.000  H
  C37      1.0000 0.90230  0.70650  0.01070  Biso   1.000  C
  H31      1.0000 0.88330  0.72400  0.03190  Biso   1.000  H
  H32      1.0000 0.92170  0.71670  0.97440  Biso   1.000  H
  C38      1.0000 0.04000  0.72010  0.23610  Biso   1.000  C
  C39      1.0000 0.04320  0.75550  0.22700  Biso   1.000  C
  H33      1.0000 0.02300  0.76640  0.18410  Biso   1.000  H
  C40      1.0000 0.07630  0.77340  0.28220  Biso   1.000  C
  H34      1.0000 0.07830  0.79660  0.27550  Biso   1.000  H
  C41      1.0000 0.10690  0.75890  0.34700  Biso   1.000  C
  C42      1.0000 0.10350  0.72400  0.35610  Biso   1.000  C
  H35      1.0000 0.12330  0.71370  0.40030  Biso   1.000  H
  C43      1.0000 0.07090  0.70410  0.29990  Biso   1.000  C
  H36      1.0000 0.07000  0.68080  0.30550  Biso   1.000  H
  C44      1.0000 0.14120  0.77920  0.40710  Biso   1.000  C
  C45      1.0000 0.85470  0.68870  0.22650  Biso   1.000  C
  C46      1.0000 0.83840  0.71640  0.26520  Biso   1.000  C
  H37      1.0000 0.84560  0.73820  0.25080  Biso   1.000  H
  C47      1.0000 0.81180  0.71070  0.32470  Biso   1.000  C
  H38      1.0000 0.80130  0.72910  0.35140  Biso   1.000  H
  C48      1.0000 0.79970  0.67834  0.34680  Biso   1.000  C
  C49      1.0000 0.81580  0.65220  0.30690  Biso   1.000  C
  H39      1.0000 0.80740  0.63050  0.32040  Biso   1.000  H
  C50      1.0000 0.84380  0.65600  0.24770  Biso   1.000  C
  H40      1.0000 0.85500  0.63730  0.22280  Biso   1.000  H
  C51      1.0000 0.76910  0.67310  0.41100  Biso   1.000  C
  C52      1.0000 0.84250  0.68840  0.89460  Biso   1.000  C
  C53      1.0000 0.83900  0.71930  0.85960  Biso   1.000  C
  H41      1.0000 0.85480  0.73780  0.88750  Biso   1.000  H
  C54      1.0000 0.81190  0.72330  0.78180  Biso   1.000  C
  H42      1.0000 0.81020  0.74450  0.75790  Biso   1.000  H
  C55      1.0000 0.78750  0.69630  0.73990  Biso   1.000  C
  C56      1.0000 0.79230  0.66460  0.77560  Biso   1.000  C
  H43      1.0000 0.77930  0.64560  0.74690  Biso   1.000  H
  C57      1.0000 0.81660  0.66170  0.85400  Biso   1.000  C
  H44      1.0000 0.81550  0.64120  0.88010  Biso   1.000  H
  C58      1.0000 0.75900  0.70010  0.65510  Biso   1.000  C
  C59      1.0000 0.67730  0.59090  0.45700  Biso   1.000  C
  H45      1.0000 0.69580  0.59420  0.41670  Biso   1.000  H
  C60      1.0000 0.64220  0.59980  0.56000  Biso   1.000  C
  H46      1.0000 0.63310  0.61070  0.60340  Biso   1.000  H
  C61      1.0000 0.63210  0.56600  0.53850  Biso   1.000  C
  H47      1.0000 0.61340  0.55050  0.56220  Biso   1.000  H
  C62      1.0000 0.65930  0.53000  0.43260  Biso   1.000  C
  C63      1.0000 0.65940  0.53070  0.35130  Biso   1.000  C
  H48      1.0000 0.65960  0.55130  0.32500  Biso   1.000  H
  C64      1.0000 0.65350  0.52470  0.18200  Biso   1.000  C
  O10      1.0000 0.00751  0.69992  0.18640  Biso   1.000  O
  O11      1.0000 0.88090  0.69678  0.16720  Biso   1.000  O
  O12      1.0000 0.86820  0.68133  0.97020  Biso   1.000  O
  O13      1.0000 0.14300  0.81058  0.39410  Biso   1.000  O
  O14      1.0000 0.16581  0.76563  0.46930  Biso   1.000  O
  O15      1.0000 0.76230  0.69707  0.45560  Biso   1.000  O
  O16      1.0000 0.74910  0.64459  0.41690  Biso   1.000  O
  O17      1.0000 0.75910  0.72814  0.62320  Biso   1.000  O
  O18      1.0000 0.73850  0.67375  0.62420  Biso   1.000  O
  N6       1.0000 0.65840  0.51570  0.10490  Biso   1.000  N
  Cd3      1.0000 0.80708  0.16879  0.49578  Biso   1.000  Cd
  N7       1.0000 0.83190  0.11414  0.49470  Biso   1.000  N
  N8       1.0000 0.84350  0.06066  0.52730  Biso   1.000  N
  C65      1.0000 0.56200  0.18820  0.92150  Biso   1.000  C
  C66      1.0000 0.53020  0.16270  0.95610  Biso   1.000  C
  H49      1.0000 0.50880  0.15000  0.91380  Biso   1.000  H
  H50      1.0000 0.55200  0.14690  0.99020  Biso   1.000  H
  C67      1.0000 0.52810  0.21650  0.87580  Biso   1.000  C
  H51      1.0000 0.51010  0.22860  0.91140  Biso   1.000  H
  H52      1.0000 0.54890  0.23250  0.85310  Biso   1.000  H
  C68      1.0000 0.59260  0.17064  0.86530  Biso   1.000  C
  H53      1.0000 0.61660  0.15460  0.89450  Biso   1.000  H
  H54      1.0000 0.56990  0.15870  0.82330  Biso   1.000  H
  C69      1.0000 0.59770  0.20650  0.98930  Biso   1.000  C
  H55      1.0000 0.61670  0.22400  0.96810  Biso   1.000  H
  H56      1.0000 0.57830  0.21670  0.02560  Biso   1.000  H
  C70      1.0000 0.46000  0.22010  0.76390  Biso   1.000  C
  C71      1.0000 0.45680  0.25550  0.77300  Biso   1.000  C
  H57      1.0000 0.47700  0.26640  0.81590  Biso   1.000  H
  C72      1.0000 0.42370  0.27340  0.71780  Biso   1.000  C
  H58      1.0000 0.42170  0.29660  0.72450  Biso   1.000  H
  C73      1.0000 0.39310  0.25890  0.65300  Biso   1.000  C
  C74      1.0000 0.39650  0.22400  0.64390  Biso   1.000  C
  H59      1.0000 0.37670  0.21370  0.59970  Biso   1.000  H
  C75      1.0000 0.42910  0.20410  0.70010  Biso   1.000  C
  H60      1.0000 0.43000  0.18080  0.69450  Biso   1.000  H
  C76      1.0000 0.35880  0.27920  0.59290  Biso   1.000  C
  C77      1.0000 0.64530  0.18870  0.77350  Biso   1.000  C
  C78      1.0000 0.66160  0.21640  0.73480  Biso   1.000  C
  H61      1.0000 0.65440  0.23820  0.74920  Biso   1.000  H
  C79      1.0000 0.68820  0.21070  0.67530  Biso   1.000  C
  H62      1.0000 0.69870  0.22910  0.64860  Biso   1.000  H
  C80      1.0000 0.70030  0.17834  0.65320  Biso   1.000  C
  C81      1.0000 0.68420  0.15220  0.69310  Biso   1.000  C
  H63      1.0000 0.69260  0.13050  0.67960  Biso   1.000  H
  C82      1.0000 0.65620  0.15600  0.75230  Biso   1.000  C
  H64      1.0000 0.64500  0.13730  0.77720  Biso   1.000  H
  C83      1.0000 0.73090  0.17310  0.58900  Biso   1.000  C
  C84      1.0000 0.65750  0.18840  0.10540  Biso   1.000  C
  C85      1.0000 0.66100  0.21930  0.14040  Biso   1.000  C
  H65      1.0000 0.64520  0.23780  0.11250  Biso   1.000  H
  C86      1.0000 0.68810  0.22330  0.21820  Biso   1.000  C
  H66      1.0000 0.68980  0.24450  0.24210  Biso   1.000  H
  C87      1.0000 0.71250  0.19630  0.26010  Biso   1.000  C
  C88      1.0000 0.70770  0.16460  0.22440  Biso   1.000  C
  H67      1.0000 0.72070  0.14560  0.25310  Biso   1.000  H
  C89      1.0000 0.68340  0.16170  0.14600  Biso   1.000  C
  H68      1.0000 0.68450  0.14120  0.11990  Biso   1.000  H
  C90      1.0000 0.74100  0.20010  0.34490  Biso   1.000  C
  C91      1.0000 0.82270  0.09090  0.54300  Biso   1.000  C
  H69      1.0000 0.80420  0.09420  0.58330  Biso   1.000  H
  C92      1.0000 0.85780  0.09980  0.44000  Biso   1.000  C
  H70      1.0000 0.86690  0.11070  0.39660  Biso   1.000  H
  C93      1.0000 0.86790  0.06600  0.46150  Biso   1.000  C
  H71      1.0000 0.88660  0.05050  0.43780  Biso   1.000  H
  C94      1.0000 0.84070  0.03000  0.56740  Biso   1.000  C
  C95      1.0000 0.84060  0.03070  0.64870  Biso   1.000  C
  H72      1.0000 0.84040  0.05130  0.67500  Biso   1.000  H
  C96      1.0000 0.84650  0.02470  0.81800  Biso   1.000  C
  O19      1.0000 0.49249  0.19992  0.81360  Biso   1.000  O
  O20      1.0000 0.61910  0.19678  0.83280  Biso   1.000  O
  O21      1.0000 0.63180  0.18133  0.02980  Biso   1.000  O
  O22      1.0000 0.35700  0.31058  0.60590  Biso   1.000  O
  O23      1.0000 0.33419  0.26563  0.53070  Biso   1.000  O
  O24      1.0000 0.73770  0.19707  0.54440  Biso   1.000  O
  O25      1.0000 0.75090  0.14459  0.58310  Biso   1.000  O
  O26      1.0000 0.74090  0.22814  0.37680  Biso   1.000  O
  O27      1.0000 0.76150  0.17375  0.37580  Biso   1.000  O
  N9       1.0000 0.84160  0.01570  0.89510  Biso   1.000  N
  Cd4      1.0000 0.30708  0.66879  0.49578  Biso   1.000  Cd
  N10      1.0000 0.33190  0.61414  0.49470  Biso   1.000  N
  N11      1.0000 0.34350  0.56066  0.52730  Biso   1.000  N
  C97      1.0000 0.06200  0.68820  0.92150  Biso   1.000  C
  C98      1.0000 0.03020  0.66270  0.95610  Biso   1.000  C
  H73      1.0000 0.00880  0.65000  0.91380  Biso   1.000  H
  H74      1.0000 0.05200  0.64690  0.99020  Biso   1.000  H
  C99      1.0000 0.02810  0.71650  0.87580  Biso   1.000  C
  H75      1.0000 0.01010  0.72860  0.91140  Biso   1.000  H
  H76      1.0000 0.04890  0.73250  0.85310  Biso   1.000  H
  C100     1.0000 0.09260  0.67064  0.86530  Biso   1.000  C
  H77      1.0000 0.11660  0.65460  0.89450  Biso   1.000  H
  H78      1.0000 0.06990  0.65870  0.82330  Biso   1.000  H
  C101     1.0000 0.09770  0.70650  0.98930  Biso   1.000  C
  H79      1.0000 0.11670  0.72400  0.96810  Biso   1.000  H
  H80      1.0000 0.07830  0.71670  0.02560  Biso   1.000  H
  C102     1.0000 0.96000  0.72010  0.76390  Biso   1.000  C
  C103     1.0000 0.95680  0.75550  0.77300  Biso   1.000  C
  H81      1.0000 0.97700  0.76640  0.81590  Biso   1.000  H
  C104     1.0000 0.92370  0.77340  0.71780  Biso   1.000  C
  H82      1.0000 0.92170  0.79660  0.72450  Biso   1.000  H
  C105     1.0000 0.89310  0.75890  0.65300  Biso   1.000  C
  C106     1.0000 0.89650  0.72400  0.64390  Biso   1.000  C
  H83      1.0000 0.87670  0.71370  0.59970  Biso   1.000  H
  C107     1.0000 0.92910  0.70410  0.70010  Biso   1.000  C
  H84      1.0000 0.93000  0.68080  0.69450  Biso   1.000  H
  C108     1.0000 0.85880  0.77920  0.59290  Biso   1.000  C
  C109     1.0000 0.14530  0.68870  0.77350  Biso   1.000  C
  C110     1.0000 0.16160  0.71640  0.73480  Biso   1.000  C
  H85      1.0000 0.15440  0.73820  0.74920  Biso   1.000  H
  C111     1.0000 0.18820  0.71070  0.67530  Biso   1.000  C
  H86      1.0000 0.19870  0.72910  0.64860  Biso   1.000  H
  C112     1.0000 0.20030  0.67834  0.65320  Biso   1.000  C
  C113     1.0000 0.18420  0.65220  0.69310  Biso   1.000  C
  H87      1.0000 0.19260  0.63050  0.67960  Biso   1.000  H
  C114     1.0000 0.15620  0.65600  0.75230  Biso   1.000  C
  H88      1.0000 0.14500  0.63730  0.77720  Biso   1.000  H
  C115     1.0000 0.23090  0.67310  0.58900  Biso   1.000  C
  C116     1.0000 0.15750  0.68840  0.10540  Biso   1.000  C
  C117     1.0000 0.16100  0.71930  0.14040  Biso   1.000  C
  H89      1.0000 0.14520  0.73780  0.11250  Biso   1.000  H
  C118     1.0000 0.18810  0.72330  0.21820  Biso   1.000  C
  H90      1.0000 0.18980  0.74450  0.24210  Biso   1.000  H
  C119     1.0000 0.21250  0.69630  0.26010  Biso   1.000  C
  C120     1.0000 0.20770  0.66460  0.22440  Biso   1.000  C
  H91      1.0000 0.22070  0.64560  0.25310  Biso   1.000  H
  C121     1.0000 0.18340  0.66170  0.14600  Biso   1.000  C
  H92      1.0000 0.18450  0.64120  0.11990  Biso   1.000  H
  C122     1.0000 0.24100  0.70010  0.34490  Biso   1.000  C
  C123     1.0000 0.32270  0.59090  0.54300  Biso   1.000  C
  H93      1.0000 0.30420  0.59420  0.58330  Biso   1.000  H
  C124     1.0000 0.35780  0.59980  0.44000  Biso   1.000  C
  H94      1.0000 0.36690  0.61070  0.39660  Biso   1.000  H
  C125     1.0000 0.36790  0.56600  0.46150  Biso   1.000  C
  H95      1.0000 0.38660  0.55050  0.43780  Biso   1.000  H
  C126     1.0000 0.34070  0.53000  0.56740  Biso   1.000  C
  C127     1.0000 0.34060  0.53070  0.64870  Biso   1.000  C
  H96      1.0000 0.34040  0.55130  0.67500  Biso   1.000  H
  C128     1.0000 0.34650  0.52470  0.81800  Biso   1.000  C
  O28      1.0000 0.99249  0.69992  0.81360  Biso   1.000  O
  O29      1.0000 0.11910  0.69678  0.83280  Biso   1.000  O
  O30      1.0000 0.13180  0.68133  0.02980  Biso   1.000  O
  O31      1.0000 0.85700  0.81058  0.60590  Biso   1.000  O
  O32      1.0000 0.83419  0.76563  0.53070  Biso   1.000  O
  O33      1.0000 0.23770  0.69707  0.54440  Biso   1.000  O
  O34      1.0000 0.25090  0.64459  0.58310  Biso   1.000  O
  O35      1.0000 0.24090  0.72814  0.37680  Biso   1.000  O
  O36      1.0000 0.26150  0.67375  0.37580  Biso   1.000  O
  N12      1.0000 0.34160  0.51570  0.89510  Biso   1.000  N
  Cd5      1.0000 0.80708  0.83121  0.49578  Biso   1.000  Cd
  N13      1.0000 0.83190  0.88586  0.49470  Biso   1.000  N
  N14      1.0000 0.84350  0.93934  0.52730  Biso   1.000  N
  C129     1.0000 0.56200  0.81180  0.92150  Biso   1.000  C
  C130     1.0000 0.53020  0.83730  0.95610  Biso   1.000  C
  H97      1.0000 0.50880  0.85000  0.91380  Biso   1.000  H
  H98      1.0000 0.55200  0.85310  0.99020  Biso   1.000  H
  C131     1.0000 0.52810  0.78350  0.87580  Biso   1.000  C
  H99      1.0000 0.51010  0.77140  0.91140  Biso   1.000  H
  H100     1.0000 0.54890  0.76750  0.85310  Biso   1.000  H
  C132     1.0000 0.59260  0.82936  0.86530  Biso   1.000  C
  H101     1.0000 0.61660  0.84540  0.89450  Biso   1.000  H
  H102     1.0000 0.56990  0.84130  0.82330  Biso   1.000  H
  C133     1.0000 0.59770  0.79350  0.98930  Biso   1.000  C
  H103     1.0000 0.61670  0.77600  0.96810  Biso   1.000  H
  H104     1.0000 0.57830  0.78330  0.02560  Biso   1.000  H
  C134     1.0000 0.46000  0.77990  0.76390  Biso   1.000  C
  C135     1.0000 0.45680  0.74450  0.77300  Biso   1.000  C
  H105     1.0000 0.47700  0.73360  0.81590  Biso   1.000  H
  C136     1.0000 0.42370  0.72660  0.71780  Biso   1.000  C
  H106     1.0000 0.42170  0.70340  0.72450  Biso   1.000  H
  C137     1.0000 0.39310  0.74110  0.65300  Biso   1.000  C
  C138     1.0000 0.39650  0.77600  0.64390  Biso   1.000  C
  H107     1.0000 0.37670  0.78630  0.59970  Biso   1.000  H
  C139     1.0000 0.42910  0.79590  0.70010  Biso   1.000  C
  H108     1.0000 0.43000  0.81920  0.69450  Biso   1.000  H
  C140     1.0000 0.35880  0.72080  0.59290  Biso   1.000  C
  C141     1.0000 0.64530  0.81130  0.77350  Biso   1.000  C
  C142     1.0000 0.66160  0.78360  0.73480  Biso   1.000  C
  H109     1.0000 0.65440  0.76180  0.74920  Biso   1.000  H
  C143     1.0000 0.68820  0.78930  0.67530  Biso   1.000  C
  H110     1.0000 0.69870  0.77090  0.64860  Biso   1.000  H
  C144     1.0000 0.70030  0.82166  0.65320  Biso   1.000  C
  C145     1.0000 0.68420  0.84780  0.69310  Biso   1.000  C
  H111     1.0000 0.69260  0.86950  0.67960  Biso   1.000  H
  C146     1.0000 0.65620  0.84400  0.75230  Biso   1.000  C
  H112     1.0000 0.64500  0.86270  0.77720  Biso   1.000  H
  C147     1.0000 0.73090  0.82690  0.58900  Biso   1.000  C
  C148     1.0000 0.65750  0.81160  0.10540  Biso   1.000  C
  C149     1.0000 0.66100  0.78070  0.14040  Biso   1.000  C
  H113     1.0000 0.64520  0.76220  0.11250  Biso   1.000  H
  C150     1.0000 0.68810  0.77670  0.21820  Biso   1.000  C
  H114     1.0000 0.68980  0.75550  0.24210  Biso   1.000  H
  C151     1.0000 0.71250  0.80370  0.26010  Biso   1.000  C
  C152     1.0000 0.70770  0.83540  0.22440  Biso   1.000  C
  H115     1.0000 0.72070  0.85440  0.25310  Biso   1.000  H
  C153     1.0000 0.68340  0.83830  0.14600  Biso   1.000  C
  H116     1.0000 0.68450  0.85880  0.11990  Biso   1.000  H
  C154     1.0000 0.74100  0.79990  0.34490  Biso   1.000  C
  C155     1.0000 0.82270  0.90910  0.54300  Biso   1.000  C
  H117     1.0000 0.80420  0.90580  0.58330  Biso   1.000  H
  C156     1.0000 0.85780  0.90020  0.44000  Biso   1.000  C
  H118     1.0000 0.86690  0.88930  0.39660  Biso   1.000  H
  C157     1.0000 0.86790  0.93400  0.46150  Biso   1.000  C
  H119     1.0000 0.88660  0.94950  0.43780  Biso   1.000  H
  C158     1.0000 0.84070  0.97000  0.56740  Biso   1.000  C
  C159     1.0000 0.84060  0.96930  0.64870  Biso   1.000  C
  H120     1.0000 0.84040  0.94870  0.67500  Biso   1.000  H
  C160     1.0000 0.84650  0.97530  0.81800  Biso   1.000  C
  O37      1.0000 0.49249  0.80008  0.81360  Biso   1.000  O
  O38      1.0000 0.61910  0.80322  0.83280  Biso   1.000  O
  O39      1.0000 0.63180  0.81867  0.02980  Biso   1.000  O
  O40      1.0000 0.35700  0.68942  0.60590  Biso   1.000  O
  O41      1.0000 0.33419  0.73437  0.53070  Biso   1.000  O
  O42      1.0000 0.73770  0.80293  0.54440  Biso   1.000  O
  O43      1.0000 0.75090  0.85541  0.58310  Biso   1.000  O
  O44      1.0000 0.74090  0.77186  0.37680  Biso   1.000  O
  O45      1.0000 0.76150  0.82625  0.37580  Biso   1.000  O
  N15      1.0000 0.84160  0.98430  0.89510  Biso   1.000  N
  Cd6      1.0000 0.30708  0.33121  0.49578  Biso   1.000  Cd
  N16      1.0000 0.33190  0.38586  0.49470  Biso   1.000  N
  N17      1.0000 0.34350  0.43934  0.52730  Biso   1.000  N
  C161     1.0000 0.06200  0.31180  0.92150  Biso   1.000  C
  C162     1.0000 0.03020  0.33730  0.95610  Biso   1.000  C
  H121     1.0000 0.00880  0.35000  0.91380  Biso   1.000  H
  H122     1.0000 0.05200  0.35310  0.99020  Biso   1.000  H
  C163     1.0000 0.02810  0.28350  0.87580  Biso   1.000  C
  H123     1.0000 0.01010  0.27140  0.91140  Biso   1.000  H
  H124     1.0000 0.04890  0.26750  0.85310  Biso   1.000  H
  C164     1.0000 0.09260  0.32936  0.86530  Biso   1.000  C
  H125     1.0000 0.11660  0.34540  0.89450  Biso   1.000  H
  H126     1.0000 0.06990  0.34130  0.82330  Biso   1.000  H
  C165     1.0000 0.09770  0.29350  0.98930  Biso   1.000  C
  H127     1.0000 0.11670  0.27600  0.96810  Biso   1.000  H
  H128     1.0000 0.07830  0.28330  0.02560  Biso   1.000  H
  C166     1.0000 0.96000  0.27990  0.76390  Biso   1.000  C
  C167     1.0000 0.95680  0.24450  0.77300  Biso   1.000  C
  H129     1.0000 0.97700  0.23360  0.81590  Biso   1.000  H
  C168     1.0000 0.92370  0.22660  0.71780  Biso   1.000  C
  H130     1.0000 0.92170  0.20340  0.72450  Biso   1.000  H
  C169     1.0000 0.89310  0.24110  0.65300  Biso   1.000  C
  C170     1.0000 0.89650  0.27600  0.64390  Biso   1.000  C
  H131     1.0000 0.87670  0.28630  0.59970  Biso   1.000  H
  C171     1.0000 0.92910  0.29590  0.70010  Biso   1.000  C
  H132     1.0000 0.93000  0.31920  0.69450  Biso   1.000  H
  C172     1.0000 0.85880  0.22080  0.59290  Biso   1.000  C
  C173     1.0000 0.14530  0.31130  0.77350  Biso   1.000  C
  C174     1.0000 0.16160  0.28360  0.73480  Biso   1.000  C
  H133     1.0000 0.15440  0.26180  0.74920  Biso   1.000  H
  C175     1.0000 0.18820  0.28930  0.67530  Biso   1.000  C
  H134     1.0000 0.19870  0.27090  0.64860  Biso   1.000  H
  C176     1.0000 0.20030  0.32166  0.65320  Biso   1.000  C
  C177     1.0000 0.18420  0.34780  0.69310  Biso   1.000  C
  H135     1.0000 0.19260  0.36950  0.67960  Biso   1.000  H
  C178     1.0000 0.15620  0.34400  0.75230  Biso   1.000  C
  H136     1.0000 0.14500  0.36270  0.77720  Biso   1.000  H
  C179     1.0000 0.23090  0.32690  0.58900  Biso   1.000  C
  C180     1.0000 0.15750  0.31160  0.10540  Biso   1.000  C
  C181     1.0000 0.16100  0.28070  0.14040  Biso   1.000  C
  H137     1.0000 0.14520  0.26220  0.11250  Biso   1.000  H
  C182     1.0000 0.18810  0.27670  0.21820  Biso   1.000  C
  H138     1.0000 0.18980  0.25550  0.24210  Biso   1.000  H
  C183     1.0000 0.21250  0.30370  0.26010  Biso   1.000  C
  C184     1.0000 0.20770  0.33540  0.22440  Biso   1.000  C
  H139     1.0000 0.22070  0.35440  0.25310  Biso   1.000  H
  C185     1.0000 0.18340  0.33830  0.14600  Biso   1.000  C
  H140     1.0000 0.18450  0.35880  0.11990  Biso   1.000  H
  C186     1.0000 0.24100  0.29990  0.34490  Biso   1.000  C
  C187     1.0000 0.32270  0.40910  0.54300  Biso   1.000  C
  H141     1.0000 0.30420  0.40580  0.58330  Biso   1.000  H
  C188     1.0000 0.35780  0.40020  0.44000  Biso   1.000  C
  H142     1.0000 0.36690  0.38930  0.39660  Biso   1.000  H
  C189     1.0000 0.36790  0.43400  0.46150  Biso   1.000  C
  H143     1.0000 0.38660  0.44950  0.43780  Biso   1.000  H
  C190     1.0000 0.34070  0.47000  0.56740  Biso   1.000  C
  C191     1.0000 0.34060  0.46930  0.64870  Biso   1.000  C
  H144     1.0000 0.34040  0.44870  0.67500  Biso   1.000  H
  C192     1.0000 0.34650  0.47530  0.81800  Biso   1.000  C
  O46      1.0000 0.99249  0.30008  0.81360  Biso   1.000  O
  O47      1.0000 0.11910  0.30322  0.83280  Biso   1.000  O
  O48      1.0000 0.13180  0.31867  0.02980  Biso   1.000  O
  O49      1.0000 0.85700  0.18942  0.60590  Biso   1.000  O
  O50      1.0000 0.83419  0.23437  0.53070  Biso   1.000  O
  O51      1.0000 0.23770  0.30293  0.54440  Biso   1.000  O
  O52      1.0000 0.25090  0.35541  0.58310  Biso   1.000  O
  O53      1.0000 0.24090  0.27186  0.37680  Biso   1.000  O
  O54      1.0000 0.26150  0.32625  0.37580  Biso   1.000  O
  N18      1.0000 0.34160  0.48430  0.89510  Biso   1.000  N
  Cd7      1.0000 0.19292  0.83121  0.50422  Biso   1.000  Cd
  N19      1.0000 0.16810  0.88586  0.50530  Biso   1.000  N
  N20      1.0000 0.15650  0.93934  0.47270  Biso   1.000  N
  C193     1.0000 0.43800  0.81180  0.07850  Biso   1.000  C
  C194     1.0000 0.46980  0.83730  0.04390  Biso   1.000  C
  H145     1.0000 0.49120  0.85000  0.08620  Biso   1.000  H
  H146     1.0000 0.44800  0.85310  0.00980  Biso   1.000  H
  C195     1.0000 0.47190  0.78350  0.12420  Biso   1.000  C
  H147     1.0000 0.48990  0.77140  0.08860  Biso   1.000  H
  H148     1.0000 0.45110  0.76750  0.14690  Biso   1.000  H
  C196     1.0000 0.40740  0.82936  0.13470  Biso   1.000  C
  H149     1.0000 0.38340  0.84540  0.10550  Biso   1.000  H
  H150     1.0000 0.43010  0.84130  0.17670  Biso   1.000  H
  C197     1.0000 0.40230  0.79350  0.01070  Biso   1.000  C
  H151     1.0000 0.38330  0.77600  0.03190  Biso   1.000  H
  H152     1.0000 0.42170  0.78330  0.97440  Biso   1.000  H
  C198     1.0000 0.54000  0.77990  0.23610  Biso   1.000  C
  C199     1.0000 0.54320  0.74450  0.22700  Biso   1.000  C
  H153     1.0000 0.52300  0.73360  0.18410  Biso   1.000  H
  C200     1.0000 0.57630  0.72660  0.28220  Biso   1.000  C
  H154     1.0000 0.57830  0.70340  0.27550  Biso   1.000  H
  C201     1.0000 0.60690  0.74110  0.34700  Biso   1.000  C
  C202     1.0000 0.60350  0.77600  0.35610  Biso   1.000  C
  H155     1.0000 0.62330  0.78630  0.40030  Biso   1.000  H
  C203     1.0000 0.57090  0.79590  0.29990  Biso   1.000  C
  H156     1.0000 0.57000  0.81920  0.30550  Biso   1.000  H
  C204     1.0000 0.64120  0.72080  0.40710  Biso   1.000  C
  C205     1.0000 0.35470  0.81130  0.22650  Biso   1.000  C
  C206     1.0000 0.33840  0.78360  0.26520  Biso   1.000  C
  H157     1.0000 0.34560  0.76180  0.25080  Biso   1.000  H
  C207     1.0000 0.31180  0.78930  0.32470  Biso   1.000  C
  H158     1.0000 0.30130  0.77090  0.35140  Biso   1.000  H
  C208     1.0000 0.29970  0.82166  0.34680  Biso   1.000  C
  C209     1.0000 0.31580  0.84780  0.30690  Biso   1.000  C
  H159     1.0000 0.30740  0.86950  0.32040  Biso   1.000  H
  C210     1.0000 0.34380  0.84400  0.24770  Biso   1.000  C
  H160     1.0000 0.35500  0.86270  0.22280  Biso   1.000  H
  C211     1.0000 0.26910  0.82690  0.41100  Biso   1.000  C
  C212     1.0000 0.34250  0.81160  0.89460  Biso   1.000  C
  C213     1.0000 0.33900  0.78070  0.85960  Biso   1.000  C
  H161     1.0000 0.35480  0.76220  0.88750  Biso   1.000  H
  C214     1.0000 0.31190  0.77670  0.78180  Biso   1.000  C
  H162     1.0000 0.31020  0.75550  0.75790  Biso   1.000  H
  C215     1.0000 0.28750  0.80370  0.73990  Biso   1.000  C
  C216     1.0000 0.29230  0.83540  0.77560  Biso   1.000  C
  H163     1.0000 0.27930  0.85440  0.74690  Biso   1.000  H
  C217     1.0000 0.31660  0.83830  0.85400  Biso   1.000  C
  H164     1.0000 0.31550  0.85880  0.88010  Biso   1.000  H
  C218     1.0000 0.25900  0.79990  0.65510  Biso   1.000  C
  C219     1.0000 0.17730  0.90910  0.45700  Biso   1.000  C
  H165     1.0000 0.19580  0.90580  0.41670  Biso   1.000  H
  C220     1.0000 0.14220  0.90020  0.56000  Biso   1.000  C
  H166     1.0000 0.13310  0.88930  0.60340  Biso   1.000  H
  C221     1.0000 0.13210  0.93400  0.53850  Biso   1.000  C
  H167     1.0000 0.11340  0.94950  0.56220  Biso   1.000  H
  C222     1.0000 0.15930  0.97000  0.43260  Biso   1.000  C
  C223     1.0000 0.15940  0.96930  0.35130  Biso   1.000  C
  H168     1.0000 0.15960  0.94870  0.32500  Biso   1.000  H
  C224     1.0000 0.15350  0.97530  0.18200  Biso   1.000  C
  O55      1.0000 0.50751  0.80008  0.18640  Biso   1.000  O
  O56      1.0000 0.38090  0.80322  0.16720  Biso   1.000  O
  O57      1.0000 0.36820  0.81867  0.97020  Biso   1.000  O
  O58      1.0000 0.64300  0.68942  0.39410  Biso   1.000  O
  O59      1.0000 0.66581  0.73437  0.46930  Biso   1.000  O
  O60      1.0000 0.26230  0.80293  0.45560  Biso   1.000  O
  O61      1.0000 0.24910  0.85541  0.41690  Biso   1.000  O
  O62      1.0000 0.25910  0.77186  0.62320  Biso   1.000  O
  O63      1.0000 0.23850  0.82625  0.62420  Biso   1.000  O
  N21      1.0000 0.15840  0.98430  0.10490  Biso   1.000  N
  Cd8      1.0000 0.69292  0.33121  0.50422  Biso   1.000  Cd
  N22      1.0000 0.66810  0.38586  0.50530  Biso   1.000  N
  N23      1.0000 0.65650  0.43934  0.47270  Biso   1.000  N
  C225     1.0000 0.93800  0.31180  0.07850  Biso   1.000  C
  C226     1.0000 0.96980  0.33730  0.04390  Biso   1.000  C
  H169     1.0000 0.99120  0.35000  0.08620  Biso   1.000  H
  H170     1.0000 0.94800  0.35310  0.00980  Biso   1.000  H
  C227     1.0000 0.97190  0.28350  0.12420  Biso   1.000  C
  H171     1.0000 0.98990  0.27140  0.08860  Biso   1.000  H
  H172     1.0000 0.95110  0.26750  0.14690  Biso   1.000  H
  C228     1.0000 0.90740  0.32936  0.13470  Biso   1.000  C
  H173     1.0000 0.88340  0.34540  0.10550  Biso   1.000  H
  H174     1.0000 0.93010  0.34130  0.17670  Biso   1.000  H
  C229     1.0000 0.90230  0.29350  0.01070  Biso   1.000  C
  H175     1.0000 0.88330  0.27600  0.03190  Biso   1.000  H
  H176     1.0000 0.92170  0.28330  0.97440  Biso   1.000  H
  C230     1.0000 0.04000  0.27990  0.23610  Biso   1.000  C
  C231     1.0000 0.04320  0.24450  0.22700  Biso   1.000  C
  H177     1.0000 0.02300  0.23360  0.18410  Biso   1.000  H
  C232     1.0000 0.07630  0.22660  0.28220  Biso   1.000  C
  H178     1.0000 0.07830  0.20340  0.27550  Biso   1.000  H
  C233     1.0000 0.10690  0.24110  0.34700  Biso   1.000  C
  C234     1.0000 0.10350  0.27600  0.35610  Biso   1.000  C
  H179     1.0000 0.12330  0.28630  0.40030  Biso   1.000  H
  C235     1.0000 0.07090  0.29590  0.29990  Biso   1.000  C
  H180     1.0000 0.07000  0.31920  0.30550  Biso   1.000  H
  C236     1.0000 0.14120  0.22080  0.40710  Biso   1.000  C
  C237     1.0000 0.85470  0.31130  0.22650  Biso   1.000  C
  C238     1.0000 0.83840  0.28360  0.26520  Biso   1.000  C
  H181     1.0000 0.84560  0.26180  0.25080  Biso   1.000  H
  C239     1.0000 0.81180  0.28930  0.32470  Biso   1.000  C
  H182     1.0000 0.80130  0.27090  0.35140  Biso   1.000  H
  C240     1.0000 0.79970  0.32166  0.34680  Biso   1.000  C
  C241     1.0000 0.81580  0.34780  0.30690  Biso   1.000  C
  H183     1.0000 0.80740  0.36950  0.32040  Biso   1.000  H
  C242     1.0000 0.84380  0.34400  0.24770  Biso   1.000  C
  H184     1.0000 0.85500  0.36270  0.22280  Biso   1.000  H
  C243     1.0000 0.76910  0.32690  0.41100  Biso   1.000  C
  C244     1.0000 0.84250  0.31160  0.89460  Biso   1.000  C
  C245     1.0000 0.83900  0.28070  0.85960  Biso   1.000  C
  H185     1.0000 0.85480  0.26220  0.88750  Biso   1.000  H
  C246     1.0000 0.81190  0.27670  0.78180  Biso   1.000  C
  H186     1.0000 0.81020  0.25550  0.75790  Biso   1.000  H
  C247     1.0000 0.78750  0.30370  0.73990  Biso   1.000  C
  C248     1.0000 0.79230  0.33540  0.77560  Biso   1.000  C
  H187     1.0000 0.77930  0.35440  0.74690  Biso   1.000  H
  C249     1.0000 0.81660  0.33830  0.85400  Biso   1.000  C
  H188     1.0000 0.81550  0.35880  0.88010  Biso   1.000  H
  C250     1.0000 0.75900  0.29990  0.65510  Biso   1.000  C
  C251     1.0000 0.67730  0.40910  0.45700  Biso   1.000  C
  H189     1.0000 0.69580  0.40580  0.41670  Biso   1.000  H
  C252     1.0000 0.64220  0.40020  0.56000  Biso   1.000  C
  H190     1.0000 0.63310  0.38930  0.60340  Biso   1.000  H
  C253     1.0000 0.63210  0.43400  0.53850  Biso   1.000  C
  H191     1.0000 0.61340  0.44950  0.56220  Biso   1.000  H
  C254     1.0000 0.65930  0.47000  0.43260  Biso   1.000  C
  C255     1.0000 0.65940  0.46930  0.35130  Biso   1.000  C
  H192     1.0000 0.65960  0.44870  0.32500  Biso   1.000  H
  C256     1.0000 0.65350  0.47530  0.18200  Biso   1.000  C
  O64      1.0000 0.00751  0.30008  0.18640  Biso   1.000  O
  O65      1.0000 0.88090  0.30322  0.16720  Biso   1.000  O
  O66      1.0000 0.86820  0.31867  0.97020  Biso   1.000  O
  O67      1.0000 0.14300  0.18942  0.39410  Biso   1.000  O
  O68      1.0000 0.16581  0.23437  0.46930  Biso   1.000  O
  O69      1.0000 0.76230  0.30293  0.45560  Biso   1.000  O
  O70      1.0000 0.74910  0.35541  0.41690  Biso   1.000  O
  O71      1.0000 0.75910  0.27186  0.62320  Biso   1.000  O
  O72      1.0000 0.73850  0.32625  0.62420  Biso   1.000  O
  N24      1.0000 0.65840  0.48430  0.10490  Biso   1.000  N
  Cd9      1.0000 0.25000  0.25000  0.50000  Biso   1.000  Cd
  Cd10     1.0000 0.75000  0.25000  0.50000  Biso   1.000  Cd
  Cd11     1.0000 0.75000  0.75000  0.50000  Biso   1.000  Cd
  Cd12     1.0000 0.25000  0.75000  0.50000  Biso   1.000  Cd
  N25      1.0000 0.15730  0.00000  0.22760  Biso   1.000  N
  C257     1.0000 0.15920  0.00000  0.30860  Biso   1.000  C
  C258     1.0000 0.15640  0.00000  0.47370  Biso   1.000  C
  H193     1.0000 0.15270  0.00000  0.52670  Biso   1.000  H
  N26      1.0000 0.65730  0.50000  0.22760  Biso   1.000  N
  C259     1.0000 0.65920  0.50000  0.30860  Biso   1.000  C
  C260     1.0000 0.65640  0.50000  0.47370  Biso   1.000  C
  H194     1.0000 0.65270  0.50000  0.52670  Biso   1.000  H
  N27      1.0000 0.84270  0.00000  0.77240  Biso   1.000  N
  C261     1.0000 0.84080  0.00000  0.69140  Biso   1.000  C
  C262     1.0000 0.84360  0.00000  0.52630  Biso   1.000  C
  H195     1.0000 0.84730  0.00000  0.47330  Biso   1.000  H
  N28      1.0000 0.34270  0.50000  0.77240  Biso   1.000  N
  C263     1.0000 0.34080  0.50000  0.69140  Biso   1.000  C
  C264     1.0000 0.34360  0.50000  0.52630  Biso   1.000  C
  H196     1.0000 0.34730  0.50000  0.47330  Biso   1.000  H
  O73      1.0000 0.50000  0.18060  0.00000  Biso   1.000  O
  O74      1.0000 0.00000  0.68060  0.00000  Biso   1.000  O
  O75      1.0000 0.50000  0.81940  0.00000  Biso   1.000  O
  O76      1.0000 0.00000  0.31940  0.00000  Biso   1.000  O
