data_image0
_cell_length_a       14.2384
_cell_length_b       16.3862
_cell_length_c       6.845
_cell_angle_alpha    90
_cell_angle_beta     90
_cell_angle_gamma    90

_symmetry_space_group_name_H-M    "P 1"
_symmetry_int_tables_number       1

loop_
  _symmetry_equiv_pos_as_xyz
  'x, y, z'

loop_
  _atom_site_label
  _atom_site_occupancy
  _atom_site_fract_x
  _atom_site_fract_y
  _atom_site_fract_z
  _atom_site_thermal_displace_type
  _atom_site_B_iso_or_equiv
  _atom_site_type_symbol
  C1       1.0000 0.42089  0.90723  0.11040  Biso   1.000  C
  C2       1.0000 0.35909  0.83114  0.10580  Biso   1.000  C
  C3       1.0000 0.26770  0.83188  0.17710  Biso   1.000  C
  C4       1.0000 0.21220  0.76207  0.17460  Biso   1.000  C
  C5       1.0000 0.24531  0.68841  0.10200  Biso   1.000  C
  C6       1.0000 0.18469  0.61164  0.10150  Biso   1.000  C
  C7       1.0000 0.33733  0.68761  0.03300  Biso   1.000  C
  C8       1.0000 0.39250  0.75743  0.03240  Biso   1.000  C
  Ca1      1.0000 0.43129  0.96948  0.61280  Biso   1.000  Ca
  F1       1.0000 0.23114  0.90132  0.24960  Biso   1.000  F
  F2       1.0000 0.12394  0.76737  0.24430  Biso   1.000  F
  F3       1.0000 0.37551  0.61711  0.96920  Biso   1.000  F
  F4       1.0000 0.48097  0.75264  0.96260  Biso   1.000  F
  O1       1.0000 0.45002  0.93487  0.95060  Biso   1.000  O
  O2       1.0000 0.44135  0.93656  0.27260  Biso   1.000  O
  O3       1.0000 0.15338  0.58776  0.26260  Biso   1.000  O
  O4       1.0000 0.17047  0.57706  0.94150  Biso   1.000  O
  C9       1.0000 0.57911  0.09277  0.61040  Biso   1.000  C
  C10      1.0000 0.64091  0.16886  0.60580  Biso   1.000  C
  C11      1.0000 0.73230  0.16812  0.67710  Biso   1.000  C
  C12      1.0000 0.78780  0.23793  0.67460  Biso   1.000  C
  C13      1.0000 0.75469  0.31159  0.60200  Biso   1.000  C
  C14      1.0000 0.81531  0.38836  0.60150  Biso   1.000  C
  C15      1.0000 0.66267  0.31239  0.53300  Biso   1.000  C
  C16      1.0000 0.60750  0.24257  0.53240  Biso   1.000  C
  Ca2      1.0000 0.56871  0.03052  0.11280  Biso   1.000  Ca
  F5       1.0000 0.76886  0.09868  0.74960  Biso   1.000  F
  F6       1.0000 0.87606  0.23263  0.74430  Biso   1.000  F
  F7       1.0000 0.62449  0.38289  0.46920  Biso   1.000  F
  F8       1.0000 0.51903  0.24736  0.46260  Biso   1.000  F
  O5       1.0000 0.54998  0.06513  0.45060  Biso   1.000  O
  O6       1.0000 0.55865  0.06344  0.77260  Biso   1.000  O
  O7       1.0000 0.84662  0.41224  0.76260  Biso   1.000  O
  O8       1.0000 0.82953  0.42294  0.44150  Biso   1.000  O
  C17      1.0000 0.92089  0.59277  0.11040  Biso   1.000  C
  C18      1.0000 0.85909  0.66886  0.10580  Biso   1.000  C
  C19      1.0000 0.76770  0.66812  0.17710  Biso   1.000  C
  C20      1.0000 0.71220  0.73793  0.17460  Biso   1.000  C
  C21      1.0000 0.74531  0.81159  0.10200  Biso   1.000  C
  C22      1.0000 0.68469  0.88836  0.10150  Biso   1.000  C
  C23      1.0000 0.83733  0.81239  0.03300  Biso   1.000  C
  C24      1.0000 0.89250  0.74257  0.03240  Biso   1.000  C
  Ca3      1.0000 0.93129  0.53052  0.61280  Biso   1.000  Ca
  F9       1.0000 0.73114  0.59868  0.24960  Biso   1.000  F
  F10      1.0000 0.62394  0.73263  0.24430  Biso   1.000  F
  F11      1.0000 0.87551  0.88289  0.96920  Biso   1.000  F
  F12      1.0000 0.98097  0.74736  0.96260  Biso   1.000  F
  O9       1.0000 0.95002  0.56513  0.95060  Biso   1.000  O
  O10      1.0000 0.94135  0.56344  0.27260  Biso   1.000  O
  O11      1.0000 0.65338  0.91224  0.26260  Biso   1.000  O
  O12      1.0000 0.67047  0.92294  0.94150  Biso   1.000  O
  C25      1.0000 0.07911  0.40723  0.61040  Biso   1.000  C
  C26      1.0000 0.14091  0.33114  0.60580  Biso   1.000  C
  C27      1.0000 0.23230  0.33188  0.67710  Biso   1.000  C
  C28      1.0000 0.28780  0.26207  0.67460  Biso   1.000  C
  C29      1.0000 0.25469  0.18841  0.60200  Biso   1.000  C
  C30      1.0000 0.31531  0.11164  0.60150  Biso   1.000  C
  C31      1.0000 0.16267  0.18761  0.53300  Biso   1.000  C
  C32      1.0000 0.10750  0.25743  0.53240  Biso   1.000  C
  Ca4      1.0000 0.06871  0.46948  0.11280  Biso   1.000  Ca
  F13      1.0000 0.26886  0.40132  0.74960  Biso   1.000  F
  F14      1.0000 0.37606  0.26737  0.74430  Biso   1.000  F
  F15      1.0000 0.12449  0.11711  0.46920  Biso   1.000  F
  F16      1.0000 0.01903  0.25264  0.46260  Biso   1.000  F
  O13      1.0000 0.04998  0.43487  0.45060  Biso   1.000  O
  O14      1.0000 0.05865  0.43656  0.77260  Biso   1.000  O
  O15      1.0000 0.34662  0.08776  0.76260  Biso   1.000  O
  O16      1.0000 0.32953  0.07706  0.44150  Biso   1.000  O
