data_image0
_cell_length_a       14.2686
_cell_length_b       16.7326
_cell_length_c       7.0181
_cell_angle_alpha    90
_cell_angle_beta     90
_cell_angle_gamma    90

_symmetry_space_group_name_H-M    "P 1"
_symmetry_int_tables_number       1

loop_
  _symmetry_equiv_pos_as_xyz
  'x, y, z'

loop_
  _atom_site_label
  _atom_site_occupancy
  _atom_site_fract_x
  _atom_site_fract_y
  _atom_site_fract_z
  _atom_site_thermal_displace_type
  _atom_site_B_iso_or_equiv
  _atom_site_type_symbol
  Sr1      1.0000 0.42725  0.53210  0.96686  Biso   1.000  Sr
  F1       1.0000 0.48053  0.74490  0.61690  Biso   1.000  F
  F2       1.0000 0.37575  0.87751  0.61210  Biso   1.000  F
  F3       1.0000 0.12703  0.73259  0.33230  Biso   1.000  F
  F4       1.0000 0.23331  0.60104  0.32840  Biso   1.000  F
  O1       1.0000 0.44000  0.56530  0.31190  Biso   1.000  O
  O2       1.0000 0.44830  0.56820  0.62570  Biso   1.000  O
  O3       1.0000 0.17190  0.91650  0.63150  Biso   1.000  O
  O4       1.0000 0.16050  0.90913  0.31640  Biso   1.000  O
  O5       1.0000 0.21180  0.71400  0.90860  Biso   1.000  O
  O6       1.0000 0.24990  0.58832  0.87650  Biso   1.000  O
  O7       1.0000 0.35210  0.67343  0.97480  Biso   1.000  O
  N1       1.0000 0.26860  0.65910  0.91840  Biso   1.000  N
  C1       1.0000 0.42000  0.59430  0.46900  Biso   1.000  C
  C2       1.0000 0.35980  0.66910  0.47220  Biso   1.000  C
  C3       1.0000 0.39250  0.74040  0.54600  Biso   1.000  C
  C4       1.0000 0.33830  0.80890  0.54580  Biso   1.000  C
  C5       1.0000 0.24740  0.80890  0.47570  Biso   1.000  C
  C6       1.0000 0.18770  0.88420  0.47560  Biso   1.000  C
  C7       1.0000 0.21440  0.73700  0.40130  Biso   1.000  C
  C8       1.0000 0.26960  0.66870  0.40060  Biso   1.000  C
  Sr2      1.0000 0.57275  0.46790  0.46686  Biso   1.000  Sr
  F5       1.0000 0.51947  0.25510  0.11690  Biso   1.000  F
  F6       1.0000 0.62425  0.12249  0.11210  Biso   1.000  F
  F7       1.0000 0.87297  0.26741  0.83230  Biso   1.000  F
  F8       1.0000 0.76669  0.39896  0.82840  Biso   1.000  F
  O8       1.0000 0.56000  0.43470  0.81190  Biso   1.000  O
  O9       1.0000 0.55170  0.43180  0.12570  Biso   1.000  O
  O10      1.0000 0.82810  0.08350  0.13150  Biso   1.000  O
  O11      1.0000 0.83950  0.09087  0.81640  Biso   1.000  O
  O12      1.0000 0.78820  0.28600  0.40860  Biso   1.000  O
  O13      1.0000 0.75010  0.41168  0.37650  Biso   1.000  O
  O14      1.0000 0.64790  0.32657  0.47480  Biso   1.000  O
  N2       1.0000 0.73140  0.34090  0.41840  Biso   1.000  N
  C9       1.0000 0.58000  0.40570  0.96900  Biso   1.000  C
  C10      1.0000 0.64020  0.33090  0.97220  Biso   1.000  C
  C11      1.0000 0.60750  0.25960  0.04600  Biso   1.000  C
  C12      1.0000 0.66170  0.19110  0.04580  Biso   1.000  C
  C13      1.0000 0.75260  0.19110  0.97570  Biso   1.000  C
  C14      1.0000 0.81230  0.11580  0.97560  Biso   1.000  C
  C15      1.0000 0.78560  0.26300  0.90130  Biso   1.000  C
  C16      1.0000 0.73040  0.33130  0.90060  Biso   1.000  C
  Sr3      1.0000 0.92725  0.96790  0.96686  Biso   1.000  Sr
  F9       1.0000 0.98053  0.75510  0.61690  Biso   1.000  F
  F10      1.0000 0.87575  0.62249  0.61210  Biso   1.000  F
  F11      1.0000 0.62703  0.76741  0.33230  Biso   1.000  F
  F12      1.0000 0.73331  0.89896  0.32840  Biso   1.000  F
  O15      1.0000 0.94000  0.93470  0.31190  Biso   1.000  O
  O16      1.0000 0.94830  0.93180  0.62570  Biso   1.000  O
  O17      1.0000 0.67190  0.58350  0.63150  Biso   1.000  O
  O18      1.0000 0.66050  0.59087  0.31640  Biso   1.000  O
  O19      1.0000 0.71180  0.78600  0.90860  Biso   1.000  O
  O20      1.0000 0.74990  0.91168  0.87650  Biso   1.000  O
  O21      1.0000 0.85210  0.82657  0.97480  Biso   1.000  O
  N3       1.0000 0.76860  0.84090  0.91840  Biso   1.000  N
  C17      1.0000 0.92000  0.90570  0.46900  Biso   1.000  C
  C18      1.0000 0.85980  0.83090  0.47220  Biso   1.000  C
  C19      1.0000 0.89250  0.75960  0.54600  Biso   1.000  C
  C20      1.0000 0.83830  0.69110  0.54580  Biso   1.000  C
  C21      1.0000 0.74740  0.69110  0.47570  Biso   1.000  C
  C22      1.0000 0.68770  0.61580  0.47560  Biso   1.000  C
  C23      1.0000 0.71440  0.76300  0.40130  Biso   1.000  C
  C24      1.0000 0.76960  0.83130  0.40060  Biso   1.000  C
  Sr4      1.0000 0.07275  0.03210  0.46686  Biso   1.000  Sr
  F13      1.0000 0.01947  0.24490  0.11690  Biso   1.000  F
  F14      1.0000 0.12425  0.37751  0.11210  Biso   1.000  F
  F15      1.0000 0.37297  0.23259  0.83230  Biso   1.000  F
  F16      1.0000 0.26669  0.10104  0.82840  Biso   1.000  F
  O22      1.0000 0.06000  0.06530  0.81190  Biso   1.000  O
  O23      1.0000 0.05170  0.06820  0.12570  Biso   1.000  O
  O24      1.0000 0.32810  0.41650  0.13150  Biso   1.000  O
  O25      1.0000 0.33950  0.40913  0.81640  Biso   1.000  O
  O26      1.0000 0.28820  0.21400  0.40860  Biso   1.000  O
  O27      1.0000 0.25010  0.08832  0.37650  Biso   1.000  O
  O28      1.0000 0.14790  0.17343  0.47480  Biso   1.000  O
  N4       1.0000 0.23140  0.15910  0.41840  Biso   1.000  N
  C25      1.0000 0.08000  0.09430  0.96900  Biso   1.000  C
  C26      1.0000 0.14020  0.16910  0.97220  Biso   1.000  C
  C27      1.0000 0.10750  0.24040  0.04600  Biso   1.000  C
  C28      1.0000 0.16170  0.30890  0.04580  Biso   1.000  C
  C29      1.0000 0.25260  0.30890  0.97570  Biso   1.000  C
  C30      1.0000 0.31230  0.38420  0.97560  Biso   1.000  C
  C31      1.0000 0.28560  0.23700  0.90130  Biso   1.000  C
  C32      1.0000 0.23040  0.16870  0.90060  Biso   1.000  C
