data_image0
_cell_length_a       19.0913
_cell_length_b       19.0913
_cell_length_c       11.7929
_cell_angle_alpha    90
_cell_angle_beta     90
_cell_angle_gamma    120

_symmetry_space_group_name_H-M    "P 1"
_symmetry_int_tables_number       1

loop_
  _symmetry_equiv_pos_as_xyz
  'x, y, z'

loop_
  _atom_site_label
  _atom_site_occupancy
  _atom_site_fract_x
  _atom_site_fract_y
  _atom_site_fract_z
  _atom_site_thermal_displace_type
  _atom_site_B_iso_or_equiv
  _atom_site_type_symbol
  C1       1.0000 0.36960  0.78470  0.30560  Biso   1.000  C
  C2       1.0000 0.38140  0.73640  0.21600  Biso   1.000  C
  H1       1.0000 0.37040  0.75170  0.14250  Biso   1.000  H
  H2       1.0000 0.34280  0.67950  0.22760  Biso   1.000  H
  C3       1.0000 0.46570  0.74830  0.21520  Biso   1.000  C
  H3       1.0000 0.47440  0.73070  0.28840  Biso   1.000  H
  H4       1.0000 0.46660  0.71170  0.15900  Biso   1.000  H
  C4       1.0000 0.53560  0.82880  0.19300  Biso   1.000  C
  C5       1.0000 0.44230  0.56270  0.05040  Biso   1.000  C
  C6       1.0000 0.41210  0.52040  0.15440  Biso   1.000  C
  H5       1.0000 0.37850  0.46360  0.13550  Biso   1.000  H
  H6       1.0000 0.37640  0.53790  0.18590  Biso   1.000  H
  C7       1.0000 0.47090  0.52570  0.25360  Biso   1.000  C
  H7       1.0000 0.49180  0.57770  0.29060  Biso   1.000  H
  H8       1.0000 0.43920  0.48440  0.30920  Biso   1.000  H
  C8       1.0000 0.54160  0.51590  0.22020  Biso   1.000  C
  C9       1.0000 0.75500  0.28630  0.30590  Biso   1.000  C
  C10      1.0000 0.71410  0.27220  0.19480  Biso   1.000  C
  H9       1.0000 0.74610  0.26260  0.13960  Biso   1.000  H
  H10      1.0000 0.71550  0.32180  0.17280  Biso   1.000  H
  C11      1.0000 0.62610  0.20280  0.18440  Biso   1.000  C
  H11      1.0000 0.59330  0.20080  0.24840  Biso   1.000  H
  H12      1.0000 0.60100  0.20550  0.11420  Biso   1.000  H
  C12      1.0000 0.64340  0.13300  0.18520  Biso   1.000  C
  C13      1.0000 0.79600  0.54650  0.34490  Biso   1.000  C
  C14      1.0000 0.86470  0.56840  0.42150  Biso   1.000  C
  H13      1.0000 0.91540  0.60710  0.38610  Biso   1.000  H
  H14      1.0000 0.86760  0.52100  0.44380  Biso   1.000  H
  C15      1.0000 0.84600  0.60500  0.52110  Biso   1.000  C
  H15      1.0000 0.88670  0.61830  0.57920  Biso   1.000  H
  H16      1.0000 0.79400  0.56570  0.55260  Biso   1.000  H
  C16      1.0000 0.84370  0.68420  0.48730  Biso   1.000  C
  C17      1.0000 0.89460  0.90540  0.26860  Biso   1.000  C
  C18      1.0000 0.91230  0.94890  0.15320  Biso   1.000  C
  H17      1.0000 0.87390  0.91060  0.09930  Biso   1.000  H
  H18      1.0000 0.96550  0.95990  0.12960  Biso   1.000  H
  C19      1.0000 0.91050  0.03140  0.13890  Biso   1.000  C
  H19      1.0000 0.94600  0.07090  0.19410  Biso   1.000  H
  H20      1.0000 0.92880  0.05350  0.06360  Biso   1.000  H
  C20      1.0000 0.82850  0.01360  0.15600  Biso   1.000  C
  C21      1.0000 0.78100  0.87930  0.64520  Biso   1.000  C
  C22      1.0000 0.75790  0.91510  0.73700  Biso   1.000  C
  H21      1.0000 0.71190  0.91860  0.70970  Biso   1.000  H
  H22      1.0000 0.80200  0.97020  0.74530  Biso   1.000  H
  C23      1.0000 0.73640  0.88000  0.85560  Biso   1.000  C
  H23      1.0000 0.77420  0.86350  0.88140  Biso   1.000  H
  H24      1.0000 0.73750  0.91950  0.90830  Biso   1.000  H
  C24      1.0000 0.65290  0.80850  0.84690  Biso   1.000  C
  O1       1.0000 0.41010  0.81430  0.39040  Biso   1.000  O
  O2       1.0000 0.30660  0.79860  0.31980  Biso   1.000  O
  O3       1.0000 0.60830  0.84530  0.20260  Biso   1.000  O
  O4       1.0000 0.51720  0.88070  0.15590  Biso   1.000  O
  H25      1.0000 0.48080  0.88670  0.20710  Biso   1.000  H
  O5       1.0000 0.41160  0.55530  0.96100  Biso   1.000  O
  O6       1.0000 0.51210  0.62910  0.04180  Biso   1.000  O
  H26      1.0000 0.55710  0.62030  0.05690  Biso   1.000  H
  O7       1.0000 0.55090  0.49430  0.11590  Biso   1.000  O
  O8       1.0000 0.59010  0.53340  0.29900  Biso   1.000  O
  O9       1.0000 0.81840  0.35190  0.31210  Biso   1.000  O
  O10      1.0000 0.71890  0.23900  0.39610  Biso   1.000  O
  O11      1.0000 0.70780  0.13500  0.17230  Biso   1.000  O
  O12      1.0000 0.58480  0.06170  0.16600  Biso   1.000  O
  O13      1.0000 0.73540  0.54660  0.36990  Biso   1.000  O
  O14      1.0000 0.80810  0.51900  0.25010  Biso   1.000  O
  O15      1.0000 0.81510  0.70270  0.56900  Biso   1.000  O
  O16      1.0000 0.86770  0.72360  0.40310  Biso   1.000  O
  H27      1.0000 0.83660  0.69410  0.33710  Biso   1.000  H
  O17      1.0000 0.87390  0.83580  0.27090  Biso   1.000  O
  O18      1.0000 0.88160  0.94300  0.35310  Biso   1.000  O
  O19      1.0000 0.76560  0.94620  0.18190  Biso   1.000  O
  O20      1.0000 0.81610  0.07300  0.15490  Biso   1.000  O
  O21      1.0000 0.78990  0.91610  0.55800  Biso   1.000  O
  O22      1.0000 0.79390  0.82020  0.67230  Biso   1.000  O
  O23      1.0000 0.61640  0.78970  0.76270  Biso   1.000  O
  O24      1.0000 0.64490  0.76340  0.93570  Biso   1.000  O
  U1       1.0000 0.51180  0.66758  0.85105  Biso   1.000  U
  U2       1.0000 0.67882  0.50607  0.18216  Biso   1.000  U
  U3       1.0000 0.83508  0.82871  0.46676  Biso   1.000  U
  U4       1.0000 0.66754  0.98966  0.17476  Biso   1.000  U
  H28      1.0000 0.80850  0.46840  0.25320  Biso   1.000  H
  C25      1.0000 0.21530  0.58490  0.97227  Biso   1.000  C
  C26      1.0000 0.26360  0.64500  0.88267  Biso   1.000  C
  H29      1.0000 0.24830  0.61870  0.80917  Biso   1.000  H
  H30      1.0000 0.32050  0.66330  0.89427  Biso   1.000  H
  C27      1.0000 0.25170  0.71740  0.88187  Biso   1.000  C
  H31      1.0000 0.26930  0.74370  0.95507  Biso   1.000  H
  H32      1.0000 0.28830  0.75490  0.82567  Biso   1.000  H
  C28      1.0000 0.17120  0.70680  0.85967  Biso   1.000  C
  C29      1.0000 0.43730  0.87960  0.71707  Biso   1.000  C
  C30      1.0000 0.47960  0.89170  0.82107  Biso   1.000  C
  H33      1.0000 0.53640  0.91490  0.80217  Biso   1.000  H
  H34      1.0000 0.46210  0.83850  0.85257  Biso   1.000  H
  C31      1.0000 0.47430  0.94520  0.92027  Biso   1.000  C
  H35      1.0000 0.42230  0.91410  0.95727  Biso   1.000  H
  H36      1.0000 0.51560  0.95480  0.97587  Biso   1.000  H
  C32      1.0000 0.48410  0.02570  0.88687  Biso   1.000  C
  C33      1.0000 0.71370  0.46870  0.97257  Biso   1.000  C
  C34      1.0000 0.72780  0.44190  0.86147  Biso   1.000  C
  H37      1.0000 0.73740  0.48350  0.80627  Biso   1.000  H
  H38      1.0000 0.67820  0.39370  0.83947  Biso   1.000  H
  C35      1.0000 0.79720  0.42330  0.85107  Biso   1.000  C
  H39      1.0000 0.79920  0.39250  0.91507  Biso   1.000  H
  H40      1.0000 0.79450  0.39550  0.78087  Biso   1.000  H
  C36      1.0000 0.86700  0.51040  0.85187  Biso   1.000  C
  C37      1.0000 0.45350  0.24950  0.01157  Biso   1.000  C
  C38      1.0000 0.43160  0.29630  0.08817  Biso   1.000  C
  H41      1.0000 0.39290  0.30830  0.05277  Biso   1.000  H
  H42      1.0000 0.47900  0.34660  0.11047  Biso   1.000  H
  C39      1.0000 0.39500  0.24100  0.18777  Biso   1.000  C
  H43      1.0000 0.38170  0.26840  0.24587  Biso   1.000  H
  H44      1.0000 0.43430  0.22830  0.21927  Biso   1.000  H
  C40      1.0000 0.31580  0.15950  0.15397  Biso   1.000  C
  C41      1.0000 0.09460  0.98920  0.93527  Biso   1.000  C
  C42      1.0000 0.05110  0.96340  0.81987  Biso   1.000  C
  H45      1.0000 0.08940  0.96330  0.76597  Biso   1.000  H
  H46      1.0000 0.04010  0.00560  0.79627  Biso   1.000  H
  C43      1.0000 0.96860  0.87910  0.80557  Biso   1.000  C
  H47      1.0000 0.92910  0.87510  0.86077  Biso   1.000  H
  H48      1.0000 0.94650  0.87530  0.73027  Biso   1.000  H
  C44      1.0000 0.98640  0.81490  0.82267  Biso   1.000  C
  C45      1.0000 0.12070  0.90170  0.31187  Biso   1.000  C
  C46      1.0000 0.08490  0.84280  0.40367  Biso   1.000  C
  H49      1.0000 0.08140  0.79330  0.37637  Biso   1.000  H
  H50      1.0000 0.02980  0.83180  0.41197  Biso   1.000  H
  C47      1.0000 0.12000  0.85640  0.52227  Biso   1.000  C
  H51      1.0000 0.13650  0.91070  0.54807  Biso   1.000  H
  H52      1.0000 0.08050  0.81800  0.57497  Biso   1.000  H
  C48      1.0000 0.19150  0.84440  0.51357  Biso   1.000  C
  O25      1.0000 0.18570  0.59580  0.05707  Biso   1.000  O
  O26      1.0000 0.20140  0.50800  0.98647  Biso   1.000  O
  O27      1.0000 0.15470  0.76300  0.86927  Biso   1.000  O
  O28      1.0000 0.11930  0.63650  0.82257  Biso   1.000  O
  H53      1.0000 0.11330  0.59410  0.87377  Biso   1.000  H
  O29      1.0000 0.44470  0.85630  0.62767  Biso   1.000  O
  O30      1.0000 0.37090  0.88300  0.70847  Biso   1.000  O
  H54      1.0000 0.37970  0.93680  0.72357  Biso   1.000  H
  O31      1.0000 0.50570  0.05660  0.78257  Biso   1.000  O
  O32      1.0000 0.46660  0.05670  0.96567  Biso   1.000  O
  O33      1.0000 0.64810  0.46650  0.97877  Biso   1.000  O
  O34      1.0000 0.76100  0.47990  0.06277  Biso   1.000  O
  O35      1.0000 0.86500  0.57280  0.83897  Biso   1.000  O
  O36      1.0000 0.93830  0.52310  0.83267  Biso   1.000  O
  O37      1.0000 0.45340  0.18880  0.03657  Biso   1.000  O
  O38      1.0000 0.48100  0.28910  0.91677  Biso   1.000  O
  O39      1.0000 0.29730  0.11240  0.23567  Biso   1.000  O
  O40      1.0000 0.27640  0.14410  0.06977  Biso   1.000  O
  H55      1.0000 0.30590  0.14250  0.00377  Biso   1.000  H
  O41      1.0000 0.16420  0.03810  0.93757  Biso   1.000  O
  O42      1.0000 0.05700  0.93860  0.01977  Biso   1.000  O
  O43      1.0000 0.05380  0.81940  0.84857  Biso   1.000  O
  O44      1.0000 0.92700  0.74310  0.82157  Biso   1.000  O
  O45      1.0000 0.08390  0.87380  0.22467  Biso   1.000  O
  O46      1.0000 0.17980  0.97370  0.33897  Biso   1.000  O
  O47      1.0000 0.21030  0.82670  0.42937  Biso   1.000  O
  O48      1.0000 0.23660  0.88150  0.60237  Biso   1.000  O
  U5       1.0000 0.33242  0.84422  0.51772  Biso   1.000  U
  U6       1.0000 0.49393  0.17275  0.84883  Biso   1.000  U
  U7       1.0000 0.17129  0.00637  0.13343  Biso   1.000  U
  U8       1.0000 0.01034  0.67788  0.84143  Biso   1.000  U
  H56      1.0000 0.53160  0.34010  0.91987  Biso   1.000  H
  C49      1.0000 0.41510  0.63040  0.63893  Biso   1.000  C
  C50      1.0000 0.35500  0.61860  0.54933  Biso   1.000  C
  H57      1.0000 0.38130  0.62960  0.47583  Biso   1.000  H
  H58      1.0000 0.33670  0.65720  0.56093  Biso   1.000  H
  C51      1.0000 0.28260  0.53430  0.54853  Biso   1.000  C
  H59      1.0000 0.25630  0.52560  0.62173  Biso   1.000  H
  H60      1.0000 0.24510  0.53340  0.49233  Biso   1.000  H
  C52      1.0000 0.29320  0.46440  0.52633  Biso   1.000  C
  C53      1.0000 0.12040  0.55770  0.38373  Biso   1.000  C
  C54      1.0000 0.10830  0.58790  0.48773  Biso   1.000  C
  H61      1.0000 0.08510  0.62150  0.46883  Biso   1.000  H
  H62      1.0000 0.16150  0.62360  0.51923  Biso   1.000  H
  C55      1.0000 0.05480  0.52910  0.58693  Biso   1.000  C
  H63      1.0000 0.08590  0.50820  0.62393  Biso   1.000  H
  H64      1.0000 0.04520  0.56080  0.64253  Biso   1.000  H
  C56      1.0000 0.97430  0.45840  0.55353  Biso   1.000  C
  C57      1.0000 0.53130  0.24500  0.63923  Biso   1.000  C
  C58      1.0000 0.55810  0.28590  0.52813  Biso   1.000  C
  H65      1.0000 0.51650  0.25390  0.47293  Biso   1.000  H
  H66      1.0000 0.60630  0.28450  0.50613  Biso   1.000  H
  C59      1.0000 0.57670  0.37390  0.51773  Biso   1.000  C
  H67      1.0000 0.60750  0.40670  0.58173  Biso   1.000  H
  H68      1.0000 0.60450  0.39900  0.44753  Biso   1.000  H
  C60      1.0000 0.48960  0.35660  0.51853  Biso   1.000  C
  C61      1.0000 0.75050  0.20400  0.67823  Biso   1.000  C
  C62      1.0000 0.70370  0.13530  0.75483  Biso   1.000  C
  H69      1.0000 0.69170  0.08460  0.71943  Biso   1.000  H
  H70      1.0000 0.65340  0.13240  0.77713  Biso   1.000  H
  C63      1.0000 0.75900  0.15400  0.85443  Biso   1.000  C
  H71      1.0000 0.73160  0.11330  0.91253  Biso   1.000  H
  H72      1.0000 0.77170  0.20600  0.88593  Biso   1.000  H
  C64      1.0000 0.84050  0.15630  0.82063  Biso   1.000  C
  C65      1.0000 0.01080  0.10540  0.60193  Biso   1.000  C
  C66      1.0000 0.03660  0.08770  0.48653  Biso   1.000  C
  H73      1.0000 0.03670  0.12610  0.43263  Biso   1.000  H
  H74      1.0000 0.99440  0.03450  0.46293  Biso   1.000  H
  C67      1.0000 0.12090  0.08950  0.47223  Biso   1.000  C
  H75      1.0000 0.12490  0.05400  0.52743  Biso   1.000  H
  H76      1.0000 0.12470  0.07120  0.39693  Biso   1.000  H
  C68      1.0000 0.18510  0.17150  0.48933  Biso   1.000  C
  C69      1.0000 0.09830  0.21900  0.97853  Biso   1.000  C
  C70      1.0000 0.15720  0.24210  0.07033  Biso   1.000  C
  H77      1.0000 0.20670  0.28810  0.04303  Biso   1.000  H
  H78      1.0000 0.16820  0.19800  0.07863  Biso   1.000  H
  C71      1.0000 0.14360  0.26360  0.18893  Biso   1.000  C
  H79      1.0000 0.08930  0.22580  0.21473  Biso   1.000  H
  H80      1.0000 0.18200  0.26250  0.24163  Biso   1.000  H
  C72      1.0000 0.15560  0.34710  0.18023  Biso   1.000  C
  O49      1.0000 0.40420  0.58990  0.72373  Biso   1.000  O
  O50      1.0000 0.49200  0.69340  0.65313  Biso   1.000  O
  O51      1.0000 0.23700  0.39170  0.53593  Biso   1.000  O
  O52      1.0000 0.36350  0.48280  0.48923  Biso   1.000  O
  H81      1.0000 0.40590  0.51920  0.54043  Biso   1.000  H
  O53      1.0000 0.14370  0.58840  0.29433  Biso   1.000  O
  O54      1.0000 0.11700  0.48790  0.37513  Biso   1.000  O
  H82      1.0000 0.06320  0.44290  0.39023  Biso   1.000  H
  O55      1.0000 0.94340  0.44910  0.44923  Biso   1.000  O
  O56      1.0000 0.94330  0.40990  0.63233  Biso   1.000  O
  O57      1.0000 0.53350  0.18160  0.64543  Biso   1.000  O
  O58      1.0000 0.52010  0.28110  0.72943  Biso   1.000  O
  O59      1.0000 0.42720  0.29220  0.50563  Biso   1.000  O
  O60      1.0000 0.47690  0.41520  0.49933  Biso   1.000  O
  O61      1.0000 0.81120  0.26460  0.70323  Biso   1.000  O
  O62      1.0000 0.71090  0.19190  0.58343  Biso   1.000  O
  O63      1.0000 0.88760  0.18490  0.90233  Biso   1.000  O
  O64      1.0000 0.85590  0.13230  0.73643  Biso   1.000  O
  H83      1.0000 0.85750  0.16340  0.67043  Biso   1.000  H
  O65      1.0000 0.96190  0.12610  0.60423  Biso   1.000  O
  O66      1.0000 0.06140  0.11840  0.68643  Biso   1.000  O
  O67      1.0000 0.18060  0.23440  0.51523  Biso   1.000  O
  O68      1.0000 0.25690  0.18390  0.48823  Biso   1.000  O
  O69      1.0000 0.12620  0.21010  0.89133  Biso   1.000  O
  O70      1.0000 0.02630  0.20610  0.00563  Biso   1.000  O
  O71      1.0000 0.17330  0.38360  0.09603  Biso   1.000  O
  O72      1.0000 0.11850  0.35510  0.26903  Biso   1.000  O
  U9       1.0000 0.15578  0.48820  0.18438  Biso   1.000  U
  U10      1.0000 0.82725  0.32118  0.51549  Biso   1.000  U
  U11      1.0000 0.99363  0.16492  0.80009  Biso   1.000  U
  U12      1.0000 0.32212  0.33246  0.50809  Biso   1.000  U
  H84      1.0000 0.65990  0.19150  0.58653  Biso   1.000  H
