data_image0
_cell_length_a       12.8432
_cell_length_b       19.5607
_cell_length_c       25.691
_cell_angle_alpha    79.224
_cell_angle_beta     78.864
_cell_angle_gamma    71.244

_symmetry_space_group_name_H-M    "P 1"
_symmetry_int_tables_number       1

loop_
  _symmetry_equiv_pos_as_xyz
  'x, y, z'

loop_
  _atom_site_label
  _atom_site_occupancy
  _atom_site_fract_x
  _atom_site_fract_y
  _atom_site_fract_z
  _atom_site_thermal_displace_type
  _atom_site_B_iso_or_equiv
  _atom_site_type_symbol
  Mn1      1.0000 0.68964  0.37490  0.38288  Biso   1.000  Mn
  Mn2      1.0000 0.74210  0.45115  0.26276  Biso   1.000  Mn
  Mn3      1.0000 0.65876  0.31032  0.27985  Biso   1.000  Mn
  Mn4      1.0000 0.50547  0.46495  0.24321  Biso   1.000  Mn
  Mn5      1.0000 0.53006  0.52976  0.33825  Biso   1.000  Mn
  Mn6      1.0000 0.44389  0.39025  0.35793  Biso   1.000  Mn
  Na1      1.0000 0.91400  0.28803  0.30370  Biso   1.000  Na
  Na2      1.0000 0.44780  0.45384  0.46699  Biso   1.000  Na
  Na3      1.0000 0.57840  0.62490  0.21315  Biso   1.000  Na
  O1       1.0000 0.58900  0.42620  0.30647  Biso   1.000  O
  C1       1.0000 0.78110  0.52670  0.36460  Biso   1.000  C
  C2       1.0000 0.68710  0.51790  0.41020  Biso   1.000  C
  H1       1.0000 0.72040  0.48870  0.44200  Biso   1.000  H
  H2       1.0000 0.64290  0.56670  0.42000  Biso   1.000  H
  O2       1.0000 0.61350  0.48350  0.39691  Biso   1.000  O
  C3       1.0000 0.73480  0.57450  0.31580  Biso   1.000  C
  H3       1.0000 0.69110  0.62320  0.32580  Biso   1.000  H
  H4       1.0000 0.79740  0.58080  0.28810  Biso   1.000  H
  O3       1.0000 0.66430  0.54600  0.29297  Biso   1.000  O
  C4       1.0000 0.85900  0.45230  0.34990  Biso   1.000  C
  H5       1.0000 0.92220  0.46060  0.32330  Biso   1.000  H
  H6       1.0000 0.88940  0.42290  0.38230  Biso   1.000  H
  O4       1.0000 0.80600  0.41140  0.32828  Biso   1.000  O
  C5       1.0000 0.85170  0.56700  0.38310  Biso   1.000  C
  H7       1.0000 0.90050  0.58230  0.35140  Biso   1.000  H
  H8       1.0000 0.80060  0.61170  0.39690  Biso   1.000  H
  C6       1.0000 0.92370  0.52400  0.42570  Biso   1.000  C
  H9       1.0000 0.87700  0.50780  0.45740  Biso   1.000  H
  H10      1.0000 0.96150  0.55500  0.43550  Biso   1.000  H
  H11      1.0000 0.97920  0.48150  0.41170  Biso   1.000  H
  C7       1.0000 0.72440  0.38690  0.15120  Biso   1.000  C
  C8       1.0000 0.62130  0.36020  0.16720  Biso   1.000  C
  H12      1.0000 0.56560  0.38860  0.14350  Biso   1.000  H
  H13      1.0000 0.64230  0.30850  0.16170  Biso   1.000  H
  O5       1.0000 0.57100  0.36690  0.22251  Biso   1.000  O
  C9       1.0000 0.81440  0.34390  0.18630  Biso   1.000  C
  H14      1.0000 0.83650  0.29180  0.18170  Biso   1.000  H
  H15      1.0000 0.88060  0.36130  0.17380  Biso   1.000  H
  O6       1.0000 0.78030  0.35040  0.24246  Biso   1.000  O
  C10      1.0000 0.69570  0.46910  0.15390  Biso   1.000  C
  H16      1.0000 0.76380  0.48430  0.14120  Biso   1.000  H
  H17      1.0000 0.64120  0.49610  0.12920  Biso   1.000  H
  O7       1.0000 0.65130  0.48890  0.20581  Biso   1.000  O
  C11      1.0000 0.77620  0.37080  0.09290  Biso   1.000  C
  H18      1.0000 0.84700  0.38320  0.08380  Biso   1.000  H
  H19      1.0000 0.79390  0.31790  0.09200  Biso   1.000  H
  C12      1.0000 0.70360  0.41140  0.04990  Biso   1.000  C
  H20      1.0000 0.69960  0.46310  0.04440  Biso   1.000  H
  H21      1.0000 0.62870  0.40650  0.06120  Biso   1.000  H
  H22      1.0000 0.73570  0.39090  0.01630  Biso   1.000  H
  C13      1.0000 0.60460  0.22050  0.40380  Biso   1.000  C
  C14      1.0000 0.72250  0.21890  0.37870  Biso   1.000  C
  H23      1.0000 0.76820  0.21000  0.40760  Biso   1.000  H
  H24      1.0000 0.75410  0.17770  0.35750  Biso   1.000  H
  O8       1.0000 0.73020  0.28440  0.34475  Biso   1.000  O
  C15      1.0000 0.55430  0.28080  0.44050  Biso   1.000  C
  H25      1.0000 0.48060  0.27720  0.45880  Biso   1.000  H
  H26      1.0000 0.60240  0.27150  0.46850  Biso   1.000  H
  O9       1.0000 0.54140  0.35370  0.41374  Biso   1.000  O
  C16      1.0000 0.53250  0.23070  0.36160  Biso   1.000  C
  H27      1.0000 0.56340  0.18930  0.34060  Biso   1.000  H
  H28      1.0000 0.45730  0.22970  0.37950  Biso   1.000  H
  O10      1.0000 0.52290  0.29700  0.32600  Biso   1.000  O
  C17      1.0000 0.60750  0.14760  0.44120  Biso   1.000  C
  H29      1.0000 0.63570  0.14870  0.47410  Biso   1.000  H
  H30      1.0000 0.53030  0.14520  0.45170  Biso   1.000  H
  C18      1.0000 0.67830  0.07720  0.41770  Biso   1.000  C
  H31      1.0000 0.66200  0.07970  0.38160  Biso   1.000  H
  H32      1.0000 0.66070  0.03520  0.44060  Biso   1.000  H
  H33      1.0000 0.75730  0.07210  0.41610  Biso   1.000  H
  C19      1.0000 0.26340  0.55490  0.31980  Biso   1.000  C
  C20      1.0000 0.33600  0.59660  0.28090  Biso   1.000  C
  H34      1.0000 0.31160  0.60730  0.24520  Biso   1.000  H
  H35      1.0000 0.32450  0.64360  0.29350  Biso   1.000  H
  O11      1.0000 0.45350  0.55730  0.27557  Biso   1.000  O
  C21      1.0000 0.29480  0.53880  0.37440  Biso   1.000  C
  H36      1.0000 0.28540  0.58550  0.38720  Biso   1.000  H
  H37      1.0000 0.24300  0.51500  0.39870  Biso   1.000  H
  O12      1.0000 0.40640  0.49310  0.37795  Biso   1.000  O
  C22      1.0000 0.27060  0.48480  0.29810  Biso   1.000  C
  H38      1.0000 0.21740  0.46160  0.32180  Biso   1.000  H
  H39      1.0000 0.24700  0.49850  0.26220  Biso   1.000  H
  O13      1.0000 0.37710  0.43300  0.29420  Biso   1.000  O
  C23      1.0000 0.14050  0.60290  0.31980  Biso   1.000  C
  H40      1.0000 0.12410  0.61330  0.28260  Biso   1.000  H
  H41      1.0000 0.09210  0.57410  0.34100  Biso   1.000  H
  C24      1.0000 0.10890  0.67490  0.34180  Biso   1.000  C
  H42      1.0000 0.12400  0.66570  0.37890  Biso   1.000  H
  H43      1.0000 0.02960  0.69970  0.34090  Biso   1.000  H
  H44      1.0000 0.15260  0.70560  0.32000  Biso   1.000  H
  C25      1.0000 0.98200  0.43340  0.22180  Biso   1.000  C
  O14      1.0000 0.00780  0.37010  0.24140  Biso   1.000  O
  O15      1.0000 0.88020  0.47490  0.22060  Biso   1.000  O
  C26      1.0000 0.06630  0.47140  0.19520  Biso   1.000  C
  H45      1.0000 0.14030  0.44070  0.20270  Biso   1.000  H
  H46      1.0000 0.04880  0.51780  0.20910  Biso   1.000  H
  H47      1.0000 0.06520  0.48060  0.15650  Biso   1.000  H
  C27      1.0000 0.81820  0.17600  0.24000  Biso   1.000  C
  O16      1.0000 0.88760  0.18160  0.26620  Biso   1.000  O
  O17      1.0000 0.71540  0.21240  0.24634  Biso   1.000  O
  C28      1.0000 0.85780  0.12710  0.19690  Biso   1.000  C
  H48      1.0000 0.92160  0.13830  0.17330  Biso   1.000  H
  H49      1.0000 0.79770  0.13500  0.17610  Biso   1.000  H
  H50      1.0000 0.88000  0.07610  0.21340  Biso   1.000  H
  C29      1.0000 0.27220  0.37050  0.45180  Biso   1.000  C
  O18      1.0000 0.30540  0.40080  0.48000  Biso   1.000  O
  O19      1.0000 0.31210  0.36230  0.40270  Biso   1.000  O
  C30      1.0000 0.17610  0.33990  0.47340  Biso   1.000  C
  H51      1.0000 0.14520  0.35250  0.50950  Biso   1.000  H
  H52      1.0000 0.20200  0.28680  0.47470  Biso   1.000  H
  H53      1.0000 0.11850  0.36060  0.45000  Biso   1.000  H
  C31      1.0000 0.45750  0.69080  0.34410  Biso   1.000  C
  O20      1.0000 0.48960  0.70110  0.29580  Biso   1.000  O
  O21      1.0000 0.46370  0.62730  0.37045  Biso   1.000  O
  C32      1.0000 0.41300  0.75360  0.37630  Biso   1.000  C
  H54      1.0000 0.47460  0.77000  0.38130  Biso   1.000  H
  H55      1.0000 0.37550  0.73790  0.41140  Biso   1.000  H
  H56      1.0000 0.36000  0.79380  0.35730  Biso   1.000  H
  C33      1.0000 0.41430  0.56400  0.15350  Biso   1.000  C
  O22      1.0000 0.46040  0.61040  0.15660  Biso   1.000  O
  O23      1.0000 0.42330  0.50260  0.18370  Biso   1.000  O
  C34      1.0000 0.34350  0.57980  0.10870  Biso   1.000  C
  H57      1.0000 0.26470  0.59170  0.12400  Biso   1.000  H
  H58      1.0000 0.36360  0.53680  0.09040  Biso   1.000  H
  H59      1.0000 0.35670  0.62110  0.08310  Biso   1.000  H
  O24      1.0000 0.41570  0.57820  0.47680  Biso   1.000  O
  H60      1.0000 0.43150  0.59680  0.44530  Biso   1.000  H
  H61      1.0000 0.36840  0.61180  0.49200  Biso   1.000  H
  Mn7      1.0000 0.23412  0.05706  0.15445  Biso   1.000  Mn
  Mn8      1.0000 0.29866  0.96346  0.26136  Biso   1.000  Mn
  Mn9      1.0000 0.31171  0.11885  0.24138  Biso   1.000  Mn
  Mn10     1.0000 0.53172  0.98624  0.24411  Biso   1.000  Mn
  Mn11     1.0000 0.45700  0.92283  0.15663  Biso   1.000  Mn
  Mn12     1.0000 0.47560  0.08855  0.13268  Biso   1.000  Mn
  Na4      1.0000 0.05880  0.10401  0.27771  Biso   1.000  Na
  Na5      1.0000 0.37760  0.02656  0.03759  Biso   1.000  Na
  Na6      1.0000 0.55280  0.79581  0.25453  Biso   1.000  Na
  Na7      1.0000 0.58390  0.15558  0.21968  Biso   1.000  Na
  O25      1.0000 0.37540  0.01910  0.20465  Biso   1.000  O
  C35      1.0000 0.20880  0.88560  0.17480  Biso   1.000  C
  C36      1.0000 0.25940  0.91470  0.12030  Biso   1.000  C
  H62      1.0000 0.31000  0.87320  0.10230  Biso   1.000  H
  H63      1.0000 0.19930  0.94020  0.09820  Biso   1.000  H
  O26      1.0000 0.32060  0.96440  0.12262  Biso   1.000  O
  C37      1.0000 0.12400  0.94810  0.20280  Biso   1.000  C
  H64      1.0000 0.06480  0.97300  0.18020  Biso   1.000  H
  H65      1.0000 0.08900  0.92700  0.23710  Biso   1.000  H
  O27      1.0000 0.16960  0.00130  0.21340  Biso   1.000  O
  C38      1.0000 0.29780  0.84130  0.20950  Biso   1.000  C
  H66      1.0000 0.26090  0.82340  0.24450  Biso   1.000  H
  H67      1.0000 0.34430  0.79810  0.19220  Biso   1.000  H
  O28      1.0000 0.36930  0.88000  0.21877  Biso   1.000  O
  C39      1.0000 0.14170  0.83570  0.16660  Biso   1.000  C
  H68      1.0000 0.10350  0.82070  0.20220  Biso   1.000  H
  H69      1.0000 0.08320  0.86600  0.14480  Biso   1.000  H
  C40      1.0000 0.19770  0.77250  0.14260  Biso   1.000  C
  H70      1.0000 0.21670  0.78590  0.10400  Biso   1.000  H
  H71      1.0000 0.14980  0.74080  0.14870  Biso   1.000  H
  H72      1.0000 0.26590  0.74660  0.15830  Biso   1.000  H
  C41      1.0000 0.37570  0.02330  0.36310  Biso   1.000  C
  C42      1.0000 0.44230  0.07440  0.33140  Biso   1.000  C
  H73      1.0000 0.40610  0.12380  0.34160  Biso   1.000  H
  H74      1.0000 0.51780  0.05730  0.34180  Biso   1.000  H
  O29      1.0000 0.45180  0.07850  0.27518  Biso   1.000  O
  C43      1.0000 0.25750  0.04870  0.35110  Biso   1.000  C
  H75      1.0000 0.21790  0.01440  0.37220  Biso   1.000  H
  H76      1.0000 0.22010  0.09700  0.36330  Biso   1.000  H
  O30      1.0000 0.24730  0.05440  0.29540  Biso   1.000  O
  C44      1.0000 0.43160  0.94510  0.35180  Biso   1.000  C
  H77      1.0000 0.50590  0.92810  0.36340  Biso   1.000  H
  H78      1.0000 0.38740  0.91400  0.37360  Biso   1.000  H
  O31      1.0000 0.44420  0.93550  0.29649  Biso   1.000  O
  C45      1.0000 0.37100  0.02260  0.42370  Biso   1.000  C
  H79      1.0000 0.33090  0.98770  0.44310  Biso   1.000  H
  H80      1.0000 0.44810  0.00340  0.43210  Biso   1.000  H
  C46      1.0000 0.31660  0.09500  0.44640  Biso   1.000  C
  H81      1.0000 0.35330  0.13110  0.42700  Biso   1.000  H
  H82      1.0000 0.32390  0.08780  0.48450  Biso   1.000  H
  H83      1.0000 0.23770  0.11250  0.44220  Biso   1.000  H
  C47      1.0000 0.23210  0.23340  0.12950  Biso   1.000  C
  C48      1.0000 0.27280  0.18430  0.08570  Biso   1.000  C
  H84      1.0000 0.20910  0.18830  0.06770  Biso   1.000  H
  H85      1.0000 0.32760  0.20230  0.05870  Biso   1.000  H
  O32      1.0000 0.32300  0.10890  0.10396  Biso   1.000  O
  C49      1.0000 0.32690  0.23510  0.15560  Biso   1.000  C
  H86      1.0000 0.38020  0.25330  0.12770  Biso   1.000  H
  H87      1.0000 0.29710  0.27040  0.18170  Biso   1.000  H
  O33      1.0000 0.38600  0.16640  0.18253  Biso   1.000  O
  C50      1.0000 0.14440  0.20950  0.17110  Biso   1.000  C
  H88      1.0000 0.11500  0.24480  0.19730  Biso   1.000  H
  H89      1.0000 0.08200  0.21100  0.15310  Biso   1.000  H
  O34      1.0000 0.18440  0.13810  0.19925  Biso   1.000  O
  C51      1.0000 0.17360  0.31130  0.10420  Biso   1.000  C
  H90      1.0000 0.11470  0.30850  0.08560  Biso   1.000  H
  H91      1.0000 0.13650  0.34090  0.13360  Biso   1.000  H
  C52      1.0000 0.24560  0.35190  0.06470  Biso   1.000  C
  H92      1.0000 0.27280  0.38000  0.08390  Biso   1.000  H
  H93      1.0000 0.20150  0.38510  0.03800  Biso   1.000  H
  H94      1.0000 0.30890  0.31680  0.04670  Biso   1.000  H
  C53      1.0000 0.71770  0.94210  0.13200  Biso   1.000  C
  C54      1.0000 0.70510  0.00940  0.15740  Biso   1.000  C
  H95      1.0000 0.75830  0.99590  0.18350  Biso   1.000  H
  H96      1.0000 0.72590  0.04660  0.12910  Biso   1.000  H
  O35      1.0000 0.59510  0.04160  0.18434  Biso   1.000  O
  C55      1.0000 0.68900  0.88260  0.17400  Biso   1.000  C
  H97      1.0000 0.70180  0.83890  0.15660  Biso   1.000  H
  H98      1.0000 0.74000  0.86920  0.20110  Biso   1.000  H
  O36      1.0000 0.57600  0.90260  0.20082  Biso   1.000  O
  C56      1.0000 0.64330  0.96150  0.08730  Biso   1.000  C
  H99      1.0000 0.66560  0.99890  0.05980  Biso   1.000  H
  H100     1.0000 0.65840  0.91750  0.06990  Biso   1.000  H
  O37      1.0000 0.52700  0.98760  0.10394  Biso   1.000  O
  C57      1.0000 0.84000  0.91540  0.10800  Biso   1.000  C
  H101     1.0000 0.85480  0.95160  0.07720  Biso   1.000  H
  H102     1.0000 0.88590  0.91430  0.13520  Biso   1.000  H
  C58      1.0000 0.87740  0.84380  0.08980  Biso   1.000  C
  H103     1.0000 0.86330  0.80720  0.11970  Biso   1.000  H
  H104     1.0000 0.95710  0.83150  0.07650  Biso   1.000  H
  H105     1.0000 0.83670  0.84490  0.06090  Biso   1.000  H
  C59      1.0000 0.11710  0.93150  0.33830  Biso   1.000  C
  O38      1.0000 0.05620  0.99370  0.33130  Biso   1.000  O
  O39      1.0000 0.22120  0.90960  0.31560  Biso   1.000  O
  C60      1.0000 0.08040  0.87250  0.37420  Biso   1.000  C
  H106     1.0000 0.12670  0.85320  0.40290  Biso   1.000  H
  H107     1.0000 0.08760  0.83330  0.35360  Biso   1.000  H
  H108     1.0000 0.00260  0.89170  0.38980  Biso   1.000  H
  C61      1.0000 0.10690  0.08680  0.06300  Biso   1.000  C
  O40      1.0000 0.19010  0.06590  0.03040  Biso   1.000  O
  O41      1.0000 0.10490  0.08620  0.11271  Biso   1.000  O
  C62      1.0000 0.99170  0.11220  0.04500  Biso   1.000  C
  H109     1.0000 0.96650  0.16560  0.03820  Biso   1.000  H
  H110     1.0000 0.93900  0.09500  0.07320  Biso   1.000  H
  H111     1.0000 0.99590  0.09230  0.01210  Biso   1.000  H
  C63      1.0000 0.16230  0.23140  0.30820  Biso   1.000  C
  O42      1.0000 0.25950  0.20640  0.28210  Biso   1.000  O
  O43      1.0000 0.08480  0.20640  0.30955  Biso   1.000  O
  C64      1.0000 0.15050  0.29260  0.33860  Biso   1.000  C
  H112     1.0000 0.14360  0.33790  0.31380  Biso   1.000  H
  H113     1.0000 0.21620  0.28160  0.35640  Biso   1.000  H
  H114     1.0000 0.08400  0.29820  0.36560  Biso   1.000  H
  C65      1.0000 0.61010  0.18380  0.07790  Biso   1.000  C
  O44      1.0000 0.55320  0.14490  0.06886  Biso   1.000  O
  O45      1.0000 0.62330  0.19000  0.12250  Biso   1.000  O
  C66      1.0000 0.66280  0.22250  0.02910  Biso   1.000  C
  H115     1.0000 0.60730  0.26690  0.01600  Biso   1.000  H
  H116     1.0000 0.69140  0.19050  0.00110  Biso   1.000  H
  H117     1.0000 0.72410  0.23540  0.03820  Biso   1.000  H
  C67      1.0000 0.55910  0.77040  0.12700  Biso   1.000  C
  O46      1.0000 0.56150  0.74660  0.17493  Biso   1.000  O
  O47      1.0000 0.52160  0.83850  0.10912  Biso   1.000  O
  C68      1.0000 0.60140  0.71960  0.08460  Biso   1.000  C
  H118     1.0000 0.60650  0.74820  0.04910  Biso   1.000  H
  H119     1.0000 0.55000  0.69100  0.08690  Biso   1.000  H
  H120     1.0000 0.67500  0.68660  0.09060  Biso   1.000  H
  C69      1.0000 0.72420  0.98630  0.29230  Biso   1.000  C
  O48      1.0000 0.66450  0.94780  0.28416  Biso   1.000  O
  O49      1.0000 0.69910  0.05330  0.27910  Biso   1.000  O
  C70      1.0000 0.82370  0.94550  0.31710  Biso   1.000  C
  H121     1.0000 0.86610  0.90400  0.29790  Biso   1.000  H
  H122     1.0000 0.80180  0.92780  0.35460  Biso   1.000  H
  H123     1.0000 0.86980  0.97750  0.31540  Biso   1.000  H
  O50      1.0000 0.50830  0.08630  0.98953  Biso   1.000  O
  H124     1.0000 0.53470  0.10090  0.01110  Biso   1.000  H
  H125     1.0000 0.49220  0.12100  0.96500  Biso   1.000  H
  Mn13     1.0000 0.31036  0.62510  0.61712  Biso   1.000  Mn
  Mn14     1.0000 0.25790  0.54885  0.73724  Biso   1.000  Mn
  Mn15     1.0000 0.34124  0.68968  0.72015  Biso   1.000  Mn
  Mn16     1.0000 0.49453  0.53505  0.75679  Biso   1.000  Mn
  Mn17     1.0000 0.46994  0.47024  0.66175  Biso   1.000  Mn
  Mn18     1.0000 0.55611  0.60975  0.64207  Biso   1.000  Mn
  Na8      1.0000 0.08600  0.71197  0.69630  Biso   1.000  Na
  Na9      1.0000 0.55220  0.54616  0.53301  Biso   1.000  Na
  Na10     1.0000 0.42160  0.37510  0.78685  Biso   1.000  Na
  O51      1.0000 0.41100  0.57380  0.69353  Biso   1.000  O
  C71      1.0000 0.21890  0.47330  0.63540  Biso   1.000  C
  C72      1.0000 0.31290  0.48210  0.58980  Biso   1.000  C
  H126     1.0000 0.27960  0.51130  0.55800  Biso   1.000  H
  H127     1.0000 0.35710  0.43330  0.58000  Biso   1.000  H
  O52      1.0000 0.38650  0.51650  0.60309  Biso   1.000  O
  C73      1.0000 0.26520  0.42550  0.68420  Biso   1.000  C
  H128     1.0000 0.30890  0.37680  0.67420  Biso   1.000  H
  H129     1.0000 0.20260  0.41920  0.71190  Biso   1.000  H
  O53      1.0000 0.33570  0.45400  0.70703  Biso   1.000  O
  C74      1.0000 0.14100  0.54770  0.65010  Biso   1.000  C
  H130     1.0000 0.07780  0.53940  0.67670  Biso   1.000  H
  H131     1.0000 0.11060  0.57710  0.61770  Biso   1.000  H
  O54      1.0000 0.19400  0.58860  0.67172  Biso   1.000  O
  C75      1.0000 0.14830  0.43300  0.61690  Biso   1.000  C
  H132     1.0000 0.09950  0.41770  0.64860  Biso   1.000  H
  H133     1.0000 0.19940  0.38830  0.60310  Biso   1.000  H
  C76      1.0000 0.07630  0.47600  0.57430  Biso   1.000  C
  H134     1.0000 0.12300  0.49220  0.54260  Biso   1.000  H
  H135     1.0000 0.03850  0.44500  0.56450  Biso   1.000  H
  H136     1.0000 0.02080  0.51850  0.58830  Biso   1.000  H
  C77      1.0000 0.27560  0.61310  0.84880  Biso   1.000  C
  C78      1.0000 0.37870  0.63980  0.83280  Biso   1.000  C
  H137     1.0000 0.43440  0.61140  0.85650  Biso   1.000  H
  H138     1.0000 0.35770  0.69150  0.83830  Biso   1.000  H
  O55      1.0000 0.42900  0.63310  0.77749  Biso   1.000  O
  C79      1.0000 0.18560  0.65610  0.81370  Biso   1.000  C
  H139     1.0000 0.16350  0.70820  0.81830  Biso   1.000  H
  H140     1.0000 0.11940  0.63870  0.82620  Biso   1.000  H
  O56      1.0000 0.21970  0.64960  0.75754  Biso   1.000  O
  C80      1.0000 0.30430  0.53090  0.84610  Biso   1.000  C
  H141     1.0000 0.23620  0.51570  0.85880  Biso   1.000  H
  H142     1.0000 0.35880  0.50390  0.87080  Biso   1.000  H
  O57      1.0000 0.34870  0.51110  0.79419  Biso   1.000  O
  C81      1.0000 0.22380  0.62920  0.90710  Biso   1.000  C
  H143     1.0000 0.15300  0.61680  0.91620  Biso   1.000  H
  H144     1.0000 0.20610  0.68210  0.90800  Biso   1.000  H
  C82      1.0000 0.29640  0.58860  0.95010  Biso   1.000  C
  H145     1.0000 0.30040  0.53690  0.95560  Biso   1.000  H
  H146     1.0000 0.37130  0.59350  0.93880  Biso   1.000  H
  H147     1.0000 0.26430  0.60910  0.98370  Biso   1.000  H
  C83      1.0000 0.39540  0.77950  0.59620  Biso   1.000  C
  C84      1.0000 0.27750  0.78110  0.62130  Biso   1.000  C
  H148     1.0000 0.23180  0.79000  0.59240  Biso   1.000  H
  H149     1.0000 0.24590  0.82230  0.64250  Biso   1.000  H
  O58      1.0000 0.26980  0.71560  0.65525  Biso   1.000  O
  C85      1.0000 0.44570  0.71920  0.55950  Biso   1.000  C
  H150     1.0000 0.51940  0.72280  0.54120  Biso   1.000  H
  H151     1.0000 0.39760  0.72850  0.53150  Biso   1.000  H
  O59      1.0000 0.45860  0.64630  0.58626  Biso   1.000  O
  C86      1.0000 0.46750  0.76930  0.63840  Biso   1.000  C
  H152     1.0000 0.43660  0.81070  0.65940  Biso   1.000  H
  H153     1.0000 0.54270  0.77030  0.62050  Biso   1.000  H
  O60      1.0000 0.47710  0.70300  0.67400  Biso   1.000  O
  C87      1.0000 0.39250  0.85240  0.55880  Biso   1.000  C
  H154     1.0000 0.36430  0.85130  0.52590  Biso   1.000  H
  H155     1.0000 0.46970  0.85480  0.54830  Biso   1.000  H
  C88      1.0000 0.32170  0.92280  0.58230  Biso   1.000  C
  H156     1.0000 0.33800  0.92030  0.61840  Biso   1.000  H
  H157     1.0000 0.33930  0.96480  0.55940  Biso   1.000  H
  H158     1.0000 0.24270  0.92790  0.58390  Biso   1.000  H
  C89      1.0000 0.73660  0.44510  0.68020  Biso   1.000  C
  C90      1.0000 0.66400  0.40340  0.71910  Biso   1.000  C
  H159     1.0000 0.68840  0.39270  0.75480  Biso   1.000  H
  H160     1.0000 0.67550  0.35640  0.70650  Biso   1.000  H
  O61      1.0000 0.54650  0.44270  0.72443  Biso   1.000  O
  C91      1.0000 0.70520  0.46120  0.62560  Biso   1.000  C
  H161     1.0000 0.71460  0.41450  0.61280  Biso   1.000  H
  H162     1.0000 0.75700  0.48500  0.60130  Biso   1.000  H
  O62      1.0000 0.59360  0.50690  0.62205  Biso   1.000  O
  C92      1.0000 0.72940  0.51520  0.70190  Biso   1.000  C
  H163     1.0000 0.78260  0.53840  0.67820  Biso   1.000  H
  H164     1.0000 0.75300  0.50150  0.73780  Biso   1.000  H
  O63      1.0000 0.62290  0.56700  0.70580  Biso   1.000  O
  C93      1.0000 0.85950  0.39710  0.68020  Biso   1.000  C
  H165     1.0000 0.87590  0.38670  0.71740  Biso   1.000  H
  H166     1.0000 0.90790  0.42590  0.65900  Biso   1.000  H
  C94      1.0000 0.89110  0.32510  0.65820  Biso   1.000  C
  H167     1.0000 0.87600  0.33430  0.62110  Biso   1.000  H
  H168     1.0000 0.97040  0.30030  0.65910  Biso   1.000  H
  H169     1.0000 0.84740  0.29440  0.68000  Biso   1.000  H
  C95      1.0000 0.01800  0.56660  0.77820  Biso   1.000  C
  O64      1.0000 0.99220  0.62990  0.75860  Biso   1.000  O
  O65      1.0000 0.11980  0.52510  0.77940  Biso   1.000  O
  C96      1.0000 0.93370  0.52860  0.80480  Biso   1.000  C
  H170     1.0000 0.85970  0.55930  0.79730  Biso   1.000  H
  H171     1.0000 0.95120  0.48220  0.79090  Biso   1.000  H
  H172     1.0000 0.93480  0.51940  0.84350  Biso   1.000  H
  C97      1.0000 0.18180  0.82400  0.76000  Biso   1.000  C
  O66      1.0000 0.11240  0.81840  0.73380  Biso   1.000  O
  O67      1.0000 0.28460  0.78760  0.75366  Biso   1.000  O
  C98      1.0000 0.14220  0.87290  0.80310  Biso   1.000  C
  H173     1.0000 0.07840  0.86170  0.82670  Biso   1.000  H
  H174     1.0000 0.20230  0.86500  0.82390  Biso   1.000  H
  H175     1.0000 0.12000  0.92390  0.78660  Biso   1.000  H
  C99      1.0000 0.72780  0.62950  0.54820  Biso   1.000  C
  O68      1.0000 0.69460  0.59920  0.52000  Biso   1.000  O
  O69      1.0000 0.68790  0.63770  0.59730  Biso   1.000  O
  C100     1.0000 0.82390  0.66010  0.52660  Biso   1.000  C
  H176     1.0000 0.85480  0.64750  0.49050  Biso   1.000  H
  H177     1.0000 0.79800  0.71320  0.52530  Biso   1.000  H
  H178     1.0000 0.88150  0.63940  0.55000  Biso   1.000  H
  C101     1.0000 0.54250  0.30920  0.65590  Biso   1.000  C
  O70      1.0000 0.51040  0.29890  0.70420  Biso   1.000  O
  O71      1.0000 0.53630  0.37270  0.62955  Biso   1.000  O
  C102     1.0000 0.58700  0.24640  0.62370  Biso   1.000  C
  H179     1.0000 0.52540  0.23000  0.61870  Biso   1.000  H
  H180     1.0000 0.62450  0.26210  0.58860  Biso   1.000  H
  H181     1.0000 0.64000  0.20620  0.64270  Biso   1.000  H
  C103     1.0000 0.58570  0.43600  0.84650  Biso   1.000  C
  O72      1.0000 0.53960  0.38960  0.84340  Biso   1.000  O
  O73      1.0000 0.57670  0.49740  0.81630  Biso   1.000  O
  C104     1.0000 0.65650  0.42020  0.89130  Biso   1.000  C
  H182     1.0000 0.73530  0.40830  0.87600  Biso   1.000  H
  H183     1.0000 0.63640  0.46320  0.90960  Biso   1.000  H
  H184     1.0000 0.64330  0.37890  0.91690  Biso   1.000  H
  O74      1.0000 0.58430  0.42180  0.52320  Biso   1.000  O
  H185     1.0000 0.56850  0.40320  0.55470  Biso   1.000  H
  H186     1.0000 0.63160  0.38820  0.50800  Biso   1.000  H
  Mn19     1.0000 0.76588  0.94294  0.84555  Biso   1.000  Mn
  Mn20     1.0000 0.70134  0.03654  0.73864  Biso   1.000  Mn
  Mn21     1.0000 0.68829  0.88115  0.75862  Biso   1.000  Mn
  Mn22     1.0000 0.46828  0.01376  0.75589  Biso   1.000  Mn
  Mn23     1.0000 0.54300  0.07717  0.84337  Biso   1.000  Mn
  Mn24     1.0000 0.52440  0.91145  0.86732  Biso   1.000  Mn
  Na11     1.0000 0.94120  0.89599  0.72229  Biso   1.000  Na
  Na12     1.0000 0.62240  0.97344  0.96241  Biso   1.000  Na
  Na13     1.0000 0.44720  0.20419  0.74547  Biso   1.000  Na
  Na14     1.0000 0.41610  0.84442  0.78032  Biso   1.000  Na
  O75      1.0000 0.62460  0.98090  0.79535  Biso   1.000  O
  C105     1.0000 0.79120  0.11440  0.82520  Biso   1.000  C
  C106     1.0000 0.74060  0.08530  0.87970  Biso   1.000  C
  H187     1.0000 0.69000  0.12680  0.89770  Biso   1.000  H
  H188     1.0000 0.80070  0.05980  0.90180  Biso   1.000  H
  O76      1.0000 0.67940  0.03560  0.87738  Biso   1.000  O
  C107     1.0000 0.87600  0.05190  0.79720  Biso   1.000  C
  H189     1.0000 0.93520  0.02700  0.81980  Biso   1.000  H
  H190     1.0000 0.91100  0.07300  0.76290  Biso   1.000  H
  O77      1.0000 0.83040  0.99870  0.78660  Biso   1.000  O
  C108     1.0000 0.70220  0.15870  0.79050  Biso   1.000  C
  H191     1.0000 0.73910  0.17660  0.75550  Biso   1.000  H
  H192     1.0000 0.65570  0.20190  0.80780  Biso   1.000  H
  O78      1.0000 0.63070  0.12000  0.78123  Biso   1.000  O
  C109     1.0000 0.85830  0.16430  0.83340  Biso   1.000  C
  H193     1.0000 0.89650  0.17930  0.79780  Biso   1.000  H
  H194     1.0000 0.91680  0.13400  0.85520  Biso   1.000  H
  C110     1.0000 0.80230  0.22750  0.85740  Biso   1.000  C
  H195     1.0000 0.78330  0.21410  0.89600  Biso   1.000  H
  H196     1.0000 0.85020  0.25920  0.85130  Biso   1.000  H
  H197     1.0000 0.73410  0.25340  0.84170  Biso   1.000  H
  C111     1.0000 0.62430  0.97670  0.63690  Biso   1.000  C
  C112     1.0000 0.55770  0.92560  0.66860  Biso   1.000  C
  H198     1.0000 0.59390  0.87620  0.65840  Biso   1.000  H
  H199     1.0000 0.48220  0.94270  0.65820  Biso   1.000  H
  O79      1.0000 0.54820  0.92150  0.72482  Biso   1.000  O
  C113     1.0000 0.74250  0.95130  0.64890  Biso   1.000  C
  H200     1.0000 0.78210  0.98560  0.62780  Biso   1.000  H
  H201     1.0000 0.77990  0.90300  0.63670  Biso   1.000  H
  O80      1.0000 0.75270  0.94560  0.70460  Biso   1.000  O
  C114     1.0000 0.56840  0.05490  0.64820  Biso   1.000  C
  H202     1.0000 0.49410  0.07190  0.63660  Biso   1.000  H
  H203     1.0000 0.61260  0.08600  0.62640  Biso   1.000  H
  O81      1.0000 0.55580  0.06450  0.70351  Biso   1.000  O
  C115     1.0000 0.62900  0.97740  0.57630  Biso   1.000  C
  H204     1.0000 0.66910  0.01230  0.55690  Biso   1.000  H
  H205     1.0000 0.55190  0.99660  0.56790  Biso   1.000  H
  C116     1.0000 0.68340  0.90500  0.55360  Biso   1.000  C
  H206     1.0000 0.64670  0.86890  0.57300  Biso   1.000  H
  H207     1.0000 0.67610  0.91220  0.51550  Biso   1.000  H
  H208     1.0000 0.76230  0.88750  0.55780  Biso   1.000  H
  C117     1.0000 0.76790  0.76660  0.87050  Biso   1.000  C
  C118     1.0000 0.72720  0.81570  0.91430  Biso   1.000  C
  H209     1.0000 0.79090  0.81170  0.93230  Biso   1.000  H
  H210     1.0000 0.67240  0.79770  0.94130  Biso   1.000  H
  O82      1.0000 0.67700  0.89110  0.89604  Biso   1.000  O
  C119     1.0000 0.67310  0.76490  0.84440  Biso   1.000  C
  H211     1.0000 0.61980  0.74670  0.87230  Biso   1.000  H
  H212     1.0000 0.70290  0.72960  0.81830  Biso   1.000  H
  O83      1.0000 0.61400  0.83360  0.81747  Biso   1.000  O
  C120     1.0000 0.85560  0.79050  0.82890  Biso   1.000  C
  H213     1.0000 0.88500  0.75520  0.80270  Biso   1.000  H
  H214     1.0000 0.91800  0.78900  0.84690  Biso   1.000  H
  O84      1.0000 0.81560  0.86190  0.80075  Biso   1.000  O
  C121     1.0000 0.82640  0.68870  0.89580  Biso   1.000  C
  H215     1.0000 0.88530  0.69150  0.91440  Biso   1.000  H
  H216     1.0000 0.86350  0.65910  0.86640  Biso   1.000  H
  C122     1.0000 0.75440  0.64810  0.93530  Biso   1.000  C
  H217     1.0000 0.72720  0.62000  0.91610  Biso   1.000  H
  H218     1.0000 0.79850  0.61490  0.96200  Biso   1.000  H
  H219     1.0000 0.69110  0.68320  0.95330  Biso   1.000  H
  C123     1.0000 0.28230  0.05790  0.86800  Biso   1.000  C
  C124     1.0000 0.29490  0.99060  0.84260  Biso   1.000  C
  H220     1.0000 0.24170  0.00410  0.81650  Biso   1.000  H
  H221     1.0000 0.27410  0.95340  0.87090  Biso   1.000  H
  O85      1.0000 0.40490  0.95840  0.81566  Biso   1.000  O
  C125     1.0000 0.31100  0.11740  0.82600  Biso   1.000  C
  H222     1.0000 0.29820  0.16110  0.84340  Biso   1.000  H
  H223     1.0000 0.26000  0.13080  0.79890  Biso   1.000  H
  O86      1.0000 0.42400  0.09740  0.79918  Biso   1.000  O
  C126     1.0000 0.35670  0.03850  0.91270  Biso   1.000  C
  H224     1.0000 0.33440  0.00110  0.94020  Biso   1.000  H
  H225     1.0000 0.34160  0.08250  0.93010  Biso   1.000  H
  O87      1.0000 0.47300  0.01240  0.89606  Biso   1.000  O
  C127     1.0000 0.16000  0.08460  0.89200  Biso   1.000  C
  H226     1.0000 0.14520  0.04840  0.92280  Biso   1.000  H
  H227     1.0000 0.11410  0.08570  0.86480  Biso   1.000  H
  C128     1.0000 0.12260  0.15620  0.91020  Biso   1.000  C
  H228     1.0000 0.13670  0.19280  0.88030  Biso   1.000  H
  H229     1.0000 0.04290  0.16850  0.92350  Biso   1.000  H
  H230     1.0000 0.16330  0.15510  0.93910  Biso   1.000  H
  C129     1.0000 0.88290  0.06850  0.66170  Biso   1.000  C
  O88      1.0000 0.94380  0.00630  0.66870  Biso   1.000  O
  O89      1.0000 0.77880  0.09040  0.68440  Biso   1.000  O
  C130     1.0000 0.91960  0.12750  0.62580  Biso   1.000  C
  H231     1.0000 0.87330  0.14680  0.59710  Biso   1.000  H
  H232     1.0000 0.91240  0.16670  0.64640  Biso   1.000  H
  H233     1.0000 0.99740  0.10830  0.61020  Biso   1.000  H
  C131     1.0000 0.89310  0.91320  0.93700  Biso   1.000  C
  O90      1.0000 0.80990  0.93410  0.96960  Biso   1.000  O
  O91      1.0000 0.89510  0.91380  0.88729  Biso   1.000  O
  C132     1.0000 0.00830  0.88780  0.95500  Biso   1.000  C
  H234     1.0000 0.03350  0.83440  0.96180  Biso   1.000  H
  H235     1.0000 0.06100  0.90500  0.92680  Biso   1.000  H
  H236     1.0000 0.00410  0.90770  0.98790  Biso   1.000  H
  C133     1.0000 0.83770  0.76860  0.69180  Biso   1.000  C
  O92      1.0000 0.74050  0.79360  0.71790  Biso   1.000  O
  O93      1.0000 0.91520  0.79360  0.69045  Biso   1.000  O
  C134     1.0000 0.84950  0.70740  0.66140  Biso   1.000  C
  H237     1.0000 0.85640  0.66210  0.68620  Biso   1.000  H
  H238     1.0000 0.78380  0.71840  0.64360  Biso   1.000  H
  H239     1.0000 0.91600  0.70180  0.63440  Biso   1.000  H
  C135     1.0000 0.38990  0.81620  0.92210  Biso   1.000  C
  O94      1.0000 0.44680  0.85510  0.93114  Biso   1.000  O
  O95      1.0000 0.37670  0.81000  0.87750  Biso   1.000  O
  C136     1.0000 0.33720  0.77750  0.97090  Biso   1.000  C
  H240     1.0000 0.39270  0.73310  0.98400  Biso   1.000  H
  H241     1.0000 0.30860  0.80950  0.99890  Biso   1.000  H
  H242     1.0000 0.27590  0.76460  0.96180  Biso   1.000  H
  C137     1.0000 0.44090  0.22960  0.87300  Biso   1.000  C
  O96      1.0000 0.43850  0.25340  0.82507  Biso   1.000  O
  O97      1.0000 0.47840  0.16150  0.89088  Biso   1.000  O
  C138     1.0000 0.39860  0.28040  0.91540  Biso   1.000  C
  H243     1.0000 0.39350  0.25180  0.95090  Biso   1.000  H
  H244     1.0000 0.45000  0.30900  0.91310  Biso   1.000  H
  H245     1.0000 0.32500  0.31340  0.90940  Biso   1.000  H
  C139     1.0000 0.27580  0.01370  0.70770  Biso   1.000  C
  O98      1.0000 0.33550  0.05220  0.71584  Biso   1.000  O
  O99      1.0000 0.30090  0.94670  0.72090  Biso   1.000  O
  C140     1.0000 0.17630  0.05450  0.68290  Biso   1.000  C
  H246     1.0000 0.13390  0.09600  0.70210  Biso   1.000  H
  H247     1.0000 0.19820  0.07220  0.64540  Biso   1.000  H
  H248     1.0000 0.13020  0.02250  0.68460  Biso   1.000  H
  O100     1.0000 0.49170  0.91370  0.01047  Biso   1.000  O
  H249     1.0000 0.46530  0.89910  0.98890  Biso   1.000  H
  H250     1.0000 0.50780  0.87900  0.03500  Biso   1.000  H
