data_image0
_cell_length_a       17.9257
_cell_length_b       17.9257
_cell_length_c       28.0627
_cell_angle_alpha    90
_cell_angle_beta     90
_cell_angle_gamma    90

_symmetry_space_group_name_H-M    "P 1"
_symmetry_int_tables_number       1

loop_
  _symmetry_equiv_pos_as_xyz
  'x, y, z'

loop_
  _atom_site_label
  _atom_site_occupancy
  _atom_site_fract_x
  _atom_site_fract_y
  _atom_site_fract_z
  _atom_site_thermal_displace_type
  _atom_site_B_iso_or_equiv
  _atom_site_type_symbol
  O1       1.0000 0.68368  0.68158  0.30319  Biso   1.000  O
  O2       1.0000 0.80701  0.66571  0.29451  Biso   1.000  O
  O3       1.0000 0.55194  0.55585  0.43463  Biso   1.000  O
  O4       1.0000 0.62051  0.48795  0.48556  Biso   1.000  O
  C1       1.0000 0.74515  0.65254  0.31353  Biso   1.000  C
  C2       1.0000 0.74428  0.59646  0.35339  Biso   1.000  C
  C3       1.0000 0.80946  0.55882  0.36568  Biso   1.000  C
  H1       1.0000 0.85330  0.56610  0.34730  Biso   1.000  H
  C4       1.0000 0.81114  0.51129  0.40416  Biso   1.000  C
  C5       1.0000 0.74671  0.50125  0.43051  Biso   1.000  C
  H2       1.0000 0.74770  0.46900  0.45740  Biso   1.000  H
  C6       1.0000 0.67994  0.53741  0.41861  Biso   1.000  C
  C7       1.0000 0.67964  0.58489  0.37951  Biso   1.000  C
  H3       1.0000 0.63490  0.60960  0.37060  Biso   1.000  H
  C8       1.0000 0.61205  0.52596  0.44866  Biso   1.000  C
  C9       1.0000 0.88230  0.47643  0.42127  Biso   1.000  C
  C10      1.0000 0.91578  0.50977  0.45953  Biso   1.000  C
  H4       1.0000 0.89380  0.55320  0.47300  Biso   1.000  H
  H5       1.0000 0.84780  0.28500  0.38980  Biso   1.000  H
  O5       1.0000 0.81632  0.81842  0.30319  Biso   1.000  O
  O6       1.0000 0.69299  0.83429  0.29451  Biso   1.000  O
  O7       1.0000 0.94806  0.94415  0.43463  Biso   1.000  O
  O8       1.0000 0.87949  0.01205  0.48556  Biso   1.000  O
  C11      1.0000 0.75485  0.84746  0.31353  Biso   1.000  C
  C12      1.0000 0.75572  0.90354  0.35339  Biso   1.000  C
  C13      1.0000 0.69054  0.94118  0.36568  Biso   1.000  C
  H6       1.0000 0.64670  0.93390  0.34730  Biso   1.000  H
  C14      1.0000 0.68886  0.98871  0.40416  Biso   1.000  C
  C15      1.0000 0.75329  0.99875  0.43051  Biso   1.000  C
  H7       1.0000 0.75230  0.03100  0.45740  Biso   1.000  H
  C16      1.0000 0.82006  0.96259  0.41861  Biso   1.000  C
  C17      1.0000 0.82036  0.91511  0.37951  Biso   1.000  C
  H8       1.0000 0.86510  0.89040  0.37060  Biso   1.000  H
  C18      1.0000 0.88795  0.97404  0.44866  Biso   1.000  C
  C19      1.0000 0.61770  0.02357  0.42127  Biso   1.000  C
  C20      1.0000 0.58422  0.99023  0.45953  Biso   1.000  C
  H9       1.0000 0.60620  0.94680  0.47300  Biso   1.000  H
  H10      1.0000 0.65220  0.21500  0.38980  Biso   1.000  H
  O9       1.0000 0.81842  0.68368  0.80319  Biso   1.000  O
  O10      1.0000 0.83429  0.80701  0.79451  Biso   1.000  O
  O11      1.0000 0.94415  0.55194  0.93463  Biso   1.000  O
  O12      1.0000 0.01205  0.62051  0.98556  Biso   1.000  O
  C21      1.0000 0.84746  0.74515  0.81353  Biso   1.000  C
  C22      1.0000 0.90354  0.74428  0.85339  Biso   1.000  C
  C23      1.0000 0.94118  0.80946  0.86568  Biso   1.000  C
  H11      1.0000 0.93390  0.85330  0.84730  Biso   1.000  H
  C24      1.0000 0.98871  0.81114  0.90416  Biso   1.000  C
  C25      1.0000 0.99875  0.74671  0.93051  Biso   1.000  C
  H12      1.0000 0.03100  0.74770  0.95740  Biso   1.000  H
  C26      1.0000 0.96259  0.67994  0.91861  Biso   1.000  C
  C27      1.0000 0.91511  0.67964  0.87951  Biso   1.000  C
  H13      1.0000 0.89040  0.63490  0.87060  Biso   1.000  H
  C28      1.0000 0.97404  0.61205  0.94866  Biso   1.000  C
  C29      1.0000 0.02357  0.88230  0.92127  Biso   1.000  C
  C30      1.0000 0.99023  0.91578  0.95953  Biso   1.000  C
  H14      1.0000 0.94680  0.89380  0.97300  Biso   1.000  H
  H15      1.0000 0.21500  0.84780  0.88980  Biso   1.000  H
  O13      1.0000 0.68158  0.81632  0.80319  Biso   1.000  O
  O14      1.0000 0.66571  0.69299  0.79451  Biso   1.000  O
  O15      1.0000 0.55585  0.94806  0.93463  Biso   1.000  O
  O16      1.0000 0.48795  0.87949  0.98556  Biso   1.000  O
  C31      1.0000 0.65254  0.75485  0.81353  Biso   1.000  C
  C32      1.0000 0.59646  0.75572  0.85339  Biso   1.000  C
  C33      1.0000 0.55882  0.69054  0.86568  Biso   1.000  C
  H16      1.0000 0.56610  0.64670  0.84730  Biso   1.000  H
  C34      1.0000 0.51129  0.68886  0.90416  Biso   1.000  C
  C35      1.0000 0.50125  0.75329  0.93051  Biso   1.000  C
  H17      1.0000 0.46900  0.75230  0.95740  Biso   1.000  H
  C36      1.0000 0.53741  0.82006  0.91861  Biso   1.000  C
  C37      1.0000 0.58489  0.82036  0.87951  Biso   1.000  C
  H18      1.0000 0.60960  0.86510  0.87060  Biso   1.000  H
  C38      1.0000 0.52596  0.88795  0.94866  Biso   1.000  C
  C39      1.0000 0.47643  0.61770  0.92127  Biso   1.000  C
  C40      1.0000 0.50977  0.58422  0.95953  Biso   1.000  C
  H19      1.0000 0.55320  0.60620  0.97300  Biso   1.000  H
  H20      1.0000 0.28500  0.65220  0.88980  Biso   1.000  H
  O17      1.0000 0.81632  0.68158  0.19681  Biso   1.000  O
  O18      1.0000 0.69299  0.66571  0.20549  Biso   1.000  O
  O19      1.0000 0.94806  0.55585  0.06537  Biso   1.000  O
  O20      1.0000 0.87949  0.48795  0.01444  Biso   1.000  O
  C41      1.0000 0.75485  0.65254  0.18647  Biso   1.000  C
  C42      1.0000 0.75572  0.59646  0.14661  Biso   1.000  C
  C43      1.0000 0.69054  0.55882  0.13432  Biso   1.000  C
  H21      1.0000 0.64670  0.56610  0.15270  Biso   1.000  H
  C44      1.0000 0.68886  0.51129  0.09584  Biso   1.000  C
  C45      1.0000 0.75329  0.50125  0.06949  Biso   1.000  C
  H22      1.0000 0.75230  0.46900  0.04260  Biso   1.000  H
  C46      1.0000 0.82006  0.53741  0.08139  Biso   1.000  C
  C47      1.0000 0.82036  0.58489  0.12049  Biso   1.000  C
  H23      1.0000 0.86510  0.60960  0.12940  Biso   1.000  H
  C48      1.0000 0.88795  0.52596  0.05134  Biso   1.000  C
  C49      1.0000 0.61770  0.47643  0.07873  Biso   1.000  C
  C50      1.0000 0.58422  0.50977  0.04047  Biso   1.000  C
  H24      1.0000 0.60620  0.55320  0.02700  Biso   1.000  H
  H25      1.0000 0.65220  0.28500  0.11020  Biso   1.000  H
  O21      1.0000 0.68368  0.81842  0.19681  Biso   1.000  O
  O22      1.0000 0.80701  0.83429  0.20549  Biso   1.000  O
  O23      1.0000 0.55194  0.94415  0.06537  Biso   1.000  O
  O24      1.0000 0.62051  0.01205  0.01444  Biso   1.000  O
  C51      1.0000 0.74515  0.84746  0.18647  Biso   1.000  C
  C52      1.0000 0.74428  0.90354  0.14661  Biso   1.000  C
  C53      1.0000 0.80946  0.94118  0.13432  Biso   1.000  C
  H26      1.0000 0.85330  0.93390  0.15270  Biso   1.000  H
  C54      1.0000 0.81114  0.98871  0.09584  Biso   1.000  C
  C55      1.0000 0.74671  0.99875  0.06949  Biso   1.000  C
  H27      1.0000 0.74770  0.03100  0.04260  Biso   1.000  H
  C56      1.0000 0.67994  0.96259  0.08139  Biso   1.000  C
  C57      1.0000 0.67964  0.91511  0.12049  Biso   1.000  C
  H28      1.0000 0.63490  0.89040  0.12940  Biso   1.000  H
  C58      1.0000 0.61205  0.97404  0.05134  Biso   1.000  C
  C59      1.0000 0.88230  0.02357  0.07873  Biso   1.000  C
  C60      1.0000 0.91578  0.99023  0.04047  Biso   1.000  C
  H29      1.0000 0.89380  0.94680  0.02700  Biso   1.000  H
  H30      1.0000 0.84780  0.21500  0.11020  Biso   1.000  H
  O25      1.0000 0.68158  0.68368  0.69681  Biso   1.000  O
  O26      1.0000 0.66571  0.80701  0.70549  Biso   1.000  O
  O27      1.0000 0.55585  0.55194  0.56537  Biso   1.000  O
  O28      1.0000 0.48795  0.62051  0.51444  Biso   1.000  O
  C61      1.0000 0.65254  0.74515  0.68647  Biso   1.000  C
  C62      1.0000 0.59646  0.74428  0.64661  Biso   1.000  C
  C63      1.0000 0.55882  0.80946  0.63432  Biso   1.000  C
  H31      1.0000 0.56610  0.85330  0.65270  Biso   1.000  H
  C64      1.0000 0.51129  0.81114  0.59584  Biso   1.000  C
  C65      1.0000 0.50125  0.74671  0.56949  Biso   1.000  C
  H32      1.0000 0.46900  0.74770  0.54260  Biso   1.000  H
  C66      1.0000 0.53741  0.67994  0.58139  Biso   1.000  C
  C67      1.0000 0.58489  0.67964  0.62049  Biso   1.000  C
  H33      1.0000 0.60960  0.63490  0.62940  Biso   1.000  H
  C68      1.0000 0.52596  0.61205  0.55134  Biso   1.000  C
  C69      1.0000 0.47643  0.88230  0.57873  Biso   1.000  C
  C70      1.0000 0.50977  0.91578  0.54047  Biso   1.000  C
  H34      1.0000 0.55320  0.89380  0.52700  Biso   1.000  H
  H35      1.0000 0.28500  0.84780  0.61020  Biso   1.000  H
  O29      1.0000 0.81842  0.81632  0.69681  Biso   1.000  O
  O30      1.0000 0.83429  0.69299  0.70549  Biso   1.000  O
  O31      1.0000 0.94415  0.94806  0.56537  Biso   1.000  O
  O32      1.0000 0.01205  0.87949  0.51444  Biso   1.000  O
  C71      1.0000 0.84746  0.75485  0.68647  Biso   1.000  C
  C72      1.0000 0.90354  0.75572  0.64661  Biso   1.000  C
  C73      1.0000 0.94118  0.69054  0.63432  Biso   1.000  C
  H36      1.0000 0.93390  0.64670  0.65270  Biso   1.000  H
  C74      1.0000 0.98871  0.68886  0.59584  Biso   1.000  C
  C75      1.0000 0.99875  0.75329  0.56949  Biso   1.000  C
  H37      1.0000 0.03100  0.75230  0.54260  Biso   1.000  H
  C76      1.0000 0.96259  0.82006  0.58139  Biso   1.000  C
  C77      1.0000 0.91511  0.82036  0.62049  Biso   1.000  C
  H38      1.0000 0.89040  0.86510  0.62940  Biso   1.000  H
  C78      1.0000 0.97404  0.88795  0.55134  Biso   1.000  C
  C79      1.0000 0.02357  0.61770  0.57873  Biso   1.000  C
  C80      1.0000 0.99023  0.58422  0.54047  Biso   1.000  C
  H39      1.0000 0.94680  0.60620  0.52700  Biso   1.000  H
  H40      1.0000 0.21500  0.65220  0.61020  Biso   1.000  H
  O33      1.0000 0.31632  0.31842  0.69681  Biso   1.000  O
  O34      1.0000 0.19299  0.33429  0.70549  Biso   1.000  O
  O35      1.0000 0.44806  0.44415  0.56537  Biso   1.000  O
  O36      1.0000 0.37949  0.51205  0.51444  Biso   1.000  O
  C81      1.0000 0.25485  0.34746  0.68647  Biso   1.000  C
  C82      1.0000 0.25572  0.40354  0.64661  Biso   1.000  C
  C83      1.0000 0.19054  0.44118  0.63432  Biso   1.000  C
  H41      1.0000 0.14670  0.43390  0.65270  Biso   1.000  H
  C84      1.0000 0.18886  0.48871  0.59584  Biso   1.000  C
  C85      1.0000 0.25329  0.49875  0.56949  Biso   1.000  C
  H42      1.0000 0.25230  0.53100  0.54260  Biso   1.000  H
  C86      1.0000 0.32006  0.46259  0.58139  Biso   1.000  C
  C87      1.0000 0.32036  0.41511  0.62049  Biso   1.000  C
  H43      1.0000 0.36510  0.39040  0.62940  Biso   1.000  H
  C88      1.0000 0.38795  0.47404  0.55134  Biso   1.000  C
  C89      1.0000 0.11770  0.52357  0.57873  Biso   1.000  C
  C90      1.0000 0.08422  0.49023  0.54047  Biso   1.000  C
  H44      1.0000 0.10620  0.44680  0.52700  Biso   1.000  H
  H45      1.0000 0.15220  0.71500  0.61020  Biso   1.000  H
  O37      1.0000 0.18368  0.18158  0.69681  Biso   1.000  O
  O38      1.0000 0.30701  0.16571  0.70549  Biso   1.000  O
  O39      1.0000 0.05194  0.05585  0.56537  Biso   1.000  O
  O40      1.0000 0.12051  0.98795  0.51444  Biso   1.000  O
  C91      1.0000 0.24515  0.15254  0.68647  Biso   1.000  C
  C92      1.0000 0.24428  0.09646  0.64661  Biso   1.000  C
  C93      1.0000 0.30946  0.05882  0.63432  Biso   1.000  C
  H46      1.0000 0.35330  0.06610  0.65270  Biso   1.000  H
  C94      1.0000 0.31114  0.01129  0.59584  Biso   1.000  C
  C95      1.0000 0.24671  0.00125  0.56949  Biso   1.000  C
  H47      1.0000 0.24770  0.96900  0.54260  Biso   1.000  H
  C96      1.0000 0.17994  0.03741  0.58139  Biso   1.000  C
  C97      1.0000 0.17964  0.08489  0.62049  Biso   1.000  C
  H48      1.0000 0.13490  0.10960  0.62940  Biso   1.000  H
  C98      1.0000 0.11205  0.02596  0.55134  Biso   1.000  C
  C99      1.0000 0.38230  0.97643  0.57873  Biso   1.000  C
  C100     1.0000 0.41578  0.00977  0.54047  Biso   1.000  C
  H49      1.0000 0.39380  0.05320  0.52700  Biso   1.000  H
  H50      1.0000 0.34780  0.78500  0.61020  Biso   1.000  H
  O41      1.0000 0.18158  0.31632  0.19681  Biso   1.000  O
  O42      1.0000 0.16571  0.19299  0.20549  Biso   1.000  O
  O43      1.0000 0.05585  0.44806  0.06537  Biso   1.000  O
  O44      1.0000 0.98795  0.37949  0.01444  Biso   1.000  O
  C101     1.0000 0.15254  0.25485  0.18647  Biso   1.000  C
  C102     1.0000 0.09646  0.25572  0.14661  Biso   1.000  C
  C103     1.0000 0.05882  0.19054  0.13432  Biso   1.000  C
  H51      1.0000 0.06610  0.14670  0.15270  Biso   1.000  H
  C104     1.0000 0.01129  0.18886  0.09584  Biso   1.000  C
  C105     1.0000 0.00125  0.25329  0.06949  Biso   1.000  C
  H52      1.0000 0.96900  0.25230  0.04260  Biso   1.000  H
  C106     1.0000 0.03741  0.32006  0.08139  Biso   1.000  C
  C107     1.0000 0.08489  0.32036  0.12049  Biso   1.000  C
  H53      1.0000 0.10960  0.36510  0.12940  Biso   1.000  H
  C108     1.0000 0.02596  0.38795  0.05134  Biso   1.000  C
  C109     1.0000 0.97643  0.11770  0.07873  Biso   1.000  C
  C110     1.0000 0.00977  0.08422  0.04047  Biso   1.000  C
  H54      1.0000 0.05320  0.10620  0.02700  Biso   1.000  H
  H55      1.0000 0.78500  0.15220  0.11020  Biso   1.000  H
  O45      1.0000 0.31842  0.18368  0.19681  Biso   1.000  O
  O46      1.0000 0.33429  0.30701  0.20549  Biso   1.000  O
  O47      1.0000 0.44415  0.05194  0.06537  Biso   1.000  O
  O48      1.0000 0.51205  0.12051  0.01444  Biso   1.000  O
  C111     1.0000 0.34746  0.24515  0.18647  Biso   1.000  C
  C112     1.0000 0.40354  0.24428  0.14661  Biso   1.000  C
  C113     1.0000 0.44118  0.30946  0.13432  Biso   1.000  C
  H56      1.0000 0.43390  0.35330  0.15270  Biso   1.000  H
  C114     1.0000 0.48871  0.31114  0.09584  Biso   1.000  C
  C115     1.0000 0.49875  0.24671  0.06949  Biso   1.000  C
  H57      1.0000 0.53100  0.24770  0.04260  Biso   1.000  H
  C116     1.0000 0.46259  0.17994  0.08139  Biso   1.000  C
  C117     1.0000 0.41511  0.17964  0.12049  Biso   1.000  C
  H58      1.0000 0.39040  0.13490  0.12940  Biso   1.000  H
  C118     1.0000 0.47404  0.11205  0.05134  Biso   1.000  C
  C119     1.0000 0.52357  0.38230  0.07873  Biso   1.000  C
  C120     1.0000 0.49023  0.41578  0.04047  Biso   1.000  C
  H59      1.0000 0.44680  0.39380  0.02700  Biso   1.000  H
  H60      1.0000 0.71500  0.34780  0.11020  Biso   1.000  H
  O49      1.0000 0.18368  0.31842  0.80319  Biso   1.000  O
  O50      1.0000 0.30701  0.33429  0.79451  Biso   1.000  O
  O51      1.0000 0.05194  0.44415  0.93463  Biso   1.000  O
  O52      1.0000 0.12051  0.51205  0.98556  Biso   1.000  O
  C121     1.0000 0.24515  0.34746  0.81353  Biso   1.000  C
  C122     1.0000 0.24428  0.40354  0.85339  Biso   1.000  C
  C123     1.0000 0.30946  0.44118  0.86568  Biso   1.000  C
  H61      1.0000 0.35330  0.43390  0.84730  Biso   1.000  H
  C124     1.0000 0.31114  0.48871  0.90416  Biso   1.000  C
  C125     1.0000 0.24671  0.49875  0.93051  Biso   1.000  C
  H62      1.0000 0.24770  0.53100  0.95740  Biso   1.000  H
  C126     1.0000 0.17994  0.46259  0.91861  Biso   1.000  C
  C127     1.0000 0.17964  0.41511  0.87951  Biso   1.000  C
  H63      1.0000 0.13490  0.39040  0.87060  Biso   1.000  H
  C128     1.0000 0.11205  0.47404  0.94866  Biso   1.000  C
  C129     1.0000 0.38230  0.52357  0.92127  Biso   1.000  C
  C130     1.0000 0.41578  0.49023  0.95953  Biso   1.000  C
  H64      1.0000 0.39380  0.44680  0.97300  Biso   1.000  H
  H65      1.0000 0.34780  0.71500  0.88980  Biso   1.000  H
  O53      1.0000 0.31632  0.18158  0.80319  Biso   1.000  O
  O54      1.0000 0.19299  0.16571  0.79451  Biso   1.000  O
  O55      1.0000 0.44806  0.05585  0.93463  Biso   1.000  O
  O56      1.0000 0.37949  0.98795  0.98556  Biso   1.000  O
  C131     1.0000 0.25485  0.15254  0.81353  Biso   1.000  C
  C132     1.0000 0.25572  0.09646  0.85339  Biso   1.000  C
  C133     1.0000 0.19054  0.05882  0.86568  Biso   1.000  C
  H66      1.0000 0.14670  0.06610  0.84730  Biso   1.000  H
  C134     1.0000 0.18886  0.01129  0.90416  Biso   1.000  C
  C135     1.0000 0.25329  0.00125  0.93051  Biso   1.000  C
  H67      1.0000 0.25230  0.96900  0.95740  Biso   1.000  H
  C136     1.0000 0.32006  0.03741  0.91861  Biso   1.000  C
  C137     1.0000 0.32036  0.08489  0.87951  Biso   1.000  C
  H68      1.0000 0.36510  0.10960  0.87060  Biso   1.000  H
  C138     1.0000 0.38795  0.02596  0.94866  Biso   1.000  C
  C139     1.0000 0.11770  0.97643  0.92127  Biso   1.000  C
  C140     1.0000 0.08422  0.00977  0.95953  Biso   1.000  C
  H69      1.0000 0.10620  0.05320  0.97300  Biso   1.000  H
  H70      1.0000 0.15220  0.78500  0.88980  Biso   1.000  H
  O57      1.0000 0.31842  0.31632  0.30319  Biso   1.000  O
  O58      1.0000 0.33429  0.19299  0.29451  Biso   1.000  O
  O59      1.0000 0.44415  0.44806  0.43463  Biso   1.000  O
  O60      1.0000 0.51205  0.37949  0.48556  Biso   1.000  O
  C141     1.0000 0.34746  0.25485  0.31353  Biso   1.000  C
  C142     1.0000 0.40354  0.25572  0.35339  Biso   1.000  C
  C143     1.0000 0.44118  0.19054  0.36568  Biso   1.000  C
  H71      1.0000 0.43390  0.14670  0.34730  Biso   1.000  H
  C144     1.0000 0.48871  0.18886  0.40416  Biso   1.000  C
  C145     1.0000 0.49875  0.25329  0.43051  Biso   1.000  C
  H72      1.0000 0.53100  0.25230  0.45740  Biso   1.000  H
  C146     1.0000 0.46259  0.32006  0.41861  Biso   1.000  C
  C147     1.0000 0.41511  0.32036  0.37951  Biso   1.000  C
  H73      1.0000 0.39040  0.36510  0.37060  Biso   1.000  H
  C148     1.0000 0.47404  0.38795  0.44866  Biso   1.000  C
  C149     1.0000 0.52357  0.11770  0.42127  Biso   1.000  C
  C150     1.0000 0.49023  0.08422  0.45953  Biso   1.000  C
  H74      1.0000 0.44680  0.10620  0.47300  Biso   1.000  H
  H75      1.0000 0.71500  0.15220  0.38980  Biso   1.000  H
  O61      1.0000 0.18158  0.18368  0.30319  Biso   1.000  O
  O62      1.0000 0.16571  0.30701  0.29451  Biso   1.000  O
  O63      1.0000 0.05585  0.05194  0.43463  Biso   1.000  O
  O64      1.0000 0.98795  0.12051  0.48556  Biso   1.000  O
  C151     1.0000 0.15254  0.24515  0.31353  Biso   1.000  C
  C152     1.0000 0.09646  0.24428  0.35339  Biso   1.000  C
  C153     1.0000 0.05882  0.30946  0.36568  Biso   1.000  C
  H76      1.0000 0.06610  0.35330  0.34730  Biso   1.000  H
  C154     1.0000 0.01129  0.31114  0.40416  Biso   1.000  C
  C155     1.0000 0.00125  0.24671  0.43051  Biso   1.000  C
  H77      1.0000 0.96900  0.24770  0.45740  Biso   1.000  H
  C156     1.0000 0.03741  0.17994  0.41861  Biso   1.000  C
  C157     1.0000 0.08489  0.17964  0.37951  Biso   1.000  C
  H78      1.0000 0.10960  0.13490  0.37060  Biso   1.000  H
  C158     1.0000 0.02596  0.11205  0.44866  Biso   1.000  C
  C159     1.0000 0.97643  0.38230  0.42127  Biso   1.000  C
  C160     1.0000 0.00977  0.41578  0.45953  Biso   1.000  C
  H79      1.0000 0.05320  0.39380  0.47300  Biso   1.000  H
  H80      1.0000 0.78500  0.34780  0.38980  Biso   1.000  H
  Cu1      1.0000 0.45944  0.54056  0.47032  Biso   1.000  Cu
  Cu2      1.0000 0.04056  0.95944  0.47032  Biso   1.000  Cu
  Cu3      1.0000 0.95944  0.45944  0.97032  Biso   1.000  Cu
  Cu4      1.0000 0.54056  0.04056  0.97032  Biso   1.000  Cu
  Cu5      1.0000 0.04056  0.54056  0.02968  Biso   1.000  Cu
  Cu6      1.0000 0.45944  0.95944  0.02968  Biso   1.000  Cu
  Cu7      1.0000 0.54056  0.45944  0.52968  Biso   1.000  Cu
  Cu8      1.0000 0.95944  0.04056  0.52968  Biso   1.000  Cu
  Cu9      1.0000 0.67568  0.75000  0.25000  Biso   1.000  Cu
  Cu10     1.0000 0.82432  0.75000  0.25000  Biso   1.000  Cu
  Cu11     1.0000 0.75000  0.67568  0.75000  Biso   1.000  Cu
  Cu12     1.0000 0.75000  0.82432  0.75000  Biso   1.000  Cu
  Cu13     1.0000 0.32432  0.25000  0.75000  Biso   1.000  Cu
  Cu14     1.0000 0.17568  0.25000  0.75000  Biso   1.000  Cu
  Cu15     1.0000 0.25000  0.32432  0.25000  Biso   1.000  Cu
  Cu16     1.0000 0.25000  0.17568  0.25000  Biso   1.000  Cu
  O65      1.0000 0.88040  0.38040  0.36115  Biso   1.000  O
  C161     1.0000 0.98166  0.48166  0.47946  Biso   1.000  C
  C162     1.0000 0.91305  0.41305  0.40143  Biso   1.000  C
  C163     1.0000 0.82540  0.32540  0.37110  Biso   1.000  C
  H81      1.0000 0.80560  0.30560  0.34110  Biso   1.000  H
  O66      1.0000 0.61960  0.11960  0.36115  Biso   1.000  O
  C164     1.0000 0.51834  0.01834  0.47946  Biso   1.000  C
  C165     1.0000 0.58695  0.08695  0.40143  Biso   1.000  C
  C166     1.0000 0.67460  0.17460  0.37110  Biso   1.000  C
  H82      1.0000 0.69440  0.19440  0.34110  Biso   1.000  H
  O67      1.0000 0.11960  0.88040  0.86115  Biso   1.000  O
  C167     1.0000 0.01834  0.98166  0.97946  Biso   1.000  C
  C168     1.0000 0.08695  0.91305  0.90143  Biso   1.000  C
  C169     1.0000 0.17460  0.82540  0.87110  Biso   1.000  C
  H83      1.0000 0.19440  0.80560  0.84110  Biso   1.000  H
  O68      1.0000 0.38040  0.61960  0.86115  Biso   1.000  O
  C170     1.0000 0.48166  0.51834  0.97946  Biso   1.000  C
  C171     1.0000 0.41305  0.58695  0.90143  Biso   1.000  C
  C172     1.0000 0.32540  0.67460  0.87110  Biso   1.000  C
  H84      1.0000 0.30560  0.69440  0.84110  Biso   1.000  H
  O69      1.0000 0.61960  0.38040  0.13885  Biso   1.000  O
  C173     1.0000 0.51834  0.48166  0.02054  Biso   1.000  C
  C174     1.0000 0.58695  0.41305  0.09857  Biso   1.000  C
  C175     1.0000 0.67460  0.32540  0.12890  Biso   1.000  C
  H85      1.0000 0.69440  0.30560  0.15890  Biso   1.000  H
  O70      1.0000 0.88040  0.11960  0.13885  Biso   1.000  O
  C176     1.0000 0.98166  0.01834  0.02054  Biso   1.000  C
  C177     1.0000 0.91305  0.08695  0.09857  Biso   1.000  C
  C178     1.0000 0.82540  0.17460  0.12890  Biso   1.000  C
  H86      1.0000 0.80560  0.19440  0.15890  Biso   1.000  H
  O71      1.0000 0.38040  0.88040  0.63885  Biso   1.000  O
  C179     1.0000 0.48166  0.98166  0.52054  Biso   1.000  C
  C180     1.0000 0.41305  0.91305  0.59857  Biso   1.000  C
  C181     1.0000 0.32540  0.82540  0.62890  Biso   1.000  C
  H87      1.0000 0.30560  0.80560  0.65890  Biso   1.000  H
  O72      1.0000 0.11960  0.61960  0.63885  Biso   1.000  O
  C182     1.0000 0.01834  0.51834  0.52054  Biso   1.000  C
  C183     1.0000 0.08695  0.58695  0.59857  Biso   1.000  C
  C184     1.0000 0.17460  0.67460  0.62890  Biso   1.000  C
  H88      1.0000 0.19440  0.69440  0.65890  Biso   1.000  H
