data_image0
_cell_length_a       18.873
_cell_length_b       19.329
_cell_length_c       25.911
_cell_angle_alpha    90
_cell_angle_beta     101.04
_cell_angle_gamma    90

_symmetry_space_group_name_H-M    "P 1"
_symmetry_int_tables_number       1

loop_
  _symmetry_equiv_pos_as_xyz
  'x, y, z'

loop_
  _atom_site_label
  _atom_site_occupancy
  _atom_site_fract_x
  _atom_site_fract_y
  _atom_site_fract_z
  _atom_site_thermal_displace_type
  _atom_site_B_iso_or_equiv
  _atom_site_type_symbol
  O1       1.0000 0.23430  0.05940  0.51730  Biso   1.000  O
  O2       1.0000 0.31320  0.02920  0.46950  Biso   1.000  O
  C1       1.0000 0.29690  0.04750  0.51180  Biso   1.000  C
  O3       1.0000 0.30570  0.08160  0.70650  Biso   1.000  O
  O4       1.0000 0.40980  0.11010  0.74090  Biso   1.000  O
  C2       1.0000 0.36970  0.09050  0.70340  Biso   1.000  C
  O5       1.0000 0.67080  0.43150  0.45240  Biso   1.000  O
  O6       1.0000 0.76330  0.36920  0.49550  Biso   1.000  O
  C3       1.0000 0.69930  0.39020  0.48850  Biso   1.000  C
  O7       1.0000 0.44450  0.39410  0.60110  Biso   1.000  O
  O8       1.0000 0.44510  0.44260  0.52970  Biso   1.000  O
  C4       1.0000 0.47250  0.40460  0.56290  Biso   1.000  C
  C5       1.0000 0.54480  0.37200  0.56200  Biso   1.000  C
  C6       1.0000 0.86460  0.93850  0.80070  Biso   1.000  C
  H1       1.0000 0.87670  0.93200  0.83690  Biso   1.000  H
  Cd1      1.0000 0.69654  0.07855  0.57095  Biso   1.000  Cd
  Cd2      1.0000 0.67811  0.11975  0.70645  Biso   1.000  Cd
  Cd3      1.0000 0.83646  0.94740  0.56226  Biso   1.000  Cd
  O9       1.0000 0.57500  0.08540  0.55150  Biso   1.000  O
  C7       1.0000 0.48090  0.06910  0.59890  Biso   1.000  C
  C8       1.0000 0.46200  0.07720  0.64770  Biso   1.000  C
  H2       1.0000 0.49780  0.08390  0.67740  Biso   1.000  H
  C9       1.0000 0.33770  0.06740  0.60730  Biso   1.000  C
  H3       1.0000 0.28940  0.06980  0.61020  Biso   1.000  H
  C10      1.0000 0.55890  0.06940  0.59550  Biso   1.000  C
  N1       1.0000 0.76830  0.02810  0.64360  Biso   1.000  N
  O10      1.0000 0.70360  0.18290  0.61790  Biso   1.000  O
  O11      1.0000 0.61900  0.20980  0.66360  Biso   1.000  O
  C11      1.0000 0.67410  0.30650  0.55720  Biso   1.000  C
  H4       1.0000 0.71770  0.28460  0.55610  Biso   1.000  H
  C12      1.0000 0.65400  0.36190  0.52620  Biso   1.000  C
  N2       1.0000 0.75810  0.04120  0.69170  Biso   1.000  N
  C13      1.0000 0.63070  0.28180  0.59060  Biso   1.000  C
  C14      1.0000 0.35440  0.05610  0.55900  Biso   1.000  C
  C15      1.0000 0.65220  0.22210  0.62580  Biso   1.000  C
  C16      1.0000 0.42700  0.05720  0.55530  Biso   1.000  C
  H5       1.0000 0.43970  0.04990  0.52280  Biso   1.000  H
  C17      1.0000 0.58740  0.39600  0.52740  Biso   1.000  C
  H6       1.0000 0.57270  0.43360  0.50560  Biso   1.000  H
  N3       1.0000 0.81600  0.98120  0.64180  Biso   1.000  N
  O12      1.0000 0.60580  0.05530  0.63440  Biso   1.000  O
  C18      1.0000 0.56750  0.31600  0.59420  Biso   1.000  C
  H7       1.0000 0.54010  0.30130  0.61840  Biso   1.000  H
  C19      1.0000 0.39060  0.07550  0.65230  Biso   1.000  C
  C20      1.0000 0.83890  0.95930  0.69090  Biso   1.000  C
  C21      1.0000 0.80210  0.99780  0.72140  Biso   1.000  C
  C22      1.0000 0.81550  0.98760  0.77960  Biso   1.000  C
  H8       1.0000 0.79110  0.01370  0.80080  Biso   1.000  H
  C23      1.0000 0.88850  0.90670  0.70870  Biso   1.000  C
  H9       1.0000 0.91270  0.88110  0.68710  Biso   1.000  H
  C24      1.0000 0.89730  0.89710  0.76520  Biso   1.000  C
  H10      1.0000 0.92680  0.86080  0.77990  Biso   1.000  H
  O13      1.0000 0.73430  0.55940  0.51730  Biso   1.000  O
  O14      1.0000 0.81320  0.52920  0.46950  Biso   1.000  O
  C25      1.0000 0.79690  0.54750  0.51180  Biso   1.000  C
  O15      1.0000 0.80570  0.58160  0.70650  Biso   1.000  O
  O16      1.0000 0.90980  0.61010  0.74090  Biso   1.000  O
  C26      1.0000 0.86970  0.59050  0.70340  Biso   1.000  C
  O17      1.0000 0.17080  0.93150  0.45240  Biso   1.000  O
  O18      1.0000 0.26330  0.86920  0.49550  Biso   1.000  O
  C27      1.0000 0.19930  0.89020  0.48850  Biso   1.000  C
  O19      1.0000 0.94450  0.89410  0.60110  Biso   1.000  O
  O20      1.0000 0.94510  0.94260  0.52970  Biso   1.000  O
  C28      1.0000 0.97250  0.90460  0.56290  Biso   1.000  C
  C29      1.0000 0.04480  0.87200  0.56200  Biso   1.000  C
  C30      1.0000 0.36460  0.43850  0.80070  Biso   1.000  C
  H11      1.0000 0.37670  0.43200  0.83690  Biso   1.000  H
  Cd4      1.0000 0.19654  0.57855  0.57095  Biso   1.000  Cd
  Cd5      1.0000 0.17811  0.61975  0.70645  Biso   1.000  Cd
  Cd6      1.0000 0.33646  0.44740  0.56226  Biso   1.000  Cd
  O21      1.0000 0.07500  0.58540  0.55150  Biso   1.000  O
  C31      1.0000 0.98090  0.56910  0.59890  Biso   1.000  C
  C32      1.0000 0.96200  0.57720  0.64770  Biso   1.000  C
  H12      1.0000 0.99780  0.58390  0.67740  Biso   1.000  H
  C33      1.0000 0.83770  0.56740  0.60730  Biso   1.000  C
  H13      1.0000 0.78940  0.56980  0.61020  Biso   1.000  H
  C34      1.0000 0.05890  0.56940  0.59550  Biso   1.000  C
  N4       1.0000 0.26830  0.52810  0.64360  Biso   1.000  N
  O22      1.0000 0.20360  0.68290  0.61790  Biso   1.000  O
  O23      1.0000 0.11900  0.70980  0.66360  Biso   1.000  O
  C35      1.0000 0.17410  0.80650  0.55720  Biso   1.000  C
  H14      1.0000 0.21770  0.78460  0.55610  Biso   1.000  H
  C36      1.0000 0.15400  0.86190  0.52620  Biso   1.000  C
  N5       1.0000 0.25810  0.54120  0.69170  Biso   1.000  N
  C37      1.0000 0.13070  0.78180  0.59060  Biso   1.000  C
  C38      1.0000 0.85440  0.55610  0.55900  Biso   1.000  C
  C39      1.0000 0.15220  0.72210  0.62580  Biso   1.000  C
  C40      1.0000 0.92700  0.55720  0.55530  Biso   1.000  C
  H15      1.0000 0.93970  0.54990  0.52280  Biso   1.000  H
  C41      1.0000 0.08740  0.89600  0.52740  Biso   1.000  C
  H16      1.0000 0.07270  0.93360  0.50560  Biso   1.000  H
  N6       1.0000 0.31600  0.48120  0.64180  Biso   1.000  N
  O24      1.0000 0.10580  0.55530  0.63440  Biso   1.000  O
  C42      1.0000 0.06750  0.81600  0.59420  Biso   1.000  C
  H17      1.0000 0.04010  0.80130  0.61840  Biso   1.000  H
  C43      1.0000 0.89060  0.57550  0.65230  Biso   1.000  C
  C44      1.0000 0.33890  0.45930  0.69090  Biso   1.000  C
  C45      1.0000 0.30210  0.49780  0.72140  Biso   1.000  C
  C46      1.0000 0.31550  0.48760  0.77960  Biso   1.000  C
  H18      1.0000 0.29110  0.51370  0.80080  Biso   1.000  H
  C47      1.0000 0.38850  0.40670  0.70870  Biso   1.000  C
  H19      1.0000 0.41270  0.38110  0.68710  Biso   1.000  H
  C48      1.0000 0.39730  0.39710  0.76520  Biso   1.000  C
  H20      1.0000 0.42680  0.36080  0.77990  Biso   1.000  H
  O25      1.0000 0.76570  0.05940  0.98270  Biso   1.000  O
  O26      1.0000 0.68680  0.02920  0.03050  Biso   1.000  O
  C49      1.0000 0.70310  0.04750  0.98820  Biso   1.000  C
  O27      1.0000 0.69430  0.08160  0.79350  Biso   1.000  O
  O28      1.0000 0.59020  0.11010  0.75910  Biso   1.000  O
  C50      1.0000 0.63030  0.09050  0.79660  Biso   1.000  C
  O29      1.0000 0.32920  0.43150  0.04760  Biso   1.000  O
  O30      1.0000 0.23670  0.36920  0.00450  Biso   1.000  O
  C51      1.0000 0.30070  0.39020  0.01150  Biso   1.000  C
  O31      1.0000 0.55550  0.39410  0.89890  Biso   1.000  O
  O32      1.0000 0.55490  0.44260  0.97030  Biso   1.000  O
  C52      1.0000 0.52750  0.40460  0.93710  Biso   1.000  C
  C53      1.0000 0.45520  0.37200  0.93800  Biso   1.000  C
  C54      1.0000 0.13540  0.93850  0.69930  Biso   1.000  C
  H21      1.0000 0.12330  0.93200  0.66310  Biso   1.000  H
  Cd7      1.0000 0.30346  0.07855  0.92905  Biso   1.000  Cd
  Cd8      1.0000 0.32189  0.11975  0.79355  Biso   1.000  Cd
  Cd9      1.0000 0.16354  0.94740  0.93774  Biso   1.000  Cd
  O33      1.0000 0.42500  0.08540  0.94850  Biso   1.000  O
  C55      1.0000 0.51910  0.06910  0.90110  Biso   1.000  C
  C56      1.0000 0.53800  0.07720  0.85230  Biso   1.000  C
  H22      1.0000 0.50220  0.08390  0.82260  Biso   1.000  H
  C57      1.0000 0.66230  0.06740  0.89270  Biso   1.000  C
  H23      1.0000 0.71060  0.06980  0.88980  Biso   1.000  H
  C58      1.0000 0.44110  0.06940  0.90450  Biso   1.000  C
  N7       1.0000 0.23170  0.02810  0.85640  Biso   1.000  N
  O34      1.0000 0.29640  0.18290  0.88210  Biso   1.000  O
  O35      1.0000 0.38100  0.20980  0.83640  Biso   1.000  O
  C59      1.0000 0.32590  0.30650  0.94280  Biso   1.000  C
  H24      1.0000 0.28230  0.28460  0.94390  Biso   1.000  H
  C60      1.0000 0.34600  0.36190  0.97380  Biso   1.000  C
  N8       1.0000 0.24190  0.04120  0.80830  Biso   1.000  N
  C61      1.0000 0.36930  0.28180  0.90940  Biso   1.000  C
  C62      1.0000 0.64560  0.05610  0.94100  Biso   1.000  C
  C63      1.0000 0.34780  0.22210  0.87420  Biso   1.000  C
  C64      1.0000 0.57300  0.05720  0.94470  Biso   1.000  C
  H25      1.0000 0.56030  0.04990  0.97720  Biso   1.000  H
  C65      1.0000 0.41260  0.39600  0.97260  Biso   1.000  C
  H26      1.0000 0.42730  0.43360  0.99440  Biso   1.000  H
  N9       1.0000 0.18400  0.98120  0.85820  Biso   1.000  N
  O36      1.0000 0.39420  0.05530  0.86560  Biso   1.000  O
  C66      1.0000 0.43250  0.31600  0.90580  Biso   1.000  C
  H27      1.0000 0.45990  0.30130  0.88160  Biso   1.000  H
  C67      1.0000 0.60940  0.07550  0.84770  Biso   1.000  C
  C68      1.0000 0.16110  0.95930  0.80910  Biso   1.000  C
  C69      1.0000 0.19790  0.99780  0.77860  Biso   1.000  C
  C70      1.0000 0.18450  0.98760  0.72040  Biso   1.000  C
  H28      1.0000 0.20890  0.01370  0.69920  Biso   1.000  H
  C71      1.0000 0.11150  0.90670  0.79130  Biso   1.000  C
  H29      1.0000 0.08730  0.88110  0.81290  Biso   1.000  H
  C72      1.0000 0.10270  0.89710  0.73480  Biso   1.000  C
  H30      1.0000 0.07320  0.86080  0.72010  Biso   1.000  H
  O37      1.0000 0.26570  0.55940  0.98270  Biso   1.000  O
  O38      1.0000 0.18680  0.52920  0.03050  Biso   1.000  O
  C73      1.0000 0.20310  0.54750  0.98820  Biso   1.000  C
  O39      1.0000 0.19430  0.58160  0.79350  Biso   1.000  O
  O40      1.0000 0.09020  0.61010  0.75910  Biso   1.000  O
  C74      1.0000 0.13030  0.59050  0.79660  Biso   1.000  C
  O41      1.0000 0.82920  0.93150  0.04760  Biso   1.000  O
  O42      1.0000 0.73670  0.86920  0.00450  Biso   1.000  O
  C75      1.0000 0.80070  0.89020  0.01150  Biso   1.000  C
  O43      1.0000 0.05550  0.89410  0.89890  Biso   1.000  O
  O44      1.0000 0.05490  0.94260  0.97030  Biso   1.000  O
  C76      1.0000 0.02750  0.90460  0.93710  Biso   1.000  C
  C77      1.0000 0.95520  0.87200  0.93800  Biso   1.000  C
  C78      1.0000 0.63540  0.43850  0.69930  Biso   1.000  C
  H31      1.0000 0.62330  0.43200  0.66310  Biso   1.000  H
  Cd10     1.0000 0.80346  0.57855  0.92905  Biso   1.000  Cd
  Cd11     1.0000 0.82189  0.61975  0.79355  Biso   1.000  Cd
  Cd12     1.0000 0.66354  0.44740  0.93774  Biso   1.000  Cd
  O45      1.0000 0.92500  0.58540  0.94850  Biso   1.000  O
  C79      1.0000 0.01910  0.56910  0.90110  Biso   1.000  C
  C80      1.0000 0.03800  0.57720  0.85230  Biso   1.000  C
  H32      1.0000 0.00220  0.58390  0.82260  Biso   1.000  H
  C81      1.0000 0.16230  0.56740  0.89270  Biso   1.000  C
  H33      1.0000 0.21060  0.56980  0.88980  Biso   1.000  H
  C82      1.0000 0.94110  0.56940  0.90450  Biso   1.000  C
  N10      1.0000 0.73170  0.52810  0.85640  Biso   1.000  N
  O46      1.0000 0.79640  0.68290  0.88210  Biso   1.000  O
  O47      1.0000 0.88100  0.70980  0.83640  Biso   1.000  O
  C83      1.0000 0.82590  0.80650  0.94280  Biso   1.000  C
  H34      1.0000 0.78230  0.78460  0.94390  Biso   1.000  H
  C84      1.0000 0.84600  0.86190  0.97380  Biso   1.000  C
  N11      1.0000 0.74190  0.54120  0.80830  Biso   1.000  N
  C85      1.0000 0.86930  0.78180  0.90940  Biso   1.000  C
  C86      1.0000 0.14560  0.55610  0.94100  Biso   1.000  C
  C87      1.0000 0.84780  0.72210  0.87420  Biso   1.000  C
  C88      1.0000 0.07300  0.55720  0.94470  Biso   1.000  C
  H35      1.0000 0.06030  0.54990  0.97720  Biso   1.000  H
  C89      1.0000 0.91260  0.89600  0.97260  Biso   1.000  C
  H36      1.0000 0.92730  0.93360  0.99440  Biso   1.000  H
  N12      1.0000 0.68400  0.48120  0.85820  Biso   1.000  N
  O48      1.0000 0.89420  0.55530  0.86560  Biso   1.000  O
  C90      1.0000 0.93250  0.81600  0.90580  Biso   1.000  C
  H37      1.0000 0.95990  0.80130  0.88160  Biso   1.000  H
  C91      1.0000 0.10940  0.57550  0.84770  Biso   1.000  C
  C92      1.0000 0.66110  0.45930  0.80910  Biso   1.000  C
  C93      1.0000 0.69790  0.49780  0.77860  Biso   1.000  C
  C94      1.0000 0.68450  0.48760  0.72040  Biso   1.000  C
  H38      1.0000 0.70890  0.51370  0.69920  Biso   1.000  H
  C95      1.0000 0.61150  0.40670  0.79130  Biso   1.000  C
  H39      1.0000 0.58730  0.38110  0.81290  Biso   1.000  H
  C96      1.0000 0.60270  0.39710  0.73480  Biso   1.000  C
  H40      1.0000 0.57320  0.36080  0.72010  Biso   1.000  H
  O49      1.0000 0.76570  0.94060  0.48270  Biso   1.000  O
  O50      1.0000 0.68680  0.97080  0.53050  Biso   1.000  O
  C97      1.0000 0.70310  0.95250  0.48820  Biso   1.000  C
  O51      1.0000 0.69430  0.91840  0.29350  Biso   1.000  O
  O52      1.0000 0.59020  0.88990  0.25910  Biso   1.000  O
  C98      1.0000 0.63030  0.90950  0.29660  Biso   1.000  C
  O53      1.0000 0.32920  0.56850  0.54760  Biso   1.000  O
  O54      1.0000 0.23670  0.63080  0.50450  Biso   1.000  O
  C99      1.0000 0.30070  0.60980  0.51150  Biso   1.000  C
  O55      1.0000 0.55550  0.60590  0.39890  Biso   1.000  O
  O56      1.0000 0.55490  0.55740  0.47030  Biso   1.000  O
  C100     1.0000 0.52750  0.59540  0.43710  Biso   1.000  C
  C101     1.0000 0.45520  0.62800  0.43800  Biso   1.000  C
  C102     1.0000 0.13540  0.06150  0.19930  Biso   1.000  C
  H41      1.0000 0.12330  0.06800  0.16310  Biso   1.000  H
  Cd13     1.0000 0.30346  0.92145  0.42905  Biso   1.000  Cd
  Cd14     1.0000 0.32189  0.88025  0.29355  Biso   1.000  Cd
  Cd15     1.0000 0.16354  0.05260  0.43774  Biso   1.000  Cd
  O57      1.0000 0.42500  0.91460  0.44850  Biso   1.000  O
  C103     1.0000 0.51910  0.93090  0.40110  Biso   1.000  C
  C104     1.0000 0.53800  0.92280  0.35230  Biso   1.000  C
  H42      1.0000 0.50220  0.91610  0.32260  Biso   1.000  H
  C105     1.0000 0.66230  0.93260  0.39270  Biso   1.000  C
  H43      1.0000 0.71060  0.93020  0.38980  Biso   1.000  H
  C106     1.0000 0.44110  0.93060  0.40450  Biso   1.000  C
  N13      1.0000 0.23170  0.97190  0.35640  Biso   1.000  N
  O58      1.0000 0.29640  0.81710  0.38210  Biso   1.000  O
  O59      1.0000 0.38100  0.79020  0.33640  Biso   1.000  O
  C107     1.0000 0.32590  0.69350  0.44280  Biso   1.000  C
  H44      1.0000 0.28230  0.71540  0.44390  Biso   1.000  H
  C108     1.0000 0.34600  0.63810  0.47380  Biso   1.000  C
  N14      1.0000 0.24190  0.95880  0.30830  Biso   1.000  N
  C109     1.0000 0.36930  0.71820  0.40940  Biso   1.000  C
  C110     1.0000 0.64560  0.94390  0.44100  Biso   1.000  C
  C111     1.0000 0.34780  0.77790  0.37420  Biso   1.000  C
  C112     1.0000 0.57300  0.94280  0.44470  Biso   1.000  C
  H45      1.0000 0.56030  0.95010  0.47720  Biso   1.000  H
  C113     1.0000 0.41260  0.60400  0.47260  Biso   1.000  C
  H46      1.0000 0.42730  0.56640  0.49440  Biso   1.000  H
  N15      1.0000 0.18400  0.01880  0.35820  Biso   1.000  N
  O60      1.0000 0.39420  0.94470  0.36560  Biso   1.000  O
  C114     1.0000 0.43250  0.68400  0.40580  Biso   1.000  C
  H47      1.0000 0.45990  0.69870  0.38160  Biso   1.000  H
  C115     1.0000 0.60940  0.92450  0.34770  Biso   1.000  C
  C116     1.0000 0.16110  0.04070  0.30910  Biso   1.000  C
  C117     1.0000 0.19790  0.00220  0.27860  Biso   1.000  C
  C118     1.0000 0.18450  0.01240  0.22040  Biso   1.000  C
  H48      1.0000 0.20890  0.98630  0.19920  Biso   1.000  H
  C119     1.0000 0.11150  0.09330  0.29130  Biso   1.000  C
  H49      1.0000 0.08730  0.11890  0.31290  Biso   1.000  H
  C120     1.0000 0.10270  0.10290  0.23480  Biso   1.000  C
  H50      1.0000 0.07320  0.13920  0.22010  Biso   1.000  H
  O61      1.0000 0.26570  0.44060  0.48270  Biso   1.000  O
  O62      1.0000 0.18680  0.47080  0.53050  Biso   1.000  O
  C121     1.0000 0.20310  0.45250  0.48820  Biso   1.000  C
  O63      1.0000 0.19430  0.41840  0.29350  Biso   1.000  O
  O64      1.0000 0.09020  0.38990  0.25910  Biso   1.000  O
  C122     1.0000 0.13030  0.40950  0.29660  Biso   1.000  C
  O65      1.0000 0.82920  0.06850  0.54760  Biso   1.000  O
  O66      1.0000 0.73670  0.13080  0.50450  Biso   1.000  O
  C123     1.0000 0.80070  0.10980  0.51150  Biso   1.000  C
  O67      1.0000 0.05550  0.10590  0.39890  Biso   1.000  O
  O68      1.0000 0.05490  0.05740  0.47030  Biso   1.000  O
  C124     1.0000 0.02750  0.09540  0.43710  Biso   1.000  C
  C125     1.0000 0.95520  0.12800  0.43800  Biso   1.000  C
  C126     1.0000 0.63540  0.56150  0.19930  Biso   1.000  C
  H51      1.0000 0.62330  0.56800  0.16310  Biso   1.000  H
  Cd16     1.0000 0.80346  0.42145  0.42905  Biso   1.000  Cd
  Cd17     1.0000 0.82189  0.38025  0.29355  Biso   1.000  Cd
  Cd18     1.0000 0.66354  0.55260  0.43774  Biso   1.000  Cd
  O69      1.0000 0.92500  0.41460  0.44850  Biso   1.000  O
  C127     1.0000 0.01910  0.43090  0.40110  Biso   1.000  C
  C128     1.0000 0.03800  0.42280  0.35230  Biso   1.000  C
  H52      1.0000 0.00220  0.41610  0.32260  Biso   1.000  H
  C129     1.0000 0.16230  0.43260  0.39270  Biso   1.000  C
  H53      1.0000 0.21060  0.43020  0.38980  Biso   1.000  H
  C130     1.0000 0.94110  0.43060  0.40450  Biso   1.000  C
  N16      1.0000 0.73170  0.47190  0.35640  Biso   1.000  N
  O70      1.0000 0.79640  0.31710  0.38210  Biso   1.000  O
  O71      1.0000 0.88100  0.29020  0.33640  Biso   1.000  O
  C131     1.0000 0.82590  0.19350  0.44280  Biso   1.000  C
  H54      1.0000 0.78230  0.21540  0.44390  Biso   1.000  H
  C132     1.0000 0.84600  0.13810  0.47380  Biso   1.000  C
  N17      1.0000 0.74190  0.45880  0.30830  Biso   1.000  N
  C133     1.0000 0.86930  0.21820  0.40940  Biso   1.000  C
  C134     1.0000 0.14560  0.44390  0.44100  Biso   1.000  C
  C135     1.0000 0.84780  0.27790  0.37420  Biso   1.000  C
  C136     1.0000 0.07300  0.44280  0.44470  Biso   1.000  C
  H55      1.0000 0.06030  0.45010  0.47720  Biso   1.000  H
  C137     1.0000 0.91260  0.10400  0.47260  Biso   1.000  C
  H56      1.0000 0.92730  0.06640  0.49440  Biso   1.000  H
  N18      1.0000 0.68400  0.51880  0.35820  Biso   1.000  N
  O72      1.0000 0.89420  0.44470  0.36560  Biso   1.000  O
  C138     1.0000 0.93250  0.18400  0.40580  Biso   1.000  C
  H57      1.0000 0.95990  0.19870  0.38160  Biso   1.000  H
  C139     1.0000 0.10940  0.42450  0.34770  Biso   1.000  C
  C140     1.0000 0.66110  0.54070  0.30910  Biso   1.000  C
  C141     1.0000 0.69790  0.50220  0.27860  Biso   1.000  C
  C142     1.0000 0.68450  0.51240  0.22040  Biso   1.000  C
  H58      1.0000 0.70890  0.48630  0.19920  Biso   1.000  H
  C143     1.0000 0.61150  0.59330  0.29130  Biso   1.000  C
  H59      1.0000 0.58730  0.61890  0.31290  Biso   1.000  H
  C144     1.0000 0.60270  0.60290  0.23480  Biso   1.000  C
  H60      1.0000 0.57320  0.63920  0.22010  Biso   1.000  H
  O73      1.0000 0.23430  0.94060  0.01730  Biso   1.000  O
  O74      1.0000 0.31320  0.97080  0.96950  Biso   1.000  O
  C145     1.0000 0.29690  0.95250  0.01180  Biso   1.000  C
  O75      1.0000 0.30570  0.91840  0.20650  Biso   1.000  O
  O76      1.0000 0.40980  0.88990  0.24090  Biso   1.000  O
  C146     1.0000 0.36970  0.90950  0.20340  Biso   1.000  C
  O77      1.0000 0.67080  0.56850  0.95240  Biso   1.000  O
  O78      1.0000 0.76330  0.63080  0.99550  Biso   1.000  O
  C147     1.0000 0.69930  0.60980  0.98850  Biso   1.000  C
  O79      1.0000 0.44450  0.60590  0.10110  Biso   1.000  O
  O80      1.0000 0.44510  0.55740  0.02970  Biso   1.000  O
  C148     1.0000 0.47250  0.59540  0.06290  Biso   1.000  C
  C149     1.0000 0.54480  0.62800  0.06200  Biso   1.000  C
  C150     1.0000 0.86460  0.06150  0.30070  Biso   1.000  C
  H61      1.0000 0.87670  0.06800  0.33690  Biso   1.000  H
  Cd19     1.0000 0.69654  0.92145  0.07095  Biso   1.000  Cd
  Cd20     1.0000 0.67811  0.88025  0.20645  Biso   1.000  Cd
  Cd21     1.0000 0.83646  0.05260  0.06226  Biso   1.000  Cd
  O81      1.0000 0.57500  0.91460  0.05150  Biso   1.000  O
  C151     1.0000 0.48090  0.93090  0.09890  Biso   1.000  C
  C152     1.0000 0.46200  0.92280  0.14770  Biso   1.000  C
  H62      1.0000 0.49780  0.91610  0.17740  Biso   1.000  H
  C153     1.0000 0.33770  0.93260  0.10730  Biso   1.000  C
  H63      1.0000 0.28940  0.93020  0.11020  Biso   1.000  H
  C154     1.0000 0.55890  0.93060  0.09550  Biso   1.000  C
  N19      1.0000 0.76830  0.97190  0.14360  Biso   1.000  N
  O82      1.0000 0.70360  0.81710  0.11790  Biso   1.000  O
  O83      1.0000 0.61900  0.79020  0.16360  Biso   1.000  O
  C155     1.0000 0.67410  0.69350  0.05720  Biso   1.000  C
  H64      1.0000 0.71770  0.71540  0.05610  Biso   1.000  H
  C156     1.0000 0.65400  0.63810  0.02620  Biso   1.000  C
  N20      1.0000 0.75810  0.95880  0.19170  Biso   1.000  N
  C157     1.0000 0.63070  0.71820  0.09060  Biso   1.000  C
  C158     1.0000 0.35440  0.94390  0.05900  Biso   1.000  C
  C159     1.0000 0.65220  0.77790  0.12580  Biso   1.000  C
  C160     1.0000 0.42700  0.94280  0.05530  Biso   1.000  C
  H65      1.0000 0.43970  0.95010  0.02280  Biso   1.000  H
  C161     1.0000 0.58740  0.60400  0.02740  Biso   1.000  C
  H66      1.0000 0.57270  0.56640  0.00560  Biso   1.000  H
  N21      1.0000 0.81600  0.01880  0.14180  Biso   1.000  N
  O84      1.0000 0.60580  0.94470  0.13440  Biso   1.000  O
  C162     1.0000 0.56750  0.68400  0.09420  Biso   1.000  C
  H67      1.0000 0.54010  0.69870  0.11840  Biso   1.000  H
  C163     1.0000 0.39060  0.92450  0.15230  Biso   1.000  C
  C164     1.0000 0.83890  0.04070  0.19090  Biso   1.000  C
  C165     1.0000 0.80210  0.00220  0.22140  Biso   1.000  C
  C166     1.0000 0.81550  0.01240  0.27960  Biso   1.000  C
  H68      1.0000 0.79110  0.98630  0.30080  Biso   1.000  H
  C167     1.0000 0.88850  0.09330  0.20870  Biso   1.000  C
  H69      1.0000 0.91270  0.11890  0.18710  Biso   1.000  H
  C168     1.0000 0.89730  0.10290  0.26520  Biso   1.000  C
  H70      1.0000 0.92680  0.13920  0.27990  Biso   1.000  H
  O85      1.0000 0.73430  0.44060  0.01730  Biso   1.000  O
  O86      1.0000 0.81320  0.47080  0.96950  Biso   1.000  O
  C169     1.0000 0.79690  0.45250  0.01180  Biso   1.000  C
  O87      1.0000 0.80570  0.41840  0.20650  Biso   1.000  O
  O88      1.0000 0.90980  0.38990  0.24090  Biso   1.000  O
  C170     1.0000 0.86970  0.40950  0.20340  Biso   1.000  C
  O89      1.0000 0.17080  0.06850  0.95240  Biso   1.000  O
  O90      1.0000 0.26330  0.13080  0.99550  Biso   1.000  O
  C171     1.0000 0.19930  0.10980  0.98850  Biso   1.000  C
  O91      1.0000 0.94450  0.10590  0.10110  Biso   1.000  O
  O92      1.0000 0.94510  0.05740  0.02970  Biso   1.000  O
  C172     1.0000 0.97250  0.09540  0.06290  Biso   1.000  C
  C173     1.0000 0.04480  0.12800  0.06200  Biso   1.000  C
  C174     1.0000 0.36460  0.56150  0.30070  Biso   1.000  C
  H71      1.0000 0.37670  0.56800  0.33690  Biso   1.000  H
  Cd22     1.0000 0.19654  0.42145  0.07095  Biso   1.000  Cd
  Cd23     1.0000 0.17811  0.38025  0.20645  Biso   1.000  Cd
  Cd24     1.0000 0.33646  0.55260  0.06226  Biso   1.000  Cd
  O93      1.0000 0.07500  0.41460  0.05150  Biso   1.000  O
  C175     1.0000 0.98090  0.43090  0.09890  Biso   1.000  C
  C176     1.0000 0.96200  0.42280  0.14770  Biso   1.000  C
  H72      1.0000 0.99780  0.41610  0.17740  Biso   1.000  H
  C177     1.0000 0.83770  0.43260  0.10730  Biso   1.000  C
  H73      1.0000 0.78940  0.43020  0.11020  Biso   1.000  H
  C178     1.0000 0.05890  0.43060  0.09550  Biso   1.000  C
  N22      1.0000 0.26830  0.47190  0.14360  Biso   1.000  N
  O94      1.0000 0.20360  0.31710  0.11790  Biso   1.000  O
  O95      1.0000 0.11900  0.29020  0.16360  Biso   1.000  O
  C179     1.0000 0.17410  0.19350  0.05720  Biso   1.000  C
  H74      1.0000 0.21770  0.21540  0.05610  Biso   1.000  H
  C180     1.0000 0.15400  0.13810  0.02620  Biso   1.000  C
  N23      1.0000 0.25810  0.45880  0.19170  Biso   1.000  N
  C181     1.0000 0.13070  0.21820  0.09060  Biso   1.000  C
  C182     1.0000 0.85440  0.44390  0.05900  Biso   1.000  C
  C183     1.0000 0.15220  0.27790  0.12580  Biso   1.000  C
  C184     1.0000 0.92700  0.44280  0.05530  Biso   1.000  C
  H75      1.0000 0.93970  0.45010  0.02280  Biso   1.000  H
  C185     1.0000 0.08740  0.10400  0.02740  Biso   1.000  C
  H76      1.0000 0.07270  0.06640  0.00560  Biso   1.000  H
  N24      1.0000 0.31600  0.51880  0.14180  Biso   1.000  N
  O96      1.0000 0.10580  0.44470  0.13440  Biso   1.000  O
  C186     1.0000 0.06750  0.18400  0.09420  Biso   1.000  C
  H77      1.0000 0.04010  0.19870  0.11840  Biso   1.000  H
  C187     1.0000 0.89060  0.42450  0.15230  Biso   1.000  C
  C188     1.0000 0.33890  0.54070  0.19090  Biso   1.000  C
  C189     1.0000 0.30210  0.50220  0.22140  Biso   1.000  C
  C190     1.0000 0.31550  0.51240  0.27960  Biso   1.000  C
  H78      1.0000 0.29110  0.48630  0.30080  Biso   1.000  H
  C191     1.0000 0.38850  0.59330  0.20870  Biso   1.000  C
  H79      1.0000 0.41270  0.61890  0.18710  Biso   1.000  H
  C192     1.0000 0.39730  0.60290  0.26520  Biso   1.000  C
  H80      1.0000 0.42680  0.63920  0.27990  Biso   1.000  H
