data_image0
_cell_length_a       9.203
_cell_length_b       15.776
_cell_length_c       31.587
_cell_angle_alpha    90
_cell_angle_beta     90
_cell_angle_gamma    90

_symmetry_space_group_name_H-M    "P 1"
_symmetry_int_tables_number       1

loop_
  _symmetry_equiv_pos_as_xyz
  'x, y, z'

loop_
  _atom_site_label
  _atom_site_occupancy
  _atom_site_fract_x
  _atom_site_fract_y
  _atom_site_fract_z
  _atom_site_thermal_displace_type
  _atom_site_B_iso_or_equiv
  _atom_site_type_symbol
  P1       1.0000 0.10185  0.30470  0.30866  Biso   1.000  P
  O1       1.0000 0.05250  0.35630  0.27112  Biso   1.000  O
  O2       1.0000 0.98720  0.29435  0.34228  Biso   1.000  O
  O3       1.0000 0.17130  0.22186  0.29649  Biso   1.000  O
  O4       1.0000 0.22790  0.35930  0.33108  Biso   1.000  O
  H1       1.0000 0.31900  0.35900  0.32100  Biso   1.000  H
  H2       1.0000 0.18100  0.35500  0.35570  Biso   1.000  H
  P2       1.0000 0.10185  0.80470  0.80866  Biso   1.000  P
  O5       1.0000 0.05250  0.85630  0.77112  Biso   1.000  O
  O6       1.0000 0.98720  0.79435  0.84228  Biso   1.000  O
  O7       1.0000 0.17130  0.72186  0.79649  Biso   1.000  O
  O8       1.0000 0.22790  0.85930  0.83108  Biso   1.000  O
  H3       1.0000 0.31900  0.85900  0.82100  Biso   1.000  H
  H4       1.0000 0.18100  0.85500  0.85570  Biso   1.000  H
  P3       1.0000 0.60185  0.30470  0.80866  Biso   1.000  P
  O9       1.0000 0.55250  0.35630  0.77112  Biso   1.000  O
  O10      1.0000 0.48720  0.29435  0.84228  Biso   1.000  O
  O11      1.0000 0.67130  0.22186  0.79649  Biso   1.000  O
  O12      1.0000 0.72790  0.35930  0.83108  Biso   1.000  O
  H5       1.0000 0.81900  0.35900  0.82100  Biso   1.000  H
  H6       1.0000 0.68100  0.35500  0.85570  Biso   1.000  H
  P4       1.0000 0.60185  0.80470  0.30866  Biso   1.000  P
  O13      1.0000 0.55250  0.85630  0.27112  Biso   1.000  O
  O14      1.0000 0.48720  0.79435  0.34228  Biso   1.000  O
  O15      1.0000 0.67130  0.72186  0.29649  Biso   1.000  O
  O16      1.0000 0.72790  0.85930  0.33108  Biso   1.000  O
  H7       1.0000 0.81900  0.85900  0.32100  Biso   1.000  H
  H8       1.0000 0.68100  0.85500  0.35570  Biso   1.000  H
  P5       1.0000 0.64815  0.44530  0.30866  Biso   1.000  P
  O17      1.0000 0.69750  0.39370  0.27112  Biso   1.000  O
  O18      1.0000 0.76280  0.45565  0.34228  Biso   1.000  O
  O19      1.0000 0.57870  0.52814  0.29649  Biso   1.000  O
  O20      1.0000 0.52210  0.39070  0.33108  Biso   1.000  O
  H9       1.0000 0.43100  0.39100  0.32100  Biso   1.000  H
  H10      1.0000 0.56900  0.39500  0.35570  Biso   1.000  H
  P6       1.0000 0.64815  0.94530  0.80866  Biso   1.000  P
  O21      1.0000 0.69750  0.89370  0.77112  Biso   1.000  O
  O22      1.0000 0.76280  0.95565  0.84228  Biso   1.000  O
  O23      1.0000 0.57870  0.02814  0.79649  Biso   1.000  O
  O24      1.0000 0.52210  0.89070  0.83108  Biso   1.000  O
  H11      1.0000 0.43100  0.89100  0.82100  Biso   1.000  H
  H12      1.0000 0.56900  0.89500  0.85570  Biso   1.000  H
  P7       1.0000 0.14815  0.44530  0.80866  Biso   1.000  P
  O25      1.0000 0.19750  0.39370  0.77112  Biso   1.000  O
  O26      1.0000 0.26280  0.45565  0.84228  Biso   1.000  O
  O27      1.0000 0.07870  0.52814  0.79649  Biso   1.000  O
  O28      1.0000 0.02210  0.39070  0.83108  Biso   1.000  O
  H13      1.0000 0.93100  0.39100  0.82100  Biso   1.000  H
  H14      1.0000 0.06900  0.39500  0.85570  Biso   1.000  H
  P8       1.0000 0.14815  0.94530  0.30866  Biso   1.000  P
  O29      1.0000 0.19750  0.89370  0.27112  Biso   1.000  O
  O30      1.0000 0.26280  0.95565  0.34228  Biso   1.000  O
  O31      1.0000 0.07870  0.02814  0.29649  Biso   1.000  O
  O32      1.0000 0.02210  0.89070  0.33108  Biso   1.000  O
  H15      1.0000 0.93100  0.89100  0.32100  Biso   1.000  H
  H16      1.0000 0.06900  0.89500  0.35570  Biso   1.000  H
  P9       1.0000 0.64815  0.30470  0.44134  Biso   1.000  P
  O33      1.0000 0.69750  0.35630  0.47888  Biso   1.000  O
  O34      1.0000 0.76280  0.29435  0.40772  Biso   1.000  O
  O35      1.0000 0.57870  0.22186  0.45351  Biso   1.000  O
  O36      1.0000 0.52210  0.35930  0.41892  Biso   1.000  O
  H17      1.0000 0.43100  0.35900  0.42900  Biso   1.000  H
  H18      1.0000 0.56900  0.35500  0.39430  Biso   1.000  H
  P10      1.0000 0.64815  0.80470  0.94134  Biso   1.000  P
  O37      1.0000 0.69750  0.85630  0.97888  Biso   1.000  O
  O38      1.0000 0.76280  0.79435  0.90772  Biso   1.000  O
  O39      1.0000 0.57870  0.72186  0.95351  Biso   1.000  O
  O40      1.0000 0.52210  0.85930  0.91892  Biso   1.000  O
  H19      1.0000 0.43100  0.85900  0.92900  Biso   1.000  H
  H20      1.0000 0.56900  0.85500  0.89430  Biso   1.000  H
  P11      1.0000 0.14815  0.30470  0.94134  Biso   1.000  P
  O41      1.0000 0.19750  0.35630  0.97888  Biso   1.000  O
  O42      1.0000 0.26280  0.29435  0.90772  Biso   1.000  O
  O43      1.0000 0.07870  0.22186  0.95351  Biso   1.000  O
  O44      1.0000 0.02210  0.35930  0.91892  Biso   1.000  O
  H21      1.0000 0.93100  0.35900  0.92900  Biso   1.000  H
  H22      1.0000 0.06900  0.35500  0.89430  Biso   1.000  H
  P12      1.0000 0.14815  0.80470  0.44134  Biso   1.000  P
  O45      1.0000 0.19750  0.85630  0.47888  Biso   1.000  O
  O46      1.0000 0.26280  0.79435  0.40772  Biso   1.000  O
  O47      1.0000 0.07870  0.72186  0.45351  Biso   1.000  O
  O48      1.0000 0.02210  0.85930  0.41892  Biso   1.000  O
  H23      1.0000 0.93100  0.85900  0.42900  Biso   1.000  H
  H24      1.0000 0.06900  0.85500  0.39430  Biso   1.000  H
  P13      1.0000 0.10185  0.44530  0.44134  Biso   1.000  P
  O49      1.0000 0.05250  0.39370  0.47888  Biso   1.000  O
  O50      1.0000 0.98720  0.45565  0.40772  Biso   1.000  O
  O51      1.0000 0.17130  0.52814  0.45351  Biso   1.000  O
  O52      1.0000 0.22790  0.39070  0.41892  Biso   1.000  O
  H25      1.0000 0.31900  0.39100  0.42900  Biso   1.000  H
  H26      1.0000 0.18100  0.39500  0.39430  Biso   1.000  H
  P14      1.0000 0.10185  0.94530  0.94134  Biso   1.000  P
  O53      1.0000 0.05250  0.89370  0.97888  Biso   1.000  O
  O54      1.0000 0.98720  0.95565  0.90772  Biso   1.000  O
  O55      1.0000 0.17130  0.02814  0.95351  Biso   1.000  O
  O56      1.0000 0.22790  0.89070  0.91892  Biso   1.000  O
  H27      1.0000 0.31900  0.89100  0.92900  Biso   1.000  H
  H28      1.0000 0.18100  0.89500  0.89430  Biso   1.000  H
  P15      1.0000 0.60185  0.44530  0.94134  Biso   1.000  P
  O57      1.0000 0.55250  0.39370  0.97888  Biso   1.000  O
  O58      1.0000 0.48720  0.45565  0.90772  Biso   1.000  O
  O59      1.0000 0.67130  0.52814  0.95351  Biso   1.000  O
  O60      1.0000 0.72790  0.39070  0.91892  Biso   1.000  O
  H29      1.0000 0.81900  0.39100  0.92900  Biso   1.000  H
  H30      1.0000 0.68100  0.39500  0.89430  Biso   1.000  H
  P16      1.0000 0.60185  0.94530  0.44134  Biso   1.000  P
  O61      1.0000 0.55250  0.89370  0.47888  Biso   1.000  O
  O62      1.0000 0.48720  0.95565  0.40772  Biso   1.000  O
  O63      1.0000 0.67130  0.02814  0.45351  Biso   1.000  O
  O64      1.0000 0.72790  0.89070  0.41892  Biso   1.000  O
  H31      1.0000 0.81900  0.89100  0.42900  Biso   1.000  H
  H32      1.0000 0.68100  0.89500  0.39430  Biso   1.000  H
  P17      1.0000 0.89815  0.69530  0.69134  Biso   1.000  P
  O65      1.0000 0.94750  0.64370  0.72888  Biso   1.000  O
  O66      1.0000 0.01280  0.70565  0.65772  Biso   1.000  O
  O67      1.0000 0.82870  0.77814  0.70351  Biso   1.000  O
  O68      1.0000 0.77210  0.64070  0.66892  Biso   1.000  O
  H33      1.0000 0.68100  0.64100  0.67900  Biso   1.000  H
  H34      1.0000 0.81900  0.64500  0.64430  Biso   1.000  H
  P18      1.0000 0.89815  0.19530  0.19134  Biso   1.000  P
  O69      1.0000 0.94750  0.14370  0.22888  Biso   1.000  O
  O70      1.0000 0.01280  0.20565  0.15772  Biso   1.000  O
  O71      1.0000 0.82870  0.27814  0.20351  Biso   1.000  O
  O72      1.0000 0.77210  0.14070  0.16892  Biso   1.000  O
  H35      1.0000 0.68100  0.14100  0.17900  Biso   1.000  H
  H36      1.0000 0.81900  0.14500  0.14430  Biso   1.000  H
  P19      1.0000 0.39815  0.69530  0.19134  Biso   1.000  P
  O73      1.0000 0.44750  0.64370  0.22888  Biso   1.000  O
  O74      1.0000 0.51280  0.70565  0.15772  Biso   1.000  O
  O75      1.0000 0.32870  0.77814  0.20351  Biso   1.000  O
  O76      1.0000 0.27210  0.64070  0.16892  Biso   1.000  O
  H37      1.0000 0.18100  0.64100  0.17900  Biso   1.000  H
  H38      1.0000 0.31900  0.64500  0.14430  Biso   1.000  H
  P20      1.0000 0.39815  0.19530  0.69134  Biso   1.000  P
  O77      1.0000 0.44750  0.14370  0.72888  Biso   1.000  O
  O78      1.0000 0.51280  0.20565  0.65772  Biso   1.000  O
  O79      1.0000 0.32870  0.27814  0.70351  Biso   1.000  O
  O80      1.0000 0.27210  0.14070  0.66892  Biso   1.000  O
  H39      1.0000 0.18100  0.14100  0.67900  Biso   1.000  H
  H40      1.0000 0.31900  0.14500  0.64430  Biso   1.000  H
  P21      1.0000 0.35185  0.55470  0.69134  Biso   1.000  P
  O81      1.0000 0.30250  0.60630  0.72888  Biso   1.000  O
  O82      1.0000 0.23720  0.54435  0.65772  Biso   1.000  O
  O83      1.0000 0.42130  0.47186  0.70351  Biso   1.000  O
  O84      1.0000 0.47790  0.60930  0.66892  Biso   1.000  O
  H41      1.0000 0.56900  0.60900  0.67900  Biso   1.000  H
  H42      1.0000 0.43100  0.60500  0.64430  Biso   1.000  H
  P22      1.0000 0.35185  0.05470  0.19134  Biso   1.000  P
  O85      1.0000 0.30250  0.10630  0.22888  Biso   1.000  O
  O86      1.0000 0.23720  0.04435  0.15772  Biso   1.000  O
  O87      1.0000 0.42130  0.97186  0.20351  Biso   1.000  O
  O88      1.0000 0.47790  0.10930  0.16892  Biso   1.000  O
  H43      1.0000 0.56900  0.10900  0.17900  Biso   1.000  H
  H44      1.0000 0.43100  0.10500  0.14430  Biso   1.000  H
  P23      1.0000 0.85185  0.55470  0.19134  Biso   1.000  P
  O89      1.0000 0.80250  0.60630  0.22888  Biso   1.000  O
  O90      1.0000 0.73720  0.54435  0.15772  Biso   1.000  O
  O91      1.0000 0.92130  0.47186  0.20351  Biso   1.000  O
  O92      1.0000 0.97790  0.60930  0.16892  Biso   1.000  O
  H45      1.0000 0.06900  0.60900  0.17900  Biso   1.000  H
  H46      1.0000 0.93100  0.60500  0.14430  Biso   1.000  H
  P24      1.0000 0.85185  0.05470  0.69134  Biso   1.000  P
  O93      1.0000 0.80250  0.10630  0.72888  Biso   1.000  O
  O94      1.0000 0.73720  0.04435  0.65772  Biso   1.000  O
  O95      1.0000 0.92130  0.97186  0.70351  Biso   1.000  O
  O96      1.0000 0.97790  0.10930  0.66892  Biso   1.000  O
  H47      1.0000 0.06900  0.10900  0.67900  Biso   1.000  H
  H48      1.0000 0.93100  0.10500  0.64430  Biso   1.000  H
  P25      1.0000 0.35185  0.69530  0.55866  Biso   1.000  P
  O97      1.0000 0.30250  0.64370  0.52112  Biso   1.000  O
  O98      1.0000 0.23720  0.70565  0.59228  Biso   1.000  O
  O99      1.0000 0.42130  0.77814  0.54649  Biso   1.000  O
  O100     1.0000 0.47790  0.64070  0.58108  Biso   1.000  O
  H49      1.0000 0.56900  0.64100  0.57100  Biso   1.000  H
  H50      1.0000 0.43100  0.64500  0.60570  Biso   1.000  H
  P26      1.0000 0.35185  0.19530  0.05866  Biso   1.000  P
  O101     1.0000 0.30250  0.14370  0.02112  Biso   1.000  O
  O102     1.0000 0.23720  0.20565  0.09228  Biso   1.000  O
  O103     1.0000 0.42130  0.27814  0.04649  Biso   1.000  O
  O104     1.0000 0.47790  0.14070  0.08108  Biso   1.000  O
  H51      1.0000 0.56900  0.14100  0.07100  Biso   1.000  H
  H52      1.0000 0.43100  0.14500  0.10570  Biso   1.000  H
  P27      1.0000 0.85185  0.69530  0.05866  Biso   1.000  P
  O105     1.0000 0.80250  0.64370  0.02112  Biso   1.000  O
  O106     1.0000 0.73720  0.70565  0.09228  Biso   1.000  O
  O107     1.0000 0.92130  0.77814  0.04649  Biso   1.000  O
  O108     1.0000 0.97790  0.64070  0.08108  Biso   1.000  O
  H53      1.0000 0.06900  0.64100  0.07100  Biso   1.000  H
  H54      1.0000 0.93100  0.64500  0.10570  Biso   1.000  H
  P28      1.0000 0.85185  0.19530  0.55866  Biso   1.000  P
  O109     1.0000 0.80250  0.14370  0.52112  Biso   1.000  O
  O110     1.0000 0.73720  0.20565  0.59228  Biso   1.000  O
  O111     1.0000 0.92130  0.27814  0.54649  Biso   1.000  O
  O112     1.0000 0.97790  0.14070  0.58108  Biso   1.000  O
  H55      1.0000 0.06900  0.14100  0.57100  Biso   1.000  H
  H56      1.0000 0.93100  0.14500  0.60570  Biso   1.000  H
  P29      1.0000 0.89815  0.55470  0.55866  Biso   1.000  P
  O113     1.0000 0.94750  0.60630  0.52112  Biso   1.000  O
  O114     1.0000 0.01280  0.54435  0.59228  Biso   1.000  O
  O115     1.0000 0.82870  0.47186  0.54649  Biso   1.000  O
  O116     1.0000 0.77210  0.60930  0.58108  Biso   1.000  O
  H57      1.0000 0.68100  0.60900  0.57100  Biso   1.000  H
  H58      1.0000 0.81900  0.60500  0.60570  Biso   1.000  H
  P30      1.0000 0.89815  0.05470  0.05866  Biso   1.000  P
  O117     1.0000 0.94750  0.10630  0.02112  Biso   1.000  O
  O118     1.0000 0.01280  0.04435  0.09228  Biso   1.000  O
  O119     1.0000 0.82870  0.97186  0.04649  Biso   1.000  O
  O120     1.0000 0.77210  0.10930  0.08108  Biso   1.000  O
  H59      1.0000 0.68100  0.10900  0.07100  Biso   1.000  H
  H60      1.0000 0.81900  0.10500  0.10570  Biso   1.000  H
  P31      1.0000 0.39815  0.55470  0.05866  Biso   1.000  P
  O121     1.0000 0.44750  0.60630  0.02112  Biso   1.000  O
  O122     1.0000 0.51280  0.54435  0.09228  Biso   1.000  O
  O123     1.0000 0.32870  0.47186  0.04649  Biso   1.000  O
  O124     1.0000 0.27210  0.60930  0.08108  Biso   1.000  O
  H61      1.0000 0.18100  0.60900  0.07100  Biso   1.000  H
  H62      1.0000 0.31900  0.60500  0.10570  Biso   1.000  H
  P32      1.0000 0.39815  0.05470  0.55866  Biso   1.000  P
  O125     1.0000 0.44750  0.10630  0.52112  Biso   1.000  O
  O126     1.0000 0.51280  0.04435  0.59228  Biso   1.000  O
  O127     1.0000 0.32870  0.97186  0.54649  Biso   1.000  O
  O128     1.0000 0.27210  0.10930  0.58108  Biso   1.000  O
  H63      1.0000 0.18100  0.10900  0.57100  Biso   1.000  H
  H64      1.0000 0.31900  0.10500  0.60570  Biso   1.000  H
  Zn1      1.0000 0.87500  0.37500  0.37500  Biso   1.000  Zn
  Zn2      1.0000 0.87500  0.87500  0.87500  Biso   1.000  Zn
  Zn3      1.0000 0.37500  0.37500  0.87500  Biso   1.000  Zn
  Zn4      1.0000 0.37500  0.87500  0.37500  Biso   1.000  Zn
  Zn5      1.0000 0.12500  0.62500  0.62500  Biso   1.000  Zn
  Zn6      1.0000 0.12500  0.12500  0.12500  Biso   1.000  Zn
  Zn7      1.0000 0.62500  0.62500  0.12500  Biso   1.000  Zn
  Zn8      1.0000 0.62500  0.12500  0.62500  Biso   1.000  Zn
  Zn9      1.0000 0.87500  0.37500  0.23928  Biso   1.000  Zn
  Zn10     1.0000 0.87500  0.87500  0.73928  Biso   1.000  Zn
  Zn11     1.0000 0.37500  0.37500  0.73928  Biso   1.000  Zn
  Zn12     1.0000 0.37500  0.87500  0.23928  Biso   1.000  Zn
  Zn13     1.0000 0.87500  0.37500  0.51072  Biso   1.000  Zn
  Zn14     1.0000 0.87500  0.87500  0.01072  Biso   1.000  Zn
  Zn15     1.0000 0.37500  0.37500  0.01072  Biso   1.000  Zn
  Zn16     1.0000 0.37500  0.87500  0.51072  Biso   1.000  Zn
  Zn17     1.0000 0.12500  0.62500  0.76072  Biso   1.000  Zn
  Zn18     1.0000 0.12500  0.12500  0.26072  Biso   1.000  Zn
  Zn19     1.0000 0.62500  0.62500  0.26072  Biso   1.000  Zn
  Zn20     1.0000 0.62500  0.12500  0.76072  Biso   1.000  Zn
  Zn21     1.0000 0.12500  0.62500  0.48928  Biso   1.000  Zn
  Zn22     1.0000 0.12500  0.12500  0.98928  Biso   1.000  Zn
  Zn23     1.0000 0.62500  0.62500  0.98928  Biso   1.000  Zn
  Zn24     1.0000 0.62500  0.12500  0.48928  Biso   1.000  Zn
