data_image0
_cell_length_a       13.717
_cell_length_b       13.717
_cell_length_c       58.97
_cell_angle_alpha    90
_cell_angle_beta     90
_cell_angle_gamma    120

_symmetry_space_group_name_H-M    "P 1"
_symmetry_int_tables_number       1

loop_
  _symmetry_equiv_pos_as_xyz
  'x, y, z'

loop_
  _atom_site_label
  _atom_site_occupancy
  _atom_site_fract_x
  _atom_site_fract_y
  _atom_site_fract_z
  _atom_site_thermal_displace_type
  _atom_site_B_iso_or_equiv
  _atom_site_type_symbol
  C1       1.0000 0.85330  0.01880  0.03903  Biso   1.000  C
  H1       1.0000 0.84140  0.95190  0.04550  Biso   1.000  H
  C2       1.0000 0.91000  0.16030  0.01742  Biso   1.000  C
  H2       1.0000 0.94590  0.21140  0.00570  Biso   1.000  H
  C3       1.0000 0.84320  0.16950  0.03295  Biso   1.000  C
  H3       1.0000 0.82550  0.22650  0.03410  Biso   1.000  H
  C4       1.0000 0.73350  0.05100  0.06584  Biso   1.000  C
  C5       1.0000 0.70100  0.12090  0.07431  Biso   1.000  C
  H4       1.0000 0.72540  0.19130  0.06790  Biso   1.000  H
  N1       1.0000 0.91810  0.06700  0.02104  Biso   1.000  N
  N2       1.0000 0.80700  0.07870  0.04666  Biso   1.000  N
  N3       1.0000 0.70020  0.95180  0.07378  Biso   1.000  N
  C6       1.0000 0.51997  0.35213  0.37236  Biso   1.000  C
  H5       1.0000 0.50807  0.28523  0.37883  Biso   1.000  H
  C7       1.0000 0.57667  0.49363  0.35075  Biso   1.000  C
  H6       1.0000 0.61257  0.54473  0.33903  Biso   1.000  H
  C8       1.0000 0.50987  0.50283  0.36628  Biso   1.000  C
  H7       1.0000 0.49217  0.55983  0.36743  Biso   1.000  H
  C9       1.0000 0.40017  0.38433  0.39917  Biso   1.000  C
  C10      1.0000 0.36767  0.45423  0.40764  Biso   1.000  C
  H8       1.0000 0.39207  0.52463  0.40123  Biso   1.000  H
  N4       1.0000 0.58477  0.40033  0.35437  Biso   1.000  N
  N5       1.0000 0.47367  0.41203  0.37999  Biso   1.000  N
  N6       1.0000 0.36687  0.28513  0.40711  Biso   1.000  N
  C11      1.0000 0.18663  0.68547  0.70570  Biso   1.000  C
  H9       1.0000 0.17473  0.61857  0.71217  Biso   1.000  H
  C12      1.0000 0.24333  0.82697  0.68409  Biso   1.000  C
  H10      1.0000 0.27923  0.87807  0.67237  Biso   1.000  H
  C13      1.0000 0.17653  0.83617  0.69962  Biso   1.000  C
  H11      1.0000 0.15883  0.89317  0.70077  Biso   1.000  H
  C14      1.0000 0.06683  0.71767  0.73251  Biso   1.000  C
  C15      1.0000 0.03433  0.78757  0.74098  Biso   1.000  C
  H12      1.0000 0.05873  0.85797  0.73457  Biso   1.000  H
  N7       1.0000 0.25143  0.73367  0.68771  Biso   1.000  N
  N8       1.0000 0.14033  0.74537  0.71333  Biso   1.000  N
  N9       1.0000 0.03353  0.61847  0.74045  Biso   1.000  N
  C16      1.0000 0.98120  0.83450  0.03903  Biso   1.000  C
  H13      1.0000 0.04810  0.88950  0.04550  Biso   1.000  H
  C17      1.0000 0.83970  0.74970  0.01742  Biso   1.000  C
  H14      1.0000 0.78860  0.73450  0.00570  Biso   1.000  H
  C18      1.0000 0.83050  0.67370  0.03295  Biso   1.000  C
  H15      1.0000 0.77350  0.59900  0.03410  Biso   1.000  H
  C19      1.0000 0.94900  0.68250  0.06584  Biso   1.000  C
  C20      1.0000 0.87910  0.58010  0.07431  Biso   1.000  C
  H16      1.0000 0.80870  0.53410  0.06790  Biso   1.000  H
  N10      1.0000 0.93300  0.85110  0.02104  Biso   1.000  N
  N11      1.0000 0.92130  0.72830  0.04666  Biso   1.000  N
  N12      1.0000 0.04820  0.74840  0.07378  Biso   1.000  N
  C21      1.0000 0.64787  0.16783  0.37236  Biso   1.000  C
  H17      1.0000 0.71477  0.22283  0.37883  Biso   1.000  H
  C22      1.0000 0.50637  0.08303  0.35075  Biso   1.000  C
  H18      1.0000 0.45527  0.06783  0.33903  Biso   1.000  H
  C23      1.0000 0.49717  0.00703  0.36628  Biso   1.000  C
  H19      1.0000 0.44017  0.93233  0.36743  Biso   1.000  H
  C24      1.0000 0.61567  0.01583  0.39917  Biso   1.000  C
  C25      1.0000 0.54577  0.91343  0.40764  Biso   1.000  C
  H20      1.0000 0.47537  0.86743  0.40123  Biso   1.000  H
  N13      1.0000 0.59967  0.18443  0.35437  Biso   1.000  N
  N14      1.0000 0.58797  0.06163  0.37999  Biso   1.000  N
  N15      1.0000 0.71487  0.08173  0.40711  Biso   1.000  N
  C26      1.0000 0.31453  0.50117  0.70570  Biso   1.000  C
  H21      1.0000 0.38143  0.55617  0.71217  Biso   1.000  H
  C27      1.0000 0.17303  0.41637  0.68409  Biso   1.000  C
  H22      1.0000 0.12193  0.40117  0.67237  Biso   1.000  H
  C28      1.0000 0.16383  0.34037  0.69962  Biso   1.000  C
  H23      1.0000 0.10683  0.26567  0.70077  Biso   1.000  H
  C29      1.0000 0.28233  0.34917  0.73251  Biso   1.000  C
  C30      1.0000 0.21243  0.24677  0.74098  Biso   1.000  C
  H24      1.0000 0.14203  0.20077  0.73457  Biso   1.000  H
  N16      1.0000 0.26633  0.51777  0.68771  Biso   1.000  N
  N17      1.0000 0.25463  0.39497  0.71333  Biso   1.000  N
  N18      1.0000 0.38153  0.41507  0.74045  Biso   1.000  N
  C31      1.0000 0.16550  0.14670  0.03903  Biso   1.000  C
  H25      1.0000 0.11050  0.15860  0.04550  Biso   1.000  H
  C32      1.0000 0.25030  0.09000  0.01742  Biso   1.000  C
  H26      1.0000 0.26550  0.05410  0.00570  Biso   1.000  H
  C33      1.0000 0.32630  0.15680  0.03295  Biso   1.000  C
  H27      1.0000 0.40100  0.17450  0.03410  Biso   1.000  H
  C34      1.0000 0.31750  0.26650  0.06584  Biso   1.000  C
  C35      1.0000 0.41990  0.29900  0.07431  Biso   1.000  C
  H28      1.0000 0.46590  0.27460  0.06790  Biso   1.000  H
  N19      1.0000 0.14890  0.08190  0.02104  Biso   1.000  N
  N20      1.0000 0.27170  0.19300  0.04666  Biso   1.000  N
  N21      1.0000 0.25160  0.29980  0.07378  Biso   1.000  N
  C36      1.0000 0.83217  0.48003  0.37236  Biso   1.000  C
  H29      1.0000 0.77717  0.49193  0.37883  Biso   1.000  H
  C37      1.0000 0.91697  0.42333  0.35075  Biso   1.000  C
  H30      1.0000 0.93217  0.38743  0.33903  Biso   1.000  H
  C38      1.0000 0.99297  0.49013  0.36628  Biso   1.000  C
  H31      1.0000 0.06767  0.50783  0.36743  Biso   1.000  H
  C39      1.0000 0.98417  0.59983  0.39917  Biso   1.000  C
  C40      1.0000 0.08657  0.63233  0.40764  Biso   1.000  C
  H32      1.0000 0.13257  0.60793  0.40123  Biso   1.000  H
  N22      1.0000 0.81557  0.41523  0.35437  Biso   1.000  N
  N23      1.0000 0.93837  0.52633  0.37999  Biso   1.000  N
  N24      1.0000 0.91827  0.63313  0.40711  Biso   1.000  N
  C41      1.0000 0.49883  0.81337  0.70570  Biso   1.000  C
  H33      1.0000 0.44383  0.82527  0.71217  Biso   1.000  H
  C42      1.0000 0.58363  0.75667  0.68409  Biso   1.000  C
  H34      1.0000 0.59883  0.72077  0.67237  Biso   1.000  H
  C43      1.0000 0.65963  0.82347  0.69962  Biso   1.000  C
  H35      1.0000 0.73433  0.84117  0.70077  Biso   1.000  H
  C44      1.0000 0.65083  0.93317  0.73251  Biso   1.000  C
  C45      1.0000 0.75323  0.96567  0.74098  Biso   1.000  C
  H36      1.0000 0.79923  0.94127  0.73457  Biso   1.000  H
  N25      1.0000 0.48223  0.74857  0.68771  Biso   1.000  N
  N26      1.0000 0.60503  0.85967  0.71333  Biso   1.000  N
  N27      1.0000 0.58493  0.96647  0.74045  Biso   1.000  N
  C46      1.0000 0.01880  0.85330  0.46097  Biso   1.000  C
  H37      1.0000 0.95190  0.84140  0.45450  Biso   1.000  H
  C47      1.0000 0.16030  0.91000  0.48258  Biso   1.000  C
  H38      1.0000 0.21140  0.94590  0.49430  Biso   1.000  H
  C48      1.0000 0.16950  0.84320  0.46705  Biso   1.000  C
  H39      1.0000 0.22650  0.82550  0.46590  Biso   1.000  H
  C49      1.0000 0.05100  0.73350  0.43416  Biso   1.000  C
  C50      1.0000 0.12090  0.70100  0.42569  Biso   1.000  C
  H40      1.0000 0.19130  0.72540  0.43210  Biso   1.000  H
  N28      1.0000 0.06700  0.91810  0.47896  Biso   1.000  N
  N29      1.0000 0.07870  0.80700  0.45334  Biso   1.000  N
  N30      1.0000 0.95180  0.70020  0.42622  Biso   1.000  N
  C51      1.0000 0.68547  0.18663  0.79430  Biso   1.000  C
  H41      1.0000 0.61857  0.17473  0.78783  Biso   1.000  H
  C52      1.0000 0.82697  0.24333  0.81591  Biso   1.000  C
  H42      1.0000 0.87807  0.27923  0.82763  Biso   1.000  H
  C53      1.0000 0.83617  0.17653  0.80038  Biso   1.000  C
  H43      1.0000 0.89317  0.15883  0.79923  Biso   1.000  H
  C54      1.0000 0.71767  0.06683  0.76749  Biso   1.000  C
  C55      1.0000 0.78757  0.03433  0.75902  Biso   1.000  C
  H44      1.0000 0.85797  0.05873  0.76543  Biso   1.000  H
  N31      1.0000 0.73367  0.25143  0.81229  Biso   1.000  N
  N32      1.0000 0.74537  0.14033  0.78667  Biso   1.000  N
  N33      1.0000 0.61847  0.03353  0.75955  Biso   1.000  N
  C56      1.0000 0.35213  0.51997  0.12764  Biso   1.000  C
  H45      1.0000 0.28523  0.50807  0.12117  Biso   1.000  H
  C57      1.0000 0.49363  0.57667  0.14925  Biso   1.000  C
  H46      1.0000 0.54473  0.61257  0.16097  Biso   1.000  H
  C58      1.0000 0.50283  0.50987  0.13372  Biso   1.000  C
  H47      1.0000 0.55983  0.49217  0.13257  Biso   1.000  H
  C59      1.0000 0.38433  0.40017  0.10083  Biso   1.000  C
  C60      1.0000 0.45423  0.36767  0.09236  Biso   1.000  C
  H48      1.0000 0.52463  0.39207  0.09877  Biso   1.000  H
  N34      1.0000 0.40033  0.58477  0.14563  Biso   1.000  N
  N35      1.0000 0.41203  0.47367  0.12001  Biso   1.000  N
  N36      1.0000 0.28513  0.36687  0.09289  Biso   1.000  N
  C61      1.0000 0.83450  0.98120  0.46097  Biso   1.000  C
  H49      1.0000 0.88950  0.04810  0.45450  Biso   1.000  H
  C62      1.0000 0.74970  0.83970  0.48258  Biso   1.000  C
  H50      1.0000 0.73450  0.78860  0.49430  Biso   1.000  H
  C63      1.0000 0.67370  0.83050  0.46705  Biso   1.000  C
  H51      1.0000 0.59900  0.77350  0.46590  Biso   1.000  H
  C64      1.0000 0.68250  0.94900  0.43416  Biso   1.000  C
  C65      1.0000 0.58010  0.87910  0.42569  Biso   1.000  C
  H52      1.0000 0.53410  0.80870  0.43210  Biso   1.000  H
  N37      1.0000 0.85110  0.93300  0.47896  Biso   1.000  N
  N38      1.0000 0.72830  0.92130  0.45334  Biso   1.000  N
  N39      1.0000 0.74840  0.04820  0.42622  Biso   1.000  N
  C66      1.0000 0.50117  0.31453  0.79430  Biso   1.000  C
  H53      1.0000 0.55617  0.38143  0.78783  Biso   1.000  H
  C67      1.0000 0.41637  0.17303  0.81591  Biso   1.000  C
  H54      1.0000 0.40117  0.12193  0.82763  Biso   1.000  H
  C68      1.0000 0.34037  0.16383  0.80038  Biso   1.000  C
  H55      1.0000 0.26567  0.10683  0.79923  Biso   1.000  H
  C69      1.0000 0.34917  0.28233  0.76749  Biso   1.000  C
  C70      1.0000 0.24677  0.21243  0.75902  Biso   1.000  C
  H56      1.0000 0.20077  0.14203  0.76543  Biso   1.000  H
  N40      1.0000 0.51777  0.26633  0.81229  Biso   1.000  N
  N41      1.0000 0.39497  0.25463  0.78667  Biso   1.000  N
  N42      1.0000 0.41507  0.38153  0.75955  Biso   1.000  N
  C71      1.0000 0.16783  0.64787  0.12764  Biso   1.000  C
  H57      1.0000 0.22283  0.71477  0.12117  Biso   1.000  H
  C72      1.0000 0.08303  0.50637  0.14925  Biso   1.000  C
  H58      1.0000 0.06783  0.45527  0.16097  Biso   1.000  H
  C73      1.0000 0.00703  0.49717  0.13372  Biso   1.000  C
  H59      1.0000 0.93233  0.44017  0.13257  Biso   1.000  H
  C74      1.0000 0.01583  0.61567  0.10083  Biso   1.000  C
  C75      1.0000 0.91343  0.54577  0.09236  Biso   1.000  C
  H60      1.0000 0.86743  0.47537  0.09877  Biso   1.000  H
  N43      1.0000 0.18443  0.59967  0.14563  Biso   1.000  N
  N44      1.0000 0.06163  0.58797  0.12001  Biso   1.000  N
  N45      1.0000 0.08173  0.71487  0.09289  Biso   1.000  N
  C76      1.0000 0.14670  0.16550  0.46097  Biso   1.000  C
  H61      1.0000 0.15860  0.11050  0.45450  Biso   1.000  H
  C77      1.0000 0.09000  0.25030  0.48258  Biso   1.000  C
  H62      1.0000 0.05410  0.26550  0.49430  Biso   1.000  H
  C78      1.0000 0.15680  0.32630  0.46705  Biso   1.000  C
  H63      1.0000 0.17450  0.40100  0.46590  Biso   1.000  H
  C79      1.0000 0.26650  0.31750  0.43416  Biso   1.000  C
  C80      1.0000 0.29900  0.41990  0.42569  Biso   1.000  C
  H64      1.0000 0.27460  0.46590  0.43210  Biso   1.000  H
  N46      1.0000 0.08190  0.14890  0.47896  Biso   1.000  N
  N47      1.0000 0.19300  0.27170  0.45334  Biso   1.000  N
  N48      1.0000 0.29980  0.25160  0.42622  Biso   1.000  N
  C81      1.0000 0.81337  0.49883  0.79430  Biso   1.000  C
  H65      1.0000 0.82527  0.44383  0.78783  Biso   1.000  H
  C82      1.0000 0.75667  0.58363  0.81591  Biso   1.000  C
  H66      1.0000 0.72077  0.59883  0.82763  Biso   1.000  H
  C83      1.0000 0.82347  0.65963  0.80038  Biso   1.000  C
  H67      1.0000 0.84117  0.73433  0.79923  Biso   1.000  H
  C84      1.0000 0.93317  0.65083  0.76749  Biso   1.000  C
  C85      1.0000 0.96567  0.75323  0.75902  Biso   1.000  C
  H68      1.0000 0.94127  0.79923  0.76543  Biso   1.000  H
  N49      1.0000 0.74857  0.48223  0.81229  Biso   1.000  N
  N50      1.0000 0.85967  0.60503  0.78667  Biso   1.000  N
  N51      1.0000 0.96647  0.58493  0.75955  Biso   1.000  N
  C86      1.0000 0.48003  0.83217  0.12764  Biso   1.000  C
  H69      1.0000 0.49193  0.77717  0.12117  Biso   1.000  H
  C87      1.0000 0.42333  0.91697  0.14925  Biso   1.000  C
  H70      1.0000 0.38743  0.93217  0.16097  Biso   1.000  H
  C88      1.0000 0.49013  0.99297  0.13372  Biso   1.000  C
  H71      1.0000 0.50783  0.06767  0.13257  Biso   1.000  H
  C89      1.0000 0.59983  0.98417  0.10083  Biso   1.000  C
  C90      1.0000 0.63233  0.08657  0.09236  Biso   1.000  C
  H72      1.0000 0.60793  0.13257  0.09877  Biso   1.000  H
  N52      1.0000 0.41523  0.81557  0.14563  Biso   1.000  N
  N53      1.0000 0.52633  0.93837  0.12001  Biso   1.000  N
  N54      1.0000 0.63313  0.91827  0.09289  Biso   1.000  N
  C91      1.0000 0.14670  0.98120  0.96097  Biso   1.000  C
  H73      1.0000 0.15860  0.04810  0.95450  Biso   1.000  H
  C92      1.0000 0.09000  0.83970  0.98258  Biso   1.000  C
  H74      1.0000 0.05410  0.78860  0.99430  Biso   1.000  H
  C93      1.0000 0.15680  0.83050  0.96705  Biso   1.000  C
  H75      1.0000 0.17450  0.77350  0.96590  Biso   1.000  H
  C94      1.0000 0.26650  0.94900  0.93416  Biso   1.000  C
  C95      1.0000 0.29900  0.87910  0.92569  Biso   1.000  C
  H76      1.0000 0.27460  0.80870  0.93210  Biso   1.000  H
  N55      1.0000 0.08190  0.93300  0.97896  Biso   1.000  N
  N56      1.0000 0.19300  0.92130  0.95334  Biso   1.000  N
  N57      1.0000 0.29980  0.04820  0.92622  Biso   1.000  N
  C96      1.0000 0.81337  0.31453  0.29430  Biso   1.000  C
  H77      1.0000 0.82527  0.38143  0.28783  Biso   1.000  H
  C97      1.0000 0.75667  0.17303  0.31591  Biso   1.000  C
  H78      1.0000 0.72077  0.12193  0.32763  Biso   1.000  H
  C98      1.0000 0.82347  0.16383  0.30038  Biso   1.000  C
  H79      1.0000 0.84117  0.10683  0.29923  Biso   1.000  H
  C99      1.0000 0.93317  0.28233  0.26749  Biso   1.000  C
  C100     1.0000 0.96567  0.21243  0.25902  Biso   1.000  C
  H80      1.0000 0.94127  0.14203  0.26543  Biso   1.000  H
  N58      1.0000 0.74857  0.26633  0.31229  Biso   1.000  N
  N59      1.0000 0.85967  0.25463  0.28667  Biso   1.000  N
  N60      1.0000 0.96647  0.38153  0.25955  Biso   1.000  N
  C101     1.0000 0.48003  0.64787  0.62764  Biso   1.000  C
  H81      1.0000 0.49193  0.71477  0.62117  Biso   1.000  H
  C102     1.0000 0.42333  0.50637  0.64925  Biso   1.000  C
  H82      1.0000 0.38743  0.45527  0.66097  Biso   1.000  H
  C103     1.0000 0.49013  0.49717  0.63372  Biso   1.000  C
  H83      1.0000 0.50783  0.44017  0.63257  Biso   1.000  H
  C104     1.0000 0.59983  0.61567  0.60083  Biso   1.000  C
  C105     1.0000 0.63233  0.54577  0.59236  Biso   1.000  C
  H84      1.0000 0.60793  0.47537  0.59877  Biso   1.000  H
  N61      1.0000 0.41523  0.59967  0.64563  Biso   1.000  N
  N62      1.0000 0.52633  0.58797  0.62001  Biso   1.000  N
  N63      1.0000 0.63313  0.71487  0.59289  Biso   1.000  N
  C106     1.0000 0.01880  0.16550  0.96097  Biso   1.000  C
  H85      1.0000 0.95190  0.11050  0.95450  Biso   1.000  H
  C107     1.0000 0.16030  0.25030  0.98258  Biso   1.000  C
  H86      1.0000 0.21140  0.26550  0.99430  Biso   1.000  H
  C108     1.0000 0.16950  0.32630  0.96705  Biso   1.000  C
  H87      1.0000 0.22650  0.40100  0.96590  Biso   1.000  H
  C109     1.0000 0.05100  0.31750  0.93416  Biso   1.000  C
  C110     1.0000 0.12090  0.41990  0.92569  Biso   1.000  C
  H88      1.0000 0.19130  0.46590  0.93210  Biso   1.000  H
  N64      1.0000 0.06700  0.14890  0.97896  Biso   1.000  N
  N65      1.0000 0.07870  0.27170  0.95334  Biso   1.000  N
  N66      1.0000 0.95180  0.25160  0.92622  Biso   1.000  N
  C111     1.0000 0.68547  0.49883  0.29430  Biso   1.000  C
  H89      1.0000 0.61857  0.44383  0.28783  Biso   1.000  H
  C112     1.0000 0.82697  0.58363  0.31591  Biso   1.000  C
  H90      1.0000 0.87807  0.59883  0.32763  Biso   1.000  H
  C113     1.0000 0.83617  0.65963  0.30038  Biso   1.000  C
  H91      1.0000 0.89317  0.73433  0.29923  Biso   1.000  H
  C114     1.0000 0.71767  0.65083  0.26749  Biso   1.000  C
  C115     1.0000 0.78757  0.75323  0.25902  Biso   1.000  C
  H92      1.0000 0.85797  0.79923  0.26543  Biso   1.000  H
  N67      1.0000 0.73367  0.48223  0.31229  Biso   1.000  N
  N68      1.0000 0.74537  0.60503  0.28667  Biso   1.000  N
  N69      1.0000 0.61847  0.58493  0.25955  Biso   1.000  N
  C116     1.0000 0.35213  0.83217  0.62764  Biso   1.000  C
  H93      1.0000 0.28523  0.77717  0.62117  Biso   1.000  H
  C117     1.0000 0.49363  0.91697  0.64925  Biso   1.000  C
  H94      1.0000 0.54473  0.93217  0.66097  Biso   1.000  H
  C118     1.0000 0.50283  0.99297  0.63372  Biso   1.000  C
  H95      1.0000 0.55983  0.06767  0.63257  Biso   1.000  H
  C119     1.0000 0.38433  0.98417  0.60083  Biso   1.000  C
  C120     1.0000 0.45423  0.08657  0.59236  Biso   1.000  C
  H96      1.0000 0.52463  0.13257  0.59877  Biso   1.000  H
  N70      1.0000 0.40033  0.81557  0.64563  Biso   1.000  N
  N71      1.0000 0.41203  0.93837  0.62001  Biso   1.000  N
  N72      1.0000 0.28513  0.91827  0.59289  Biso   1.000  N
  C121     1.0000 0.83450  0.85330  0.96097  Biso   1.000  C
  H97      1.0000 0.88950  0.84140  0.95450  Biso   1.000  H
  C122     1.0000 0.74970  0.91000  0.98258  Biso   1.000  C
  H98      1.0000 0.73450  0.94590  0.99430  Biso   1.000  H
  C123     1.0000 0.67370  0.84320  0.96705  Biso   1.000  C
  H99      1.0000 0.59900  0.82550  0.96590  Biso   1.000  H
  C124     1.0000 0.68250  0.73350  0.93416  Biso   1.000  C
  C125     1.0000 0.58010  0.70100  0.92569  Biso   1.000  C
  H100     1.0000 0.53410  0.72540  0.93210  Biso   1.000  H
  N73      1.0000 0.85110  0.91810  0.97896  Biso   1.000  N
  N74      1.0000 0.72830  0.80700  0.95334  Biso   1.000  N
  N75      1.0000 0.74840  0.70020  0.92622  Biso   1.000  N
  C126     1.0000 0.50117  0.18663  0.29430  Biso   1.000  C
  H101     1.0000 0.55617  0.17473  0.28783  Biso   1.000  H
  C127     1.0000 0.41637  0.24333  0.31591  Biso   1.000  C
  H102     1.0000 0.40117  0.27923  0.32763  Biso   1.000  H
  C128     1.0000 0.34037  0.17653  0.30038  Biso   1.000  C
  H103     1.0000 0.26567  0.15883  0.29923  Biso   1.000  H
  C129     1.0000 0.34917  0.06683  0.26749  Biso   1.000  C
  C130     1.0000 0.24677  0.03433  0.25902  Biso   1.000  C
  H104     1.0000 0.20077  0.05873  0.26543  Biso   1.000  H
  N76      1.0000 0.51777  0.25143  0.31229  Biso   1.000  N
  N77      1.0000 0.39497  0.14033  0.28667  Biso   1.000  N
  N78      1.0000 0.41507  0.03353  0.25955  Biso   1.000  N
  C131     1.0000 0.16783  0.51997  0.62764  Biso   1.000  C
  H105     1.0000 0.22283  0.50807  0.62117  Biso   1.000  H
  C132     1.0000 0.08303  0.57667  0.64925  Biso   1.000  C
  H106     1.0000 0.06783  0.61257  0.66097  Biso   1.000  H
  C133     1.0000 0.00703  0.50987  0.63372  Biso   1.000  C
  H107     1.0000 0.93233  0.49217  0.63257  Biso   1.000  H
  C134     1.0000 0.01583  0.40017  0.60083  Biso   1.000  C
  C135     1.0000 0.91343  0.36767  0.59236  Biso   1.000  C
  H108     1.0000 0.86743  0.39207  0.59877  Biso   1.000  H
  N79      1.0000 0.18443  0.58477  0.64563  Biso   1.000  N
  N80      1.0000 0.06163  0.47367  0.62001  Biso   1.000  N
  N81      1.0000 0.08173  0.36687  0.59289  Biso   1.000  N
  C136     1.0000 0.98120  0.14670  0.53903  Biso   1.000  C
  H109     1.0000 0.04810  0.15860  0.54550  Biso   1.000  H
  C137     1.0000 0.83970  0.09000  0.51742  Biso   1.000  C
  H110     1.0000 0.78860  0.05410  0.50570  Biso   1.000  H
  C138     1.0000 0.83050  0.15680  0.53295  Biso   1.000  C
  H111     1.0000 0.77350  0.17450  0.53410  Biso   1.000  H
  C139     1.0000 0.94900  0.26650  0.56584  Biso   1.000  C
  C140     1.0000 0.87910  0.29900  0.57431  Biso   1.000  C
  H112     1.0000 0.80870  0.27460  0.56790  Biso   1.000  H
  N82      1.0000 0.93300  0.08190  0.52104  Biso   1.000  N
  N83      1.0000 0.92130  0.19300  0.54666  Biso   1.000  N
  N84      1.0000 0.04820  0.29980  0.57378  Biso   1.000  N
  C141     1.0000 0.64787  0.48003  0.87236  Biso   1.000  C
  H113     1.0000 0.71477  0.49193  0.87883  Biso   1.000  H
  C142     1.0000 0.50637  0.42333  0.85075  Biso   1.000  C
  H114     1.0000 0.45527  0.38743  0.83903  Biso   1.000  H
  C143     1.0000 0.49717  0.49013  0.86628  Biso   1.000  C
  H115     1.0000 0.44017  0.50783  0.86743  Biso   1.000  H
  C144     1.0000 0.61567  0.59983  0.89917  Biso   1.000  C
  C145     1.0000 0.54577  0.63233  0.90764  Biso   1.000  C
  H116     1.0000 0.47537  0.60793  0.90123  Biso   1.000  H
  N85      1.0000 0.59967  0.41523  0.85437  Biso   1.000  N
  N86      1.0000 0.58797  0.52633  0.87999  Biso   1.000  N
  N87      1.0000 0.71487  0.63313  0.90711  Biso   1.000  N
  C146     1.0000 0.31453  0.81337  0.20570  Biso   1.000  C
  H117     1.0000 0.38143  0.82527  0.21217  Biso   1.000  H
  C147     1.0000 0.17303  0.75667  0.18409  Biso   1.000  C
  H118     1.0000 0.12193  0.72077  0.17237  Biso   1.000  H
  C148     1.0000 0.16383  0.82347  0.19962  Biso   1.000  C
  H119     1.0000 0.10683  0.84117  0.20077  Biso   1.000  H
  C149     1.0000 0.28233  0.93317  0.23251  Biso   1.000  C
  C150     1.0000 0.21243  0.96567  0.24098  Biso   1.000  C
  H120     1.0000 0.14203  0.94127  0.23457  Biso   1.000  H
  N88      1.0000 0.26633  0.74857  0.18771  Biso   1.000  N
  N89      1.0000 0.25463  0.85967  0.21333  Biso   1.000  N
  N90      1.0000 0.38153  0.96647  0.24045  Biso   1.000  N
  C151     1.0000 0.16550  0.01880  0.53903  Biso   1.000  C
  H121     1.0000 0.11050  0.95190  0.54550  Biso   1.000  H
  C152     1.0000 0.25030  0.16030  0.51742  Biso   1.000  C
  H122     1.0000 0.26550  0.21140  0.50570  Biso   1.000  H
  C153     1.0000 0.32630  0.16950  0.53295  Biso   1.000  C
  H123     1.0000 0.40100  0.22650  0.53410  Biso   1.000  H
  C154     1.0000 0.31750  0.05100  0.56584  Biso   1.000  C
  C155     1.0000 0.41990  0.12090  0.57431  Biso   1.000  C
  H124     1.0000 0.46590  0.19130  0.56790  Biso   1.000  H
  N91      1.0000 0.14890  0.06700  0.52104  Biso   1.000  N
  N92      1.0000 0.27170  0.07870  0.54666  Biso   1.000  N
  N93      1.0000 0.25160  0.95180  0.57378  Biso   1.000  N
  C156     1.0000 0.83217  0.35213  0.87236  Biso   1.000  C
  H125     1.0000 0.77717  0.28523  0.87883  Biso   1.000  H
  C157     1.0000 0.91697  0.49363  0.85075  Biso   1.000  C
  H126     1.0000 0.93217  0.54473  0.83903  Biso   1.000  H
  C158     1.0000 0.99297  0.50283  0.86628  Biso   1.000  C
  H127     1.0000 0.06767  0.55983  0.86743  Biso   1.000  H
  C159     1.0000 0.98417  0.38433  0.89917  Biso   1.000  C
  C160     1.0000 0.08657  0.45423  0.90764  Biso   1.000  C
  H128     1.0000 0.13257  0.52463  0.90123  Biso   1.000  H
  N94      1.0000 0.81557  0.40033  0.85437  Biso   1.000  N
  N95      1.0000 0.93837  0.41203  0.87999  Biso   1.000  N
  N96      1.0000 0.91827  0.28513  0.90711  Biso   1.000  N
  C161     1.0000 0.49883  0.68547  0.20570  Biso   1.000  C
  H129     1.0000 0.44383  0.61857  0.21217  Biso   1.000  H
  C162     1.0000 0.58363  0.82697  0.18409  Biso   1.000  C
  H130     1.0000 0.59883  0.87807  0.17237  Biso   1.000  H
  C163     1.0000 0.65963  0.83617  0.19962  Biso   1.000  C
  H131     1.0000 0.73433  0.89317  0.20077  Biso   1.000  H
  C164     1.0000 0.65083  0.71767  0.23251  Biso   1.000  C
  C165     1.0000 0.75323  0.78757  0.24098  Biso   1.000  C
  H132     1.0000 0.79923  0.85797  0.23457  Biso   1.000  H
  N97      1.0000 0.48223  0.73367  0.18771  Biso   1.000  N
  N98      1.0000 0.60503  0.74537  0.21333  Biso   1.000  N
  N99      1.0000 0.58493  0.61847  0.24045  Biso   1.000  N
  C166     1.0000 0.85330  0.83450  0.53903  Biso   1.000  C
  H133     1.0000 0.84140  0.88950  0.54550  Biso   1.000  H
  C167     1.0000 0.91000  0.74970  0.51742  Biso   1.000  C
  H134     1.0000 0.94590  0.73450  0.50570  Biso   1.000  H
  C168     1.0000 0.84320  0.67370  0.53295  Biso   1.000  C
  H135     1.0000 0.82550  0.59900  0.53410  Biso   1.000  H
  C169     1.0000 0.73350  0.68250  0.56584  Biso   1.000  C
  C170     1.0000 0.70100  0.58010  0.57431  Biso   1.000  C
  H136     1.0000 0.72540  0.53410  0.56790  Biso   1.000  H
  N100     1.0000 0.91810  0.85110  0.52104  Biso   1.000  N
  N101     1.0000 0.80700  0.72830  0.54666  Biso   1.000  N
  N102     1.0000 0.70020  0.74840  0.57378  Biso   1.000  N
  C171     1.0000 0.51997  0.16783  0.87236  Biso   1.000  C
  H137     1.0000 0.50807  0.22283  0.87883  Biso   1.000  H
  C172     1.0000 0.57667  0.08303  0.85075  Biso   1.000  C
  H138     1.0000 0.61257  0.06783  0.83903  Biso   1.000  H
  C173     1.0000 0.50987  0.00703  0.86628  Biso   1.000  C
  H139     1.0000 0.49217  0.93233  0.86743  Biso   1.000  H
  C174     1.0000 0.40017  0.01583  0.89917  Biso   1.000  C
  C175     1.0000 0.36767  0.91343  0.90764  Biso   1.000  C
  H140     1.0000 0.39207  0.86743  0.90123  Biso   1.000  H
  N103     1.0000 0.58477  0.18443  0.85437  Biso   1.000  N
  N104     1.0000 0.47367  0.06163  0.87999  Biso   1.000  N
  N105     1.0000 0.36687  0.08173  0.90711  Biso   1.000  N
  C176     1.0000 0.18663  0.50117  0.20570  Biso   1.000  C
  H141     1.0000 0.17473  0.55617  0.21217  Biso   1.000  H
  C177     1.0000 0.24333  0.41637  0.18409  Biso   1.000  C
  H142     1.0000 0.27923  0.40117  0.17237  Biso   1.000  H
  C178     1.0000 0.17653  0.34037  0.19962  Biso   1.000  C
  H143     1.0000 0.15883  0.26567  0.20077  Biso   1.000  H
  C179     1.0000 0.06683  0.34917  0.23251  Biso   1.000  C
  C180     1.0000 0.03433  0.24677  0.24098  Biso   1.000  C
  H144     1.0000 0.05873  0.20077  0.23457  Biso   1.000  H
  N106     1.0000 0.25143  0.51777  0.18771  Biso   1.000  N
  N107     1.0000 0.14033  0.39497  0.21333  Biso   1.000  N
  N108     1.0000 0.03353  0.41507  0.24045  Biso   1.000  N
  Co1      1.0000 0.00000  0.00000  0.00000  Biso   1.000  Co
  Co2      1.0000 0.66667  0.33333  0.33333  Biso   1.000  Co
  Co3      1.0000 0.33333  0.66667  0.66667  Biso   1.000  Co
  Co4      1.0000 0.00000  0.00000  0.50000  Biso   1.000  Co
  Co5      1.0000 0.66667  0.33333  0.83333  Biso   1.000  Co
  Co6      1.0000 0.33333  0.66667  0.16667  Biso   1.000  Co
