data_HUMQUC_charged
_audit_creation_date              2014-07-02
_audit_creation_method            'Materials Studio'
_symmetry_space_group_name_H-M    'P1'
_symmetry_Int_Tables_number       1
_symmetry_cell_setting            triclinic
loop_
_symmetry_equiv_pos_as_xyz
  x,y,z
_cell_length_a                    8.2189
_cell_length_b                    12.6831
_cell_length_c                    23.7550
_cell_angle_alpha                 105.0550
_cell_angle_beta                  90.0000
_cell_angle_gamma                 90.0000
loop_
_atom_site_label
_atom_site_type_symbol
_atom_site_fract_x
_atom_site_fract_y
_atom_site_fract_z
_atom_site_U_iso_or_equiv
_atom_site_adp_type
_atom_site_occupancy
Pr1    Pr    0.99811   0.09608   0.88481   0.01267  Uiso   1.00
Pr2    Pr    0.49811   0.40392   0.61519   0.01267  Uiso   1.00
Pr3    Pr    0.00189   0.90392   0.11519   0.01267  Uiso   1.00
Pr4    Pr    0.50189   0.59608   0.38481   0.01267  Uiso   1.00
Bi1    Bi    0.17078   0.59608   0.86846   0.01267  Uiso   1.00
Bi2    Bi    0.67078   0.90392   0.63154   0.01267  Uiso   1.00
Bi3    Bi    0.82922   0.40392   0.13154   0.01267  Uiso   1.00
Bi4    Bi    0.32922   0.09608   0.36846   0.01267  Uiso   1.00
H1     H     0.15890   0.71150   0.75780   0.01267  Uiso   1.00
H2     H     0.97690   0.73920   0.74750   0.01267  Uiso   1.00
H3     H     0.75830   0.60190   0.76540   0.01267  Uiso   1.00
H4     H     0.79570   0.69260   0.82280   0.01267  Uiso   1.00
H5     H     0.66730   0.54680   0.84690   0.01267  Uiso   1.00
H6     H     0.80010   0.46580   0.81320   0.01267  Uiso   1.00
H7     H     0.99410   0.54600   0.69810   0.01267  Uiso   1.00
H8     H     0.96860   0.45970   0.73410   0.01267  Uiso   1.00
H9     H     0.77850   0.42990   0.90910   0.01267  Uiso   1.00
H10    H     0.92660   0.47690   0.94950   0.01267  Uiso   1.00
H11    H     0.73220   0.62420   0.95770   0.01267  Uiso   1.00
H12    H     0.77180   0.70580   0.92010   0.01267  Uiso   1.00
H13    H     0.65890   0.78850   0.74220   0.01267  Uiso   1.00
H14    H     0.47690   0.76080   0.75250   0.01267  Uiso   1.00
H15    H     0.25830   0.89810   0.73460   0.01267  Uiso   1.00
H16    H     0.29570   0.80740   0.67720   0.01267  Uiso   1.00
H17    H     0.16730   0.95320   0.65310   0.01267  Uiso   1.00
H18    H     0.30010   0.03420   0.68680   0.01267  Uiso   1.00
H19    H     0.49410   0.95400   0.80190   0.01267  Uiso   1.00
H20    H     0.46860   0.04030   0.76590   0.01267  Uiso   1.00
H21    H     0.27850   0.07010   0.59090   0.01267  Uiso   1.00
H22    H     0.42660   0.02310   0.55050   0.01267  Uiso   1.00
H23    H     0.23220   0.87580   0.54230   0.01267  Uiso   1.00
H24    H     0.27180   0.79420   0.57990   0.01267  Uiso   1.00
H25    H     0.84110   0.28850   0.24220   0.01267  Uiso   1.00
H26    H     0.02310   0.26080   0.25250   0.01267  Uiso   1.00
H27    H     0.24170   0.39810   0.23460   0.01267  Uiso   1.00
H28    H     0.20430   0.30740   0.17720   0.01267  Uiso   1.00
H29    H     0.33270   0.45320   0.15310   0.01267  Uiso   1.00
H30    H     0.19990   0.53420   0.18680   0.01267  Uiso   1.00
H31    H     0.00590   0.45400   0.30190   0.01267  Uiso   1.00
H32    H     0.03140   0.54030   0.26590   0.01267  Uiso   1.00
H33    H     0.22150   0.57010   0.09090   0.01267  Uiso   1.00
H34    H     0.07340   0.52310   0.05050   0.01267  Uiso   1.00
H35    H     0.26780   0.37580   0.04230   0.01267  Uiso   1.00
H36    H     0.22820   0.29420   0.07990   0.01267  Uiso   1.00
H37    H     0.34110   0.21150   0.25780   0.01267  Uiso   1.00
H38    H     0.52310   0.23920   0.24750   0.01267  Uiso   1.00
H39    H     0.74170   0.10190   0.26540   0.01267  Uiso   1.00
H40    H     0.70430   0.19260   0.32280   0.01267  Uiso   1.00
H41    H     0.83270   0.04680   0.34690   0.01267  Uiso   1.00
H42    H     0.69990   0.96580   0.31320   0.01267  Uiso   1.00
H43    H     0.50590   0.04600   0.19810   0.01267  Uiso   1.00
H44    H     0.53140   0.95970   0.23410   0.01267  Uiso   1.00
H45    H     0.72150   0.92990   0.40910   0.01267  Uiso   1.00
H46    H     0.57340   0.97690   0.44950   0.01267  Uiso   1.00
H47    H     0.76780   0.12420   0.45770   0.01267  Uiso   1.00
H48    H     0.72820   0.20580   0.42010   0.01267  Uiso   1.00
C1     C     0.05270   0.80760   0.83050   0.01267  Uiso   1.00
C2     C     0.05090   0.71940   0.77490   0.01267  Uiso   1.00
C3     C     0.82280   0.61900   0.80080   0.01267  Uiso   1.00
C4     C     0.78160   0.53980   0.83650   0.01267  Uiso   1.00
C5     C     0.03050   0.52370   0.73210   0.01267  Uiso   1.00
C6     C     0.20790   0.49510   0.72570   0.01267  Uiso   1.00
C7     C     0.88730   0.45990   0.90970   0.01267  Uiso   1.00
C8     C     0.00000   0.37360   0.87060   0.01267  Uiso   1.00
C9     C     0.81840   0.65110   0.93730   0.01267  Uiso   1.00
C10    C     0.94870   0.70510   0.98130   0.01267  Uiso   1.00
C11    C     0.55270   0.69240   0.66950   0.01267  Uiso   1.00
C12    C     0.55090   0.78060   0.72510   0.01267  Uiso   1.00
C13    C     0.32280   0.88100   0.69920   0.01267  Uiso   1.00
C14    C     0.28160   0.96020   0.66350   0.01267  Uiso   1.00
C15    C     0.53050   0.97630   0.76790   0.01267  Uiso   1.00
C16    C     0.70790   0.00490   0.77430   0.01267  Uiso   1.00
C17    C     0.38730   0.04010   0.59030   0.01267  Uiso   1.00
C18    C     0.50000   0.12640   0.62940   0.01267  Uiso   1.00
C19    C     0.31840   0.84890   0.56270   0.01267  Uiso   1.00
C20    C     0.44870   0.79490   0.51870   0.01267  Uiso   1.00
C21    C     0.94730   0.19240   0.16950   0.01267  Uiso   1.00
C22    C     0.94910   0.28060   0.22510   0.01267  Uiso   1.00
C23    C     0.17720   0.38100   0.19920   0.01267  Uiso   1.00
C24    C     0.21840   0.46020   0.16350   0.01267  Uiso   1.00
C25    C     0.96950   0.47630   0.26790   0.01267  Uiso   1.00
C26    C     0.79210   0.50490   0.27430   0.01267  Uiso   1.00
C27    C     0.11270   0.54010   0.09030   0.01267  Uiso   1.00
C28    C     0.00000   0.62640   0.12940   0.01267  Uiso   1.00
C29    C     0.18160   0.34890   0.06270   0.01267  Uiso   1.00
C30    C     0.05130   0.29490   0.01870   0.01267  Uiso   1.00
C31    C     0.44730   0.30760   0.33050   0.01267  Uiso   1.00
C32    C     0.44910   0.21940   0.27490   0.01267  Uiso   1.00
C33    C     0.67720   0.11900   0.30080   0.01267  Uiso   1.00
C34    C     0.71840   0.03980   0.33650   0.01267  Uiso   1.00
C35    C     0.46950   0.02370   0.23210   0.01267  Uiso   1.00
C36    C     0.29210   0.99510   0.22570   0.01267  Uiso   1.00
C37    C     0.61270   0.95990   0.40970   0.01267  Uiso   1.00
C38    C     0.50000   0.87360   0.37060   0.01267  Uiso   1.00
C39    C     0.68160   0.15110   0.43730   0.01267  Uiso   1.00
C40    C     0.55130   0.20510   0.48130   0.01267  Uiso   1.00
N1     N     0.99880   0.61350   0.78540   0.01267  Uiso   1.00
N2     N     0.88060   0.55980   0.89020   0.01267  Uiso   1.00
N3     N     0.46550   0.77420   0.88580   0.01267  Uiso   1.00
N4     N     0.33650   0.06700   0.92230   0.01267  Uiso   1.00
N5     N     0.49880   0.88650   0.71460   0.01267  Uiso   1.00
N6     N     0.38060   0.94020   0.60980   0.01267  Uiso   1.00
N7     N     0.96550   0.72580   0.61420   0.01267  Uiso   1.00
N8     N     0.83650   0.43300   0.57770   0.01267  Uiso   1.00
N9     N     0.00120   0.38650   0.21460   0.01267  Uiso   1.00
N10    N     0.11940   0.44020   0.10980   0.01267  Uiso   1.00
N11    N     0.53450   0.22580   0.11420   0.01267  Uiso   1.00
N12    N     0.66350   0.93300   0.07770   0.01267  Uiso   1.00
N13    N     0.50120   0.11350   0.28540   0.01267  Uiso   1.00
N14    N     0.61940   0.05980   0.39020   0.01267  Uiso   1.00
N15    N     0.03450   0.27420   0.38580   0.01267  Uiso   1.00
N16    N     0.16350   0.56700   0.42230   0.01267  Uiso   1.00
O1     O     0.06580   0.77960   0.87890   0.01267  Uiso   1.00
O2     O     0.85700   0.97260   0.93690   0.01267  Uiso   1.00
O3     O     0.74920   0.19140   0.93900   0.01267  Uiso   1.00
O4     O     0.08220   0.08120   0.78050   0.01267  Uiso   1.00
O5     O     0.04250   0.90290   0.82780   0.01267  Uiso   1.00
O6     O     0.29600   0.51390   0.77040   0.01267  Uiso   1.00
O7     O     0.25400   0.44900   0.67510   0.01267  Uiso   1.00
O8     O     0.09920   0.40890   0.83970   0.01267  Uiso   1.00
O9     O     0.98600   0.27760   0.87080   0.01267  Uiso   1.00
O10    O     0.09140   0.66790   0.97250   0.01267  Uiso   1.00
O11    O     0.90510   0.78320   0.02150   0.01267  Uiso   1.00
O12    O     0.41130   0.71290   0.83970   0.01267  Uiso   1.00
O13    O     0.57270   0.83920   0.88300   0.01267  Uiso   1.00
O14    O     0.40900   0.76100   0.93160   0.01267  Uiso   1.00
O15    O     0.30990   0.12310   0.88400   0.01267  Uiso   1.00
O16    O     0.21400   0.00990   0.93720   0.01267  Uiso   1.00
O17    O     0.46760   0.06920   0.95050   0.01267  Uiso   1.00
O18    O     0.56580   0.72040   0.62110   0.01267  Uiso   1.00
O19    O     0.35700   0.52740   0.56310   0.01267  Uiso   1.00
O20    O     0.24920   0.30860   0.56100   0.01267  Uiso   1.00
O21    O     0.58220   0.41880   0.71950   0.01267  Uiso   1.00
O22    O     0.54250   0.59710   0.67220   0.01267  Uiso   1.00
O23    O     0.79600   0.98610   0.72960   0.01267  Uiso   1.00
O24    O     0.75400   0.05100   0.82490   0.01267  Uiso   1.00
O25    O     0.59920   0.09110   0.66030   0.01267  Uiso   1.00
O26    O     0.48600   0.22240   0.62920   0.01267  Uiso   1.00
O27    O     0.59140   0.83210   0.52750   0.01267  Uiso   1.00
O28    O     0.40510   0.71680   0.47850   0.01267  Uiso   1.00
O29    O     0.91130   0.78710   0.66030   0.01267  Uiso   1.00
O30    O     0.07270   0.66080   0.61700   0.01267  Uiso   1.00
O31    O     0.90900   0.73900   0.56840   0.01267  Uiso   1.00
O32    O     0.80990   0.37690   0.61600   0.01267  Uiso   1.00
O33    O     0.71400   0.49010   0.56280   0.01267  Uiso   1.00
O34    O     0.96760   0.43080   0.54950   0.01267  Uiso   1.00
O35    O     0.93420   0.22040   0.12110   0.01267  Uiso   1.00
O36    O     0.14300   0.02740   0.06310   0.01267  Uiso   1.00
O37    O     0.25080   0.80860   0.06100   0.01267  Uiso   1.00
O38    O     0.91780   0.91880   0.21950   0.01267  Uiso   1.00
O39    O     0.95750   0.09710   0.17220   0.01267  Uiso   1.00
O40    O     0.70400   0.48610   0.22960   0.01267  Uiso   1.00
O41    O     0.74600   0.55100   0.32490   0.01267  Uiso   1.00
O42    O     0.90080   0.59110   0.16030   0.01267  Uiso   1.00
O43    O     0.01400   0.72240   0.12920   0.01267  Uiso   1.00
O44    O     0.90860   0.33210   0.02750   0.01267  Uiso   1.00
O45    O     0.09490   0.21680   0.97850   0.01267  Uiso   1.00
O46    O     0.58870   0.28710   0.16030   0.01267  Uiso   1.00
O47    O     0.42730   0.16080   0.11700   0.01267  Uiso   1.00
O48    O     0.59100   0.23900   0.06840   0.01267  Uiso   1.00
O49    O     0.69010   0.87690   0.11600   0.01267  Uiso   1.00
O50    O     0.78600   0.99010   0.06280   0.01267  Uiso   1.00
O51    O     0.53240   0.93080   0.04950   0.01267  Uiso   1.00
O52    O     0.43420   0.27960   0.37890   0.01267  Uiso   1.00
O53    O     0.64300   0.47260   0.43690   0.01267  Uiso   1.00
O54    O     0.75080   0.69140   0.43900   0.01267  Uiso   1.00
O55    O     0.41780   0.58120   0.28050   0.01267  Uiso   1.00
O56    O     0.45750   0.40290   0.32780   0.01267  Uiso   1.00
O57    O     0.20400   0.01390   0.27040   0.01267  Uiso   1.00
O58    O     0.24600   0.94900   0.17510   0.01267  Uiso   1.00
O59    O     0.40080   0.90890   0.33970   0.01267  Uiso   1.00
O60    O     0.51400   0.77760   0.37080   0.01267  Uiso   1.00
O61    O     0.40860   0.16790   0.47250   0.01267  Uiso   1.00
O62    O     0.59490   0.28320   0.52150   0.01267  Uiso   1.00
O63    O     0.08870   0.21290   0.33970   0.01267  Uiso   1.00
O64    O     0.92730   0.33920   0.38300   0.01267  Uiso   1.00
O65    O     0.09100   0.26100   0.43160   0.01267  Uiso   1.00
O66    O     0.19010   0.62310   0.38400   0.01267  Uiso   1.00
O67    O     0.28600   0.50990   0.43720   0.01267  Uiso   1.00
O68    O     0.03240   0.56920   0.45050   0.01267  Uiso   1.00
N17    N     0.40590   0.46600   0.93430   0.01267  Uiso   1.00
O69    O     0.44700   0.48600   0.88900   0.01267  Uiso   1.00
O70    O     0.50200   0.41610   0.95990   0.01267  Uiso   1.00
O71    O     0.26690   0.48600   0.95350   0.01267  Uiso   1.00
N18    N     0.90590   0.03400   0.56570   0.01267  Uiso   1.00
O72    O     0.94700   0.01400   0.61100   0.01267  Uiso   1.00
O73    O     0.00200   0.08390   0.54010   0.01267  Uiso   1.00
O74    O     0.76690   0.01400   0.54650   0.01267  Uiso   1.00
N19    N     0.59410   0.53400   0.06570   0.01267  Uiso   1.00
O75    O     0.55300   0.51400   0.11100   0.01267  Uiso   1.00
O76    O     0.49800   0.58390   0.04010   0.01267  Uiso   1.00
O77    O     0.73310   0.51400   0.04650   0.01267  Uiso   1.00
N20    N     0.09410   0.96600   0.43430   0.01267  Uiso   1.00
O78    O     0.05300   0.98600   0.38900   0.01267  Uiso   1.00
O79    O     0.99800   0.91610   0.45990   0.01267  Uiso   1.00
O80    O     0.23310   0.98600   0.45350   0.01267  Uiso   1.00
