data_image0
_cell_length_a       7.9391
_cell_length_b       9.4382
_cell_length_c       15.4815
_cell_angle_alpha    82.233
_cell_angle_beta     82.868
_cell_angle_gamma    75.513

_symmetry_space_group_name_H-M    "P 1"
_symmetry_int_tables_number       1

loop_
  _symmetry_equiv_pos_as_xyz
  'x, y, z'

loop_
  _atom_site_label
  _atom_site_occupancy
  _atom_site_fract_x
  _atom_site_fract_y
  _atom_site_fract_z
  _atom_site_thermal_displace_type
  _atom_site_B_iso_or_equiv
  _atom_site_type_symbol
  Zn1      1.0000 0.08060  0.25340  0.91420  Biso   1.000  Zn
  Zn2      1.0000 0.41220  0.24670  0.58240  Biso   1.000  Zn
  K1       1.0000 0.56430  0.32050  0.93500  Biso   1.000  K
  O1       1.0000 0.04190  0.34900  0.78730  Biso   1.000  O
  O2       1.0000 0.86390  0.39710  0.97200  Biso   1.000  O
  O3       1.0000 0.79710  0.59980  0.04180  Biso   1.000  O
  O4       1.0000 0.31910  0.15200  0.84790  Biso   1.000  O
  O5       1.0000 0.14620  0.09790  0.02320  Biso   1.000  O
  O6       1.0000 0.08790  0.88840  0.09100  Biso   1.000  O
  O7       1.0000 0.29360  0.10300  0.53620  Biso   1.000  O
  O8       1.0000 0.36530  0.90080  0.46690  Biso   1.000  O
  O9       1.0000 0.54590  0.40470  0.60220  Biso   1.000  O
  O10      1.0000 0.17750  0.35060  0.65180  Biso   1.000  O
  O11      1.0000 0.62050  0.60910  0.53520  Biso   1.000  O
  O12      1.0000 0.45080  0.14360  0.71190  Biso   1.000  O
  C1       1.0000 0.90200  0.49820  0.00340  Biso   1.000  C
  C2       1.0000 0.16980  0.30650  0.73120  Biso   1.000  C
  C3       1.0000 0.06730  0.99570  0.03280  Biso   1.000  C
  C4       1.0000 0.32870  0.19090  0.76620  Biso   1.000  C
  C5       1.0000 0.40270  0.00020  0.50190  Biso   1.000  C
  C6       1.0000 0.54840  0.50430  0.53940  Biso   1.000  C
  O13      1.0000 0.50630  0.62030  0.87810  Biso   1.000  O
  Zn3      1.0000 0.91940  0.74660  0.08580  Biso   1.000  Zn
  Zn4      1.0000 0.58780  0.75330  0.41760  Biso   1.000  Zn
  K2       1.0000 0.43570  0.67950  0.06500  Biso   1.000  K
  O14      1.0000 0.95810  0.65100  0.21270  Biso   1.000  O
  O15      1.0000 0.13610  0.60290  0.02800  Biso   1.000  O
  O16      1.0000 0.20290  0.40020  0.95820  Biso   1.000  O
  O17      1.0000 0.68090  0.84800  0.15210  Biso   1.000  O
  O18      1.0000 0.85380  0.90210  0.97680  Biso   1.000  O
  O19      1.0000 0.91210  0.11160  0.90900  Biso   1.000  O
  O20      1.0000 0.70640  0.89700  0.46380  Biso   1.000  O
  O21      1.0000 0.63470  0.09920  0.53310  Biso   1.000  O
  O22      1.0000 0.45410  0.59530  0.39780  Biso   1.000  O
  O23      1.0000 0.82250  0.64940  0.34820  Biso   1.000  O
  O24      1.0000 0.37950  0.39090  0.46480  Biso   1.000  O
  O25      1.0000 0.54920  0.85640  0.28810  Biso   1.000  O
  C7       1.0000 0.09800  0.50180  0.99660  Biso   1.000  C
  C8       1.0000 0.83020  0.69350  0.26880  Biso   1.000  C
  C9       1.0000 0.93270  0.00430  0.96720  Biso   1.000  C
  C10      1.0000 0.67130  0.80910  0.23380  Biso   1.000  C
  C11      1.0000 0.59730  0.99980  0.49810  Biso   1.000  C
  C12      1.0000 0.45160  0.49570  0.46060  Biso   1.000  C
  O26      1.0000 0.49370  0.37970  0.12190  Biso   1.000  O
