data_image0
_cell_length_a       11.1066
_cell_length_b       12.9842
_cell_length_c       13.4294
_cell_angle_alpha    117.345
_cell_angle_beta     93.688
_cell_angle_gamma    93.879

_symmetry_space_group_name_H-M    "P 1"
_symmetry_int_tables_number       1

loop_
  _symmetry_equiv_pos_as_xyz
  'x, y, z'

loop_
  _atom_site_label
  _atom_site_occupancy
  _atom_site_fract_x
  _atom_site_fract_y
  _atom_site_fract_z
  _atom_site_thermal_displace_type
  _atom_site_B_iso_or_equiv
  _atom_site_type_symbol
  As1      1.0000 0.99170  0.58690  0.88380  Biso   1.000  As
  As2      1.0000 0.22800  0.82440  0.76720  Biso   1.000  As
  As3      1.0000 0.06990  0.91950  0.10530  Biso   1.000  As
  As4      1.0000 0.24890  0.33350  0.75140  Biso   1.000  As
  As5      1.0000 0.55230  0.94300  0.62290  Biso   1.000  As
  As6      1.0000 0.57180  0.45100  0.63070  Biso   1.000  As
  Fe1      1.0000 0.94560  0.79800  0.82290  Biso   1.000  Fe
  Fe2      1.0000 0.49660  0.20580  0.65670  Biso   1.000  Fe
  Fe3      1.0000 0.97490  0.30820  0.83410  Biso   1.000  Fe
  Fe4      1.0000 0.47030  0.69990  0.64650  Biso   1.000  Fe
  O1       1.0000 0.98200  0.44220  0.80680  Biso   1.000  O
  O2       1.0000 0.94980  0.62740  0.01320  Biso   1.000  O
  O3       1.0000 0.90750  0.63490  0.80810  Biso   1.000  O
  O4       1.0000 0.08900  0.75170  0.74270  Biso   1.000  O
  O5       1.0000 0.32500  0.72150  0.72370  Biso   1.000  O
  O6       1.0000 0.99390  0.84720  0.97910  Biso   1.000  O
  O7       1.0000 0.03030  0.05250  0.18020  Biso   1.000  O
  O8       1.0000 0.05380  0.85300  0.18590  Biso   1.000  O
  O9       1.0000 0.11910  0.26210  0.75540  Biso   1.000  O
  O10      1.0000 0.35380  0.24060  0.73850  Biso   1.000  O
  O11      1.0000 0.58290  0.90290  0.49130  Biso   1.000  O
  O12      1.0000 0.50340  0.07320  0.69470  Biso   1.000  O
  O13      1.0000 0.45330  0.84370  0.62970  Biso   1.000  O
  O14      1.0000 0.48180  0.34810  0.63760  Biso   1.000  O
  O15      1.0000 0.51410  0.57780  0.69280  Biso   1.000  O
  O16      1.0000 0.60470  0.41450  0.50040  Biso   1.000  O
  O17      1.0000 0.77160  0.83440  0.86790  Biso   1.000  O
  O18      1.0000 0.84080  0.72590  0.66270  Biso   1.000  O
  O19      1.0000 0.60470  0.30810  0.80810  Biso   1.000  O
  O20      1.0000 0.66930  0.18590  0.60170  Biso   1.000  O
  O21      1.0000 0.80030  0.34230  0.88110  Biso   1.000  O
  O22      1.0000 0.86610  0.22780  0.67170  Biso   1.000  O
  O23      1.0000 0.57880  0.80840  0.79530  Biso   1.000  O
  O24      1.0000 0.64570  0.68910  0.58670  Biso   1.000  O
  C1       1.0000 0.71860  0.30130  0.80100  Biso   1.000  C
  C2       1.0000 0.75530  0.23290  0.68060  Biso   1.000  C
  C3       1.0000 0.69100  0.79750  0.78700  Biso   1.000  C
  C4       1.0000 0.72860  0.73290  0.66830  Biso   1.000  C
  As7      1.0000 0.00830  0.41310  0.11620  Biso   1.000  As
  As8      1.0000 0.77200  0.17560  0.23280  Biso   1.000  As
  As9      1.0000 0.93010  0.08050  0.89470  Biso   1.000  As
  As10     1.0000 0.75110  0.66650  0.24860  Biso   1.000  As
  As11     1.0000 0.44770  0.05700  0.37710  Biso   1.000  As
  As12     1.0000 0.42820  0.54900  0.36930  Biso   1.000  As
  Fe5      1.0000 0.05440  0.20200  0.17710  Biso   1.000  Fe
  Fe6      1.0000 0.50340  0.79420  0.34330  Biso   1.000  Fe
  Fe7      1.0000 0.02510  0.69180  0.16590  Biso   1.000  Fe
  Fe8      1.0000 0.52970  0.30010  0.35350  Biso   1.000  Fe
  O25      1.0000 0.01800  0.55780  0.19320  Biso   1.000  O
  O26      1.0000 0.05020  0.37260  0.98680  Biso   1.000  O
  O27      1.0000 0.09250  0.36510  0.19190  Biso   1.000  O
  O28      1.0000 0.91100  0.24830  0.25730  Biso   1.000  O
  O29      1.0000 0.67500  0.27850  0.27630  Biso   1.000  O
  O30      1.0000 0.00610  0.15280  0.02090  Biso   1.000  O
  O31      1.0000 0.96970  0.94750  0.81980  Biso   1.000  O
  O32      1.0000 0.94620  0.14700  0.81410  Biso   1.000  O
  O33      1.0000 0.88090  0.73790  0.24460  Biso   1.000  O
  O34      1.0000 0.64620  0.75940  0.26150  Biso   1.000  O
  O35      1.0000 0.41710  0.09710  0.50870  Biso   1.000  O
  O36      1.0000 0.49660  0.92680  0.30530  Biso   1.000  O
  O37      1.0000 0.54670  0.15630  0.37030  Biso   1.000  O
  O38      1.0000 0.51820  0.65190  0.36240  Biso   1.000  O
  O39      1.0000 0.48590  0.42220  0.30720  Biso   1.000  O
  O40      1.0000 0.39530  0.58550  0.49960  Biso   1.000  O
  O41      1.0000 0.22840  0.16560  0.13210  Biso   1.000  O
  O42      1.0000 0.15920  0.27410  0.33730  Biso   1.000  O
  O43      1.0000 0.39530  0.69190  0.19190  Biso   1.000  O
  O44      1.0000 0.33070  0.81410  0.39830  Biso   1.000  O
  O45      1.0000 0.19970  0.65770  0.11890  Biso   1.000  O
  O46      1.0000 0.13390  0.77220  0.32830  Biso   1.000  O
  O47      1.0000 0.42120  0.19160  0.20470  Biso   1.000  O
  O48      1.0000 0.35430  0.31090  0.41330  Biso   1.000  O
  C5       1.0000 0.28140  0.69870  0.19900  Biso   1.000  C
  C6       1.0000 0.24470  0.76710  0.31940  Biso   1.000  C
  C7       1.0000 0.30900  0.20250  0.21300  Biso   1.000  C
  C8       1.0000 0.27140  0.26710  0.33170  Biso   1.000  C
