data_image0
_cell_length_a       16.3303
_cell_length_b       20.6847
_cell_length_c       16.9801
_cell_angle_alpha    90
_cell_angle_beta     98.472
_cell_angle_gamma    90

_symmetry_space_group_name_H-M    "P 1"
_symmetry_int_tables_number       1

loop_
  _symmetry_equiv_pos_as_xyz
  'x, y, z'

loop_
  _atom_site_label
  _atom_site_occupancy
  _atom_site_fract_x
  _atom_site_fract_y
  _atom_site_fract_z
  _atom_site_thermal_displace_type
  _atom_site_B_iso_or_equiv
  _atom_site_type_symbol
  Zn1      1.0000 0.47966  0.17416  0.24922  Biso   1.000  Zn
  Zn2      1.0000 0.60281  0.15028  0.43951  Biso   1.000  Zn
  Zn3      1.0000 0.38786  0.13803  0.05566  Biso   1.000  Zn
  S1       1.0000 0.54593  0.56473  0.37330  Biso   1.000  S
  S2       1.0000 0.95811  0.27397  0.24087  Biso   1.000  S
  S3       1.0000 0.11763  0.00600  0.45812  Biso   1.000  S
  O1       1.0000 0.89650  0.65520  0.24740  Biso   1.000  O
  O2       1.0000 0.49620  0.24680  0.33000  Biso   1.000  O
  O3       1.0000 0.47710  0.11100  0.35760  Biso   1.000  O
  O4       1.0000 0.99310  0.25720  0.66200  Biso   1.000  O
  O5       1.0000 0.35400  0.18780  0.23870  Biso   1.000  O
  O6       1.0000 0.03870  0.58770  0.30920  Biso   1.000  O
  O7       1.0000 0.59610  0.24460  0.43370  Biso   1.000  O
  O8       1.0000 0.83060  0.61400  0.13530  Biso   1.000  O
  O9       1.0000 0.51060  0.10400  0.48670  Biso   1.000  O
  O10      1.0000 0.96150  0.29300  0.53710  Biso   1.000  O
  O11      1.0000 0.30200  0.17320  0.10900  Biso   1.000  O
  O12      1.0000 0.06590  0.55220  0.42990  Biso   1.000  O
  O13      1.0000 0.90440  0.27660  0.16540  Biso   1.000  O
  O14      1.0000 0.93470  0.23710  0.30490  Biso   1.000  O
  O15      1.0000 0.11980  0.95690  0.51740  Biso   1.000  O
  O16      1.0000 0.07190  0.99600  0.38030  Biso   1.000  O
  O17      1.0000 0.56310  0.58950  0.45210  Biso   1.000  O
  O18      1.0000 0.47310  0.58440  0.32120  Biso   1.000  O
  C1       1.0000 0.23660  0.05080  0.37600  Biso   1.000  C
  H1       1.0000 0.19440  0.05420  0.33300  Biso   1.000  H
  C2       1.0000 0.15110  0.22300  0.13260  Biso   1.000  C
  H2       1.0000 0.16270  0.21950  0.08070  Biso   1.000  H
  C3       1.0000 0.07290  0.24260  0.14590  Biso   1.000  C
  H3       1.0000 0.03220  0.25240  0.10330  Biso   1.000  H
  C4       1.0000 0.28300  0.01890  0.51140  Biso   1.000  C
  H4       1.0000 0.27190  0.00010  0.55850  Biso   1.000  H
  C5       1.0000 0.19370  0.21320  0.27380  Biso   1.000  C
  H5       1.0000 0.23380  0.20350  0.31690  Biso   1.000  H
  C6       1.0000 0.97340  0.40360  0.22120  Biso   1.000  C
  H6       1.0000 0.95950  0.39540  0.16700  Biso   1.000  H
  C7       1.0000 0.63220  0.58140  0.32320  Biso   1.000  C
  C8       1.0000 0.59350  0.44820  0.44170  Biso   1.000  C
  H7       1.0000 0.62490  0.47150  0.48220  Biso   1.000  H
  C9       1.0000 0.99110  0.46520  0.24780  Biso   1.000  C
  H8       1.0000 0.98820  0.49910  0.21160  Biso   1.000  H
  C10      1.0000 0.21220  0.20850  0.19640  Biso   1.000  C
  C11      1.0000 0.01500  0.42720  0.38220  Biso   1.000  C
  H9       1.0000 0.02910  0.43500  0.43650  Biso   1.000  H
  C12      1.0000 0.46230  0.09590  0.42320  Biso   1.000  C
  C13      1.0000 0.11590  0.23220  0.28630  Biso   1.000  C
  H10      1.0000 0.10350  0.23480  0.33800  Biso   1.000  H
  C14      1.0000 0.01420  0.18020  0.47560  Biso   1.000  C
  H11      1.0000 0.98980  0.21180  0.44070  Biso   1.000  H
  C15      1.0000 0.07980  0.07810  0.49670  Biso   1.000  C
  C16      1.0000 0.59340  0.38150  0.44240  Biso   1.000  C
  H12      1.0000 0.62570  0.35980  0.48380  Biso   1.000  H
  C17      1.0000 0.05620  0.24730  0.22300  Biso   1.000  C
  C18      1.0000 0.76560  0.60860  0.24880  Biso   1.000  C
  C19      1.0000 0.29720  0.18780  0.18100  Biso   1.000  C
  C20      1.0000 0.08810  0.08630  0.57890  Biso   1.000  C
  H13      1.0000 0.11240  0.05450  0.61330  Biso   1.000  H
  C21      1.0000 0.50040  0.37830  0.32160  Biso   1.000  C
  H14      1.0000 0.46970  0.35510  0.28050  Biso   1.000  H
  C22      1.0000 0.02170  0.19020  0.55690  Biso   1.000  C
  C23      1.0000 0.99580  0.36520  0.35500  Biso   1.000  C
  H15      1.0000 0.99600  0.33130  0.39100  Biso   1.000  H
  C24      1.0000 0.31520  0.07060  0.36900  Biso   1.000  C
  H16      1.0000 0.32650  0.08660  0.32060  Biso   1.000  H
  C25      1.0000 0.77220  0.61060  0.33010  Biso   1.000  C
  H17      1.0000 0.82240  0.62190  0.36040  Biso   1.000  H
  C26      1.0000 0.01320  0.47730  0.32850  Biso   1.000  C
  C27      1.0000 0.36220  0.04000  0.50420  Biso   1.000  C
  H18      1.0000 0.40470  0.03630  0.54690  Biso   1.000  H
  C28      1.0000 0.54630  0.27430  0.38210  Biso   1.000  C
  C29      1.0000 0.49860  0.44460  0.31950  Biso   1.000  C
  H19      1.0000 0.46600  0.46630  0.27830  Biso   1.000  H
  C30      1.0000 0.03870  0.54500  0.35630  Biso   1.000  C
  C31      1.0000 0.62480  0.57760  0.24340  Biso   1.000  C
  H20      1.0000 0.57430  0.56650  0.21360  Biso   1.000  H
  C32      1.0000 0.54670  0.47870  0.38030  Biso   1.000  C
  C33      1.0000 0.83760  0.62710  0.20770  Biso   1.000  C
  C34      1.0000 0.37780  0.06700  0.43260  Biso   1.000  C
  C35      1.0000 0.69200  0.58990  0.20600  Biso   1.000  C
  H21      1.0000 0.68750  0.58560  0.15100  Biso   1.000  H
  C36      1.0000 0.05960  0.14270  0.60790  Biso   1.000  C
  H22      1.0000 0.06570  0.14940  0.66260  Biso   1.000  H
  C37      1.0000 0.54600  0.34570  0.38220  Biso   1.000  C
  C38      1.0000 0.04310  0.12350  0.44580  Biso   1.000  C
  H23      1.0000 0.03720  0.11670  0.39110  Biso   1.000  H
  C39      1.0000 0.99040  0.25120  0.58900  Biso   1.000  C
  C40      1.0000 0.22060  0.02620  0.44680  Biso   1.000  C
  C41      1.0000 0.97650  0.35400  0.27540  Biso   1.000  C
  C42      1.0000 0.70530  0.59620  0.36720  Biso   1.000  C
  H24      1.0000 0.71040  0.59650  0.42250  Biso   1.000  H
  Zn4      1.0000 0.02034  0.67416  0.25078  Biso   1.000  Zn
  Zn5      1.0000 0.89719  0.65028  0.06049  Biso   1.000  Zn
  Zn6      1.0000 0.11214  0.63803  0.44434  Biso   1.000  Zn
  S4       1.0000 0.95407  0.06473  0.12670  Biso   1.000  S
  S5       1.0000 0.54189  0.77397  0.25913  Biso   1.000  S
  S6       1.0000 0.38237  0.50600  0.04188  Biso   1.000  S
  O19      1.0000 0.60350  0.15520  0.25260  Biso   1.000  O
  O20      1.0000 0.00380  0.74680  0.17000  Biso   1.000  O
  O21      1.0000 0.02290  0.61100  0.14240  Biso   1.000  O
  O22      1.0000 0.50690  0.75720  0.83800  Biso   1.000  O
  O23      1.0000 0.14600  0.68780  0.26130  Biso   1.000  O
  O24      1.0000 0.46130  0.08770  0.19080  Biso   1.000  O
  O25      1.0000 0.90390  0.74460  0.06630  Biso   1.000  O
  O26      1.0000 0.66940  0.11400  0.36470  Biso   1.000  O
  O27      1.0000 0.98940  0.60400  0.01330  Biso   1.000  O
  O28      1.0000 0.53850  0.79300  0.96290  Biso   1.000  O
  O29      1.0000 0.19800  0.67320  0.39100  Biso   1.000  O
  O30      1.0000 0.43410  0.05220  0.07010  Biso   1.000  O
  O31      1.0000 0.59560  0.77660  0.33460  Biso   1.000  O
  O32      1.0000 0.56530  0.73710  0.19510  Biso   1.000  O
  O33      1.0000 0.38020  0.45690  0.98260  Biso   1.000  O
  O34      1.0000 0.42810  0.49600  0.11970  Biso   1.000  O
  O35      1.0000 0.93690  0.08950  0.04790  Biso   1.000  O
  O36      1.0000 0.02690  0.08440  0.17880  Biso   1.000  O
  C43      1.0000 0.26340  0.55080  0.12400  Biso   1.000  C
  H25      1.0000 0.30560  0.55420  0.16700  Biso   1.000  H
  C44      1.0000 0.34890  0.72300  0.36740  Biso   1.000  C
  H26      1.0000 0.33730  0.71950  0.41930  Biso   1.000  H
  C45      1.0000 0.42710  0.74260  0.35410  Biso   1.000  C
  H27      1.0000 0.46780  0.75240  0.39670  Biso   1.000  H
  C46      1.0000 0.21700  0.51890  0.98860  Biso   1.000  C
  H28      1.0000 0.22810  0.50010  0.94150  Biso   1.000  H
  C47      1.0000 0.30630  0.71320  0.22620  Biso   1.000  C
  H29      1.0000 0.26620  0.70350  0.18310  Biso   1.000  H
  C48      1.0000 0.52660  0.90360  0.27880  Biso   1.000  C
  H30      1.0000 0.54050  0.89540  0.33300  Biso   1.000  H
  C49      1.0000 0.86780  0.08140  0.17680  Biso   1.000  C
  C50      1.0000 0.90650  0.94820  0.05830  Biso   1.000  C
  H31      1.0000 0.87510  0.97150  0.01780  Biso   1.000  H
  C51      1.0000 0.50890  0.96520  0.25220  Biso   1.000  C
  H32      1.0000 0.51180  0.99910  0.28840  Biso   1.000  H
  C52      1.0000 0.28780  0.70850  0.30360  Biso   1.000  C
  C53      1.0000 0.48500  0.92720  0.11780  Biso   1.000  C
  H33      1.0000 0.47090  0.93500  0.06350  Biso   1.000  H
  C54      1.0000 0.03770  0.59590  0.07680  Biso   1.000  C
  C55      1.0000 0.38410  0.73220  0.21370  Biso   1.000  C
  H34      1.0000 0.39650  0.73480  0.16200  Biso   1.000  H
  C56      1.0000 0.48580  0.68020  0.02440  Biso   1.000  C
  H35      1.0000 0.51020  0.71180  0.05930  Biso   1.000  H
  C57      1.0000 0.42020  0.57810  0.00330  Biso   1.000  C
  C58      1.0000 0.90660  0.88150  0.05760  Biso   1.000  C
  H36      1.0000 0.87430  0.85980  0.01620  Biso   1.000  H
  C59      1.0000 0.44380  0.74730  0.27700  Biso   1.000  C
  C60      1.0000 0.73440  0.10860  0.25120  Biso   1.000  C
  C61      1.0000 0.20280  0.68780  0.31900  Biso   1.000  C
  C62      1.0000 0.41190  0.58630  0.92110  Biso   1.000  C
  H37      1.0000 0.38760  0.55450  0.88670  Biso   1.000  H
  C63      1.0000 0.99960  0.87830  0.17840  Biso   1.000  C
  H38      1.0000 0.03030  0.85510  0.21950  Biso   1.000  H
  C64      1.0000 0.47830  0.69020  0.94310  Biso   1.000  C
  C65      1.0000 0.50420  0.86520  0.14500  Biso   1.000  C
  H39      1.0000 0.50400  0.83130  0.10900  Biso   1.000  H
  C66      1.0000 0.18480  0.57060  0.13100  Biso   1.000  C
  H40      1.0000 0.17350  0.58660  0.17940  Biso   1.000  H
  C67      1.0000 0.72780  0.11060  0.16990  Biso   1.000  C
  H41      1.0000 0.67760  0.12190  0.13960  Biso   1.000  H
  C68      1.0000 0.48680  0.97730  0.17150  Biso   1.000  C
  C69      1.0000 0.13780  0.54000  0.99580  Biso   1.000  C
  H42      1.0000 0.09530  0.53630  0.95310  Biso   1.000  H
  C70      1.0000 0.95370  0.77430  0.11790  Biso   1.000  C
  C71      1.0000 0.00140  0.94460  0.18050  Biso   1.000  C
  H43      1.0000 0.03400  0.96630  0.22170  Biso   1.000  H
  C72      1.0000 0.46130  0.04500  0.14370  Biso   1.000  C
  C73      1.0000 0.87520  0.07760  0.25660  Biso   1.000  C
  H44      1.0000 0.92570  0.06650  0.28640  Biso   1.000  H
  C74      1.0000 0.95330  0.97870  0.11970  Biso   1.000  C
  C75      1.0000 0.66240  0.12710  0.29230  Biso   1.000  C
  C76      1.0000 0.12220  0.56700  0.06740  Biso   1.000  C
  C77      1.0000 0.80800  0.08990  0.29400  Biso   1.000  C
  H45      1.0000 0.81250  0.08560  0.34900  Biso   1.000  H
  C78      1.0000 0.44040  0.64270  0.89210  Biso   1.000  C
  H46      1.0000 0.43430  0.64940  0.83740  Biso   1.000  H
  C79      1.0000 0.95400  0.84570  0.11780  Biso   1.000  C
  C80      1.0000 0.45690  0.62350  0.05420  Biso   1.000  C
  H47      1.0000 0.46280  0.61670  0.10890  Biso   1.000  H
  C81      1.0000 0.50960  0.75120  0.91100  Biso   1.000  C
  C82      1.0000 0.27940  0.52620  0.05320  Biso   1.000  C
  C83      1.0000 0.52350  0.85400  0.22460  Biso   1.000  C
  C84      1.0000 0.79470  0.09620  0.13280  Biso   1.000  C
  H48      1.0000 0.78960  0.09650  0.07750  Biso   1.000  H
  Zn7      1.0000 0.52034  0.82584  0.75078  Biso   1.000  Zn
  Zn8      1.0000 0.39719  0.84972  0.56049  Biso   1.000  Zn
  Zn9      1.0000 0.61214  0.86197  0.94434  Biso   1.000  Zn
  S7       1.0000 0.45407  0.43527  0.62670  Biso   1.000  S
  S8       1.0000 0.04189  0.72603  0.75913  Biso   1.000  S
  S9       1.0000 0.88237  0.99400  0.54188  Biso   1.000  S
  O37      1.0000 0.10350  0.34480  0.75260  Biso   1.000  O
  O38      1.0000 0.50380  0.75320  0.67000  Biso   1.000  O
  O39      1.0000 0.52290  0.88900  0.64240  Biso   1.000  O
  O40      1.0000 0.00690  0.74280  0.33800  Biso   1.000  O
  O41      1.0000 0.64600  0.81220  0.76130  Biso   1.000  O
  O42      1.0000 0.96130  0.41230  0.69080  Biso   1.000  O
  O43      1.0000 0.40390  0.75540  0.56630  Biso   1.000  O
  O44      1.0000 0.16940  0.38600  0.86470  Biso   1.000  O
  O45      1.0000 0.48940  0.89600  0.51330  Biso   1.000  O
  O46      1.0000 0.03850  0.70700  0.46290  Biso   1.000  O
  O47      1.0000 0.69800  0.82680  0.89100  Biso   1.000  O
  O48      1.0000 0.93410  0.44780  0.57010  Biso   1.000  O
  O49      1.0000 0.09560  0.72340  0.83460  Biso   1.000  O
  O50      1.0000 0.06530  0.76290  0.69510  Biso   1.000  O
  O51      1.0000 0.88020  0.04310  0.48260  Biso   1.000  O
  O52      1.0000 0.92810  0.00400  0.61970  Biso   1.000  O
  O53      1.0000 0.43690  0.41050  0.54790  Biso   1.000  O
  O54      1.0000 0.52690  0.41560  0.67880  Biso   1.000  O
  C85      1.0000 0.76340  0.94920  0.62400  Biso   1.000  C
  H49      1.0000 0.80560  0.94580  0.66700  Biso   1.000  H
  C86      1.0000 0.84890  0.77700  0.86740  Biso   1.000  C
  H50      1.0000 0.83730  0.78050  0.91930  Biso   1.000  H
  C87      1.0000 0.92710  0.75740  0.85410  Biso   1.000  C
  H51      1.0000 0.96780  0.74760  0.89670  Biso   1.000  H
  C88      1.0000 0.71700  0.98110  0.48860  Biso   1.000  C
  H52      1.0000 0.72810  0.99990  0.44150  Biso   1.000  H
  C89      1.0000 0.80630  0.78680  0.72620  Biso   1.000  C
  H53      1.0000 0.76620  0.79650  0.68310  Biso   1.000  H
  C90      1.0000 0.02660  0.59640  0.77880  Biso   1.000  C
  H54      1.0000 0.04050  0.60460  0.83300  Biso   1.000  H
  C91      1.0000 0.36780  0.41860  0.67680  Biso   1.000  C
  C92      1.0000 0.40650  0.55180  0.55830  Biso   1.000  C
  H55      1.0000 0.37510  0.52850  0.51780  Biso   1.000  H
  C93      1.0000 0.00890  0.53480  0.75220  Biso   1.000  C
  H56      1.0000 0.01180  0.50090  0.78840  Biso   1.000  H
  C94      1.0000 0.78780  0.79150  0.80360  Biso   1.000  C
  C95      1.0000 0.98500  0.57280  0.61780  Biso   1.000  C
  H57      1.0000 0.97090  0.56500  0.56350  Biso   1.000  H
  C96      1.0000 0.53770  0.90410  0.57680  Biso   1.000  C
  C97      1.0000 0.88410  0.76780  0.71370  Biso   1.000  C
  H58      1.0000 0.89650  0.76520  0.66200  Biso   1.000  H
  C98      1.0000 0.98580  0.81980  0.52440  Biso   1.000  C
  H59      1.0000 0.01020  0.78820  0.55930  Biso   1.000  H
  C99      1.0000 0.92020  0.92190  0.50330  Biso   1.000  C
  C100     1.0000 0.40660  0.61850  0.55760  Biso   1.000  C
  H60      1.0000 0.37430  0.64020  0.51620  Biso   1.000  H
  C101     1.0000 0.94380  0.75270  0.77700  Biso   1.000  C
  C102     1.0000 0.23440  0.39140  0.75120  Biso   1.000  C
  C103     1.0000 0.70280  0.81220  0.81900  Biso   1.000  C
  C104     1.0000 0.91190  0.91370  0.42110  Biso   1.000  C
  H61      1.0000 0.88760  0.94550  0.38670  Biso   1.000  H
  C105     1.0000 0.49960  0.62170  0.67840  Biso   1.000  C
  H62      1.0000 0.53030  0.64490  0.71950  Biso   1.000  H
  C106     1.0000 0.97830  0.80980  0.44310  Biso   1.000  C
  C107     1.0000 0.00420  0.63480  0.64500  Biso   1.000  C
  H63      1.0000 0.00400  0.66870  0.60900  Biso   1.000  H
  C108     1.0000 0.68480  0.92940  0.63100  Biso   1.000  C
  H64      1.0000 0.67350  0.91340  0.67940  Biso   1.000  H
  C109     1.0000 0.22780  0.38940  0.66990  Biso   1.000  C
  H65      1.0000 0.17760  0.37810  0.63960  Biso   1.000  H
  C110     1.0000 0.98680  0.52270  0.67150  Biso   1.000  C
  C111     1.0000 0.63780  0.96000  0.49580  Biso   1.000  C
  H66      1.0000 0.59530  0.96370  0.45310  Biso   1.000  H
  C112     1.0000 0.45370  0.72570  0.61790  Biso   1.000  C
  C113     1.0000 0.50140  0.55540  0.68050  Biso   1.000  C
  H67      1.0000 0.53400  0.53370  0.72170  Biso   1.000  H
  C114     1.0000 0.96130  0.45500  0.64370  Biso   1.000  C
  C115     1.0000 0.37520  0.42240  0.75660  Biso   1.000  C
  H68      1.0000 0.42570  0.43350  0.78640  Biso   1.000  H
  C116     1.0000 0.45330  0.52130  0.61970  Biso   1.000  C
  C117     1.0000 0.16240  0.37290  0.79230  Biso   1.000  C
  C118     1.0000 0.62220  0.93300  0.56740  Biso   1.000  C
  C119     1.0000 0.30800  0.41010  0.79400  Biso   1.000  C
  H69      1.0000 0.31250  0.41440  0.84900  Biso   1.000  H
  C120     1.0000 0.94040  0.85730  0.39210  Biso   1.000  C
  H70      1.0000 0.93430  0.85060  0.33740  Biso   1.000  H
  C121     1.0000 0.45400  0.65430  0.61780  Biso   1.000  C
  C122     1.0000 0.95690  0.87650  0.55420  Biso   1.000  C
  H71      1.0000 0.96280  0.88330  0.60890  Biso   1.000  H
  C123     1.0000 0.00960  0.74880  0.41100  Biso   1.000  C
  C124     1.0000 0.77940  0.97380  0.55320  Biso   1.000  C
  C125     1.0000 0.02350  0.64600  0.72460  Biso   1.000  C
  C126     1.0000 0.29470  0.40380  0.63280  Biso   1.000  C
  H72      1.0000 0.28960  0.40350  0.57750  Biso   1.000  H
  Zn10     1.0000 0.97966  0.32584  0.74922  Biso   1.000  Zn
  Zn11     1.0000 0.10281  0.34972  0.93951  Biso   1.000  Zn
  Zn12     1.0000 0.88786  0.36197  0.55566  Biso   1.000  Zn
  S10      1.0000 0.04593  0.93527  0.87330  Biso   1.000  S
  S11      1.0000 0.45811  0.22603  0.74087  Biso   1.000  S
  S12      1.0000 0.61763  0.49400  0.95812  Biso   1.000  S
  O55      1.0000 0.39650  0.84480  0.74740  Biso   1.000  O
  O56      1.0000 0.99620  0.25320  0.83000  Biso   1.000  O
  O57      1.0000 0.97710  0.38900  0.85760  Biso   1.000  O
  O58      1.0000 0.49310  0.24280  0.16200  Biso   1.000  O
  O59      1.0000 0.85400  0.31220  0.73870  Biso   1.000  O
  O60      1.0000 0.53870  0.91230  0.80920  Biso   1.000  O
  O61      1.0000 0.09610  0.25540  0.93370  Biso   1.000  O
  O62      1.0000 0.33060  0.88600  0.63530  Biso   1.000  O
  O63      1.0000 0.01060  0.39600  0.98670  Biso   1.000  O
  O64      1.0000 0.46150  0.20700  0.03710  Biso   1.000  O
  O65      1.0000 0.80200  0.32680  0.60900  Biso   1.000  O
  O66      1.0000 0.56590  0.94780  0.92990  Biso   1.000  O
  O67      1.0000 0.40440  0.22340  0.66540  Biso   1.000  O
  O68      1.0000 0.43470  0.26290  0.80490  Biso   1.000  O
  O69      1.0000 0.61980  0.54310  0.01740  Biso   1.000  O
  O70      1.0000 0.57190  0.50400  0.88030  Biso   1.000  O
  O71      1.0000 0.06310  0.91050  0.95210  Biso   1.000  O
  O72      1.0000 0.97310  0.91560  0.82120  Biso   1.000  O
  C127     1.0000 0.73660  0.44920  0.87600  Biso   1.000  C
  H73      1.0000 0.69440  0.44580  0.83300  Biso   1.000  H
  C128     1.0000 0.65110  0.27700  0.63260  Biso   1.000  C
  H74      1.0000 0.66270  0.28050  0.58070  Biso   1.000  H
  C129     1.0000 0.57290  0.25740  0.64590  Biso   1.000  C
  H75      1.0000 0.53220  0.24760  0.60330  Biso   1.000  H
  C130     1.0000 0.78300  0.48110  0.01140  Biso   1.000  C
  H76      1.0000 0.77190  0.49990  0.05850  Biso   1.000  H
  C131     1.0000 0.69370  0.28680  0.77380  Biso   1.000  C
  H77      1.0000 0.73380  0.29650  0.81690  Biso   1.000  H
  C132     1.0000 0.47340  0.09640  0.72120  Biso   1.000  C
  H78      1.0000 0.45950  0.10460  0.66700  Biso   1.000  H
  C133     1.0000 0.13220  0.91860  0.82320  Biso   1.000  C
  C134     1.0000 0.09350  0.05180  0.94170  Biso   1.000  C
  H79      1.0000 0.12490  0.02850  0.98220  Biso   1.000  H
  C135     1.0000 0.49110  0.03480  0.74780  Biso   1.000  C
  H80      1.0000 0.48820  0.00090  0.71160  Biso   1.000  H
  C136     1.0000 0.71220  0.29150  0.69640  Biso   1.000  C
  C137     1.0000 0.51500  0.07280  0.88220  Biso   1.000  C
  H81      1.0000 0.52910  0.06500  0.93650  Biso   1.000  H
  C138     1.0000 0.96230  0.40410  0.92320  Biso   1.000  C
  C139     1.0000 0.61590  0.26780  0.78630  Biso   1.000  C
  H82      1.0000 0.60350  0.26520  0.83800  Biso   1.000  H
  C140     1.0000 0.51420  0.31980  0.97560  Biso   1.000  C
  H83      1.0000 0.48980  0.28820  0.94070  Biso   1.000  H
  C141     1.0000 0.57980  0.42190  0.99670  Biso   1.000  C
  C142     1.0000 0.09340  0.11850  0.94240  Biso   1.000  C
  H84      1.0000 0.12570  0.14020  0.98380  Biso   1.000  H
  C143     1.0000 0.55620  0.25270  0.72300  Biso   1.000  C
  C144     1.0000 0.26560  0.89140  0.74880  Biso   1.000  C
  C145     1.0000 0.79720  0.31220  0.68100  Biso   1.000  C
  C146     1.0000 0.58810  0.41370  0.07890  Biso   1.000  C
  H85      1.0000 0.61240  0.44550  0.11330  Biso   1.000  H
  C147     1.0000 0.00040  0.12170  0.82160  Biso   1.000  C
  H86      1.0000 0.96970  0.14490  0.78050  Biso   1.000  H
  C148     1.0000 0.52170  0.30980  0.05690  Biso   1.000  C
  C149     1.0000 0.49580  0.13480  0.85500  Biso   1.000  C
  H87      1.0000 0.49600  0.16870  0.89100  Biso   1.000  H
  C150     1.0000 0.81520  0.42940  0.86900  Biso   1.000  C
  H88      1.0000 0.82650  0.41340  0.82060  Biso   1.000  H
  C151     1.0000 0.27220  0.88940  0.83010  Biso   1.000  C
  H89      1.0000 0.32240  0.87810  0.86040  Biso   1.000  H
  C152     1.0000 0.51320  0.02270  0.82850  Biso   1.000  C
  C153     1.0000 0.86220  0.46000  0.00420  Biso   1.000  C
  H90      1.0000 0.90470  0.46370  0.04690  Biso   1.000  H
  C154     1.0000 0.04630  0.22570  0.88210  Biso   1.000  C
  C155     1.0000 0.99860  0.05540  0.81950  Biso   1.000  C
  H91      1.0000 0.96600  0.03370  0.77830  Biso   1.000  H
  C156     1.0000 0.53870  0.95500  0.85630  Biso   1.000  C
  C157     1.0000 0.12480  0.92240  0.74340  Biso   1.000  C
  H92      1.0000 0.07430  0.93350  0.71360  Biso   1.000  H
  C158     1.0000 0.04670  0.02130  0.88030  Biso   1.000  C
  C159     1.0000 0.33760  0.87290  0.70770  Biso   1.000  C
  C160     1.0000 0.87780  0.43300  0.93260  Biso   1.000  C
  C161     1.0000 0.19200  0.91010  0.70600  Biso   1.000  C
  H93      1.0000 0.18750  0.91440  0.65100  Biso   1.000  H
  C162     1.0000 0.55960  0.35730  0.10790  Biso   1.000  C
  H94      1.0000 0.56570  0.35060  0.16260  Biso   1.000  H
  C163     1.0000 0.04600  0.15430  0.88220  Biso   1.000  C
  C164     1.0000 0.54310  0.37650  0.94580  Biso   1.000  C
  H95      1.0000 0.53720  0.38330  0.89110  Biso   1.000  H
  C165     1.0000 0.49040  0.24880  0.08900  Biso   1.000  C
  C166     1.0000 0.72060  0.47380  0.94680  Biso   1.000  C
  C167     1.0000 0.47650  0.14600  0.77540  Biso   1.000  C
  C168     1.0000 0.20530  0.90380  0.86720  Biso   1.000  C
  H96      1.0000 0.21040  0.90350  0.92250  Biso   1.000  H
