data_image0
_cell_length_a       13.081
_cell_length_b       16.379
_cell_length_c       15.407
_cell_angle_alpha    90
_cell_angle_beta     102.368
_cell_angle_gamma    90

_symmetry_space_group_name_H-M    "P 1"
_symmetry_int_tables_number       1

loop_
  _symmetry_equiv_pos_as_xyz
  'x, y, z'

loop_
  _atom_site_label
  _atom_site_occupancy
  _atom_site_fract_x
  _atom_site_fract_y
  _atom_site_fract_z
  _atom_site_thermal_displace_type
  _atom_site_B_iso_or_equiv
  _atom_site_type_symbol
  Ni1      1.0000 0.48884  0.30586  0.57391  Biso   1.000  Ni
  V1       1.0000 0.34094  0.33234  0.35453  Biso   1.000  V
  V2       1.0000 0.27631  0.65855  0.25152  Biso   1.000  V
  V3       1.0000 0.21851  0.50397  0.37800  Biso   1.000  V
  O1       1.0000 0.11347  0.49888  0.42107  Biso   1.000  O
  O2       1.0000 0.20195  0.58293  0.29693  Biso   1.000  O
  O3       1.0000 0.62118  0.31387  0.67173  Biso   1.000  O
  O4       1.0000 0.23726  0.40738  0.33093  Biso   1.000  O
  O5       1.0000 0.30330  0.24596  0.28597  Biso   1.000  O
  O6       1.0000 0.36682  0.30945  0.46192  Biso   1.000  O
  N1       1.0000 0.01124  0.36893  0.51236  Biso   1.000  N
  N2       1.0000 0.38089  0.02037  0.88675  Biso   1.000  N
  N3       1.0000 0.01578  0.67877  0.92433  Biso   1.000  N
  N4       1.0000 0.38962  0.30581  0.66265  Biso   1.000  N
  C1       1.0000 0.39260  0.07092  0.82090  Biso   1.000  C
  H1       1.0000 0.45940  0.08960  0.81980  Biso   1.000  H
  C2       1.0000 0.01790  0.19754  0.51764  Biso   1.000  C
  C3       1.0000 0.24710  0.30951  0.77491  Biso   1.000  C
  C4       1.0000 0.42160  0.31970  0.74970  Biso   1.000  C
  H2       1.0000 0.49250  0.32860  0.77280  Biso   1.000  H
  C5       1.0000 0.94550  0.63502  0.86790  Biso   1.000  C
  H3       1.0000 0.88730  0.66170  0.83460  Biso   1.000  H
  C6       1.0000 0.21630  0.29613  0.68490  Biso   1.000  C
  H4       1.0000 0.14580  0.28830  0.65950  Biso   1.000  H
  C7       1.0000 0.07650  0.24181  0.46991  Biso   1.000  C
  H5       1.0000 0.11980  0.21490  0.43860  Biso   1.000  H
  C8       1.0000 0.95490  0.55175  0.85650  Biso   1.000  C
  H6       1.0000 0.90350  0.52380  0.81640  Biso   1.000  H
  C9       1.0000 0.95370  0.32597  0.55850  Biso   1.000  C
  H7       1.0000 0.91160  0.35430  0.58980  Biso   1.000  H
  C10      1.0000 0.28500  0.99280  0.88435  Biso   1.000  C
  H8       1.0000 0.27550  0.95630  0.92820  Biso   1.000  H
  C11      1.0000 0.20950  0.06882  0.75405  Biso   1.000  C
  C12      1.0000 0.31040  0.09623  0.75519  Biso   1.000  C
  H9       1.0000 0.32220  0.13180  0.71130  Biso   1.000  H
  C13      1.0000 0.02680  0.10586  0.52260  Biso   1.000  C
  H10      1.0000 0.03030  0.08460  0.46450  Biso   1.000  H
  H11      1.0000 0.96480  0.08350  0.53870  Biso   1.000  H
  C14      1.0000 0.19880  0.01517  0.82060  Biso   1.000  C
  H12      1.0000 0.13330  0.99410  0.82240  Biso   1.000  H
  C15      1.0000 0.35290  0.32130  0.80660  Biso   1.000  C
  H13      1.0000 0.37840  0.33040  0.86700  Biso   1.000  H
  C16      1.0000 0.07130  0.32570  0.46843  Biso   1.000  C
  H14      1.0000 0.11140  0.35390  0.43530  Biso   1.000  H
  C17      1.0000 0.11510  0.09480  0.68650  Biso   1.000  C
  H15      1.0000 0.05430  0.06610  0.69770  Biso   1.000  H
  H16      1.0000 0.10380  0.15270  0.69340  Biso   1.000  H
  C18      1.0000 0.12460  0.07824  0.59110  Biso   1.000  C
  H17      1.0000 0.13530  0.02020  0.58390  Biso   1.000  H
  H18      1.0000 0.18540  0.10670  0.57980  Biso   1.000  H
  C19      1.0000 0.09750  0.63795  0.97196  Biso   1.000  C
  H19      1.0000 0.14710  0.66680  0.01280  Biso   1.000  H
  C20      1.0000 0.03960  0.51019  0.90390  Biso   1.000  C
  C21      1.0000 0.11150  0.55524  0.96330  Biso   1.000  C
  H20      1.0000 0.16980  0.52970  0.99760  Biso   1.000  H
  C22      1.0000 0.95370  0.24141  0.56190  Biso   1.000  C
  H21      1.0000 0.91100  0.21420  0.59360  Biso   1.000  H
  C23      1.0000 0.16950  0.31666  0.83320  Biso   1.000  C
  H22      1.0000 0.20090  0.29820  0.89280  Biso   1.000  H
  H23      1.0000 0.10900  0.28270  0.81020  Biso   1.000  H
  C24      1.0000 0.28800  0.29429  0.63262  Biso   1.000  C
  H24      1.0000 0.26430  0.28430  0.57220  Biso   1.000  H
  C25      1.0000 0.13610  0.40553  0.83560  Biso   1.000  C
  H25      1.0000 0.19750  0.43860  0.85830  Biso   1.000  H
  H26      1.0000 0.10660  0.42340  0.77550  Biso   1.000  H
  C26      1.0000 0.05620  0.42021  0.89260  Biso   1.000  C
  H27      1.0000 0.99030  0.39490  0.86480  Biso   1.000  H
  H28      1.0000 0.08040  0.39520  0.95040  Biso   1.000  H
  Ni2      1.0000 0.01116  0.80586  0.92609  Biso   1.000  Ni
  V4       1.0000 0.15906  0.83234  0.14547  Biso   1.000  V
  V5       1.0000 0.22369  0.15855  0.24848  Biso   1.000  V
  V6       1.0000 0.28149  0.00397  0.12200  Biso   1.000  V
  O7       1.0000 0.38653  0.99888  0.07893  Biso   1.000  O
  O8       1.0000 0.29805  0.08293  0.20307  Biso   1.000  O
  O9       1.0000 0.87882  0.81387  0.82827  Biso   1.000  O
  O10      1.0000 0.26274  0.90738  0.16907  Biso   1.000  O
  O11      1.0000 0.19670  0.74596  0.21403  Biso   1.000  O
  O12      1.0000 0.13318  0.80945  0.03808  Biso   1.000  O
  N5       1.0000 0.48876  0.86893  0.98764  Biso   1.000  N
  N6       1.0000 0.11911  0.52037  0.61325  Biso   1.000  N
  N7       1.0000 0.48422  0.17877  0.57567  Biso   1.000  N
  N8       1.0000 0.11038  0.80581  0.83735  Biso   1.000  N
  C27      1.0000 0.10740  0.57092  0.67910  Biso   1.000  C
  H29      1.0000 0.04060  0.58960  0.68020  Biso   1.000  H
  C28      1.0000 0.48210  0.69754  0.98236  Biso   1.000  C
  C29      1.0000 0.25290  0.80951  0.72509  Biso   1.000  C
  C30      1.0000 0.07840  0.81970  0.75030  Biso   1.000  C
  H30      1.0000 0.00750  0.82860  0.72720  Biso   1.000  H
  C31      1.0000 0.55450  0.13502  0.63210  Biso   1.000  C
  H31      1.0000 0.61270  0.16170  0.66540  Biso   1.000  H
  C32      1.0000 0.28370  0.79613  0.81510  Biso   1.000  C
  H32      1.0000 0.35420  0.78830  0.84050  Biso   1.000  H
  C33      1.0000 0.42350  0.74181  0.03009  Biso   1.000  C
  H33      1.0000 0.38020  0.71490  0.06140  Biso   1.000  H
  C34      1.0000 0.54510  0.05175  0.64350  Biso   1.000  C
  H34      1.0000 0.59650  0.02380  0.68360  Biso   1.000  H
  C35      1.0000 0.54630  0.82597  0.94150  Biso   1.000  C
  H35      1.0000 0.58840  0.85430  0.91020  Biso   1.000  H
  C36      1.0000 0.21500  0.49280  0.61565  Biso   1.000  C
  H36      1.0000 0.22450  0.45630  0.57180  Biso   1.000  H
  C37      1.0000 0.29050  0.56882  0.74595  Biso   1.000  C
  C38      1.0000 0.18960  0.59623  0.74481  Biso   1.000  C
  H37      1.0000 0.17780  0.63180  0.78870  Biso   1.000  H
  C39      1.0000 0.47320  0.60586  0.97740  Biso   1.000  C
  H38      1.0000 0.46970  0.58460  0.03550  Biso   1.000  H
  H39      1.0000 0.53520  0.58350  0.96130  Biso   1.000  H
  C40      1.0000 0.30120  0.51517  0.67940  Biso   1.000  C
  H40      1.0000 0.36670  0.49410  0.67760  Biso   1.000  H
  C41      1.0000 0.14710  0.82130  0.69340  Biso   1.000  C
  H41      1.0000 0.12160  0.83040  0.63300  Biso   1.000  H
  C42      1.0000 0.42870  0.82570  0.03157  Biso   1.000  C
  H42      1.0000 0.38860  0.85390  0.06470  Biso   1.000  H
  C43      1.0000 0.38490  0.59480  0.81350  Biso   1.000  C
  H43      1.0000 0.44570  0.56610  0.80230  Biso   1.000  H
  H44      1.0000 0.39620  0.65270  0.80660  Biso   1.000  H
  C44      1.0000 0.37540  0.57824  0.90890  Biso   1.000  C
  H45      1.0000 0.36470  0.52020  0.91610  Biso   1.000  H
  H46      1.0000 0.31460  0.60670  0.92020  Biso   1.000  H
  C45      1.0000 0.40250  0.13795  0.52804  Biso   1.000  C
  H47      1.0000 0.35290  0.16680  0.48720  Biso   1.000  H
  C46      1.0000 0.46040  0.01019  0.59610  Biso   1.000  C
  C47      1.0000 0.38850  0.05524  0.53670  Biso   1.000  C
  H48      1.0000 0.33020  0.02970  0.50240  Biso   1.000  H
  C48      1.0000 0.54630  0.74141  0.93810  Biso   1.000  C
  H49      1.0000 0.58900  0.71420  0.90640  Biso   1.000  H
  C49      1.0000 0.33050  0.81666  0.66680  Biso   1.000  C
  H50      1.0000 0.29910  0.79820  0.60720  Biso   1.000  H
  H51      1.0000 0.39100  0.78270  0.68980  Biso   1.000  H
  C50      1.0000 0.21200  0.79429  0.86738  Biso   1.000  C
  H52      1.0000 0.23570  0.78430  0.92780  Biso   1.000  H
  C51      1.0000 0.36390  0.90553  0.66440  Biso   1.000  C
  H53      1.0000 0.30250  0.93860  0.64170  Biso   1.000  H
  H54      1.0000 0.39340  0.92340  0.72450  Biso   1.000  H
  C52      1.0000 0.44380  0.92021  0.60740  Biso   1.000  C
  H55      1.0000 0.50970  0.89490  0.63520  Biso   1.000  H
  H56      1.0000 0.41960  0.89520  0.54960  Biso   1.000  H
  Ni3      1.0000 0.51116  0.69414  0.42609  Biso   1.000  Ni
  V7       1.0000 0.65906  0.66766  0.64547  Biso   1.000  V
  V8       1.0000 0.72369  0.34145  0.74848  Biso   1.000  V
  V9       1.0000 0.78149  0.49603  0.62200  Biso   1.000  V
  O13      1.0000 0.88653  0.50112  0.57893  Biso   1.000  O
  O14      1.0000 0.79805  0.41707  0.70307  Biso   1.000  O
  O15      1.0000 0.37882  0.68613  0.32827  Biso   1.000  O
  O16      1.0000 0.76274  0.59262  0.66907  Biso   1.000  O
  O17      1.0000 0.69670  0.75404  0.71403  Biso   1.000  O
  O18      1.0000 0.63318  0.69055  0.53808  Biso   1.000  O
  N9       1.0000 0.98876  0.63107  0.48764  Biso   1.000  N
  N10      1.0000 0.61911  0.97963  0.11325  Biso   1.000  N
  N11      1.0000 0.98422  0.32123  0.07567  Biso   1.000  N
  N12      1.0000 0.61038  0.69419  0.33735  Biso   1.000  N
  C53      1.0000 0.60740  0.92908  0.17910  Biso   1.000  C
  H57      1.0000 0.54060  0.91040  0.18020  Biso   1.000  H
  C54      1.0000 0.98210  0.80246  0.48236  Biso   1.000  C
  C55      1.0000 0.75290  0.69049  0.22509  Biso   1.000  C
  C56      1.0000 0.57840  0.68030  0.25030  Biso   1.000  C
  H58      1.0000 0.50750  0.67140  0.22720  Biso   1.000  H
  C57      1.0000 0.05450  0.36498  0.13210  Biso   1.000  C
  H59      1.0000 0.11270  0.33830  0.16540  Biso   1.000  H
  C58      1.0000 0.78370  0.70387  0.31510  Biso   1.000  C
  H60      1.0000 0.85420  0.71170  0.34050  Biso   1.000  H
  C59      1.0000 0.92350  0.75819  0.53009  Biso   1.000  C
  H61      1.0000 0.88020  0.78510  0.56140  Biso   1.000  H
  C60      1.0000 0.04510  0.44825  0.14350  Biso   1.000  C
  H62      1.0000 0.09650  0.47620  0.18360  Biso   1.000  H
  C61      1.0000 0.04630  0.67403  0.44150  Biso   1.000  C
  H63      1.0000 0.08840  0.64570  0.41020  Biso   1.000  H
  C62      1.0000 0.71500  0.00720  0.11565  Biso   1.000  C
  H64      1.0000 0.72450  0.04370  0.07180  Biso   1.000  H
  C63      1.0000 0.79050  0.93118  0.24595  Biso   1.000  C
  C64      1.0000 0.68960  0.90377  0.24481  Biso   1.000  C
  H65      1.0000 0.67780  0.86820  0.28870  Biso   1.000  H
  C65      1.0000 0.97320  0.89414  0.47740  Biso   1.000  C
  H66      1.0000 0.96970  0.91540  0.53550  Biso   1.000  H
  H67      1.0000 0.03520  0.91650  0.46130  Biso   1.000  H
  C66      1.0000 0.80120  0.98483  0.17940  Biso   1.000  C
  H68      1.0000 0.86670  0.00590  0.17760  Biso   1.000  H
  C67      1.0000 0.64710  0.67870  0.19340  Biso   1.000  C
  H69      1.0000 0.62160  0.66960  0.13300  Biso   1.000  H
  C68      1.0000 0.92870  0.67430  0.53157  Biso   1.000  C
  H70      1.0000 0.88860  0.64610  0.56470  Biso   1.000  H
  C69      1.0000 0.88490  0.90520  0.31350  Biso   1.000  C
  H71      1.0000 0.94570  0.93390  0.30230  Biso   1.000  H
  H72      1.0000 0.89620  0.84730  0.30660  Biso   1.000  H
  C70      1.0000 0.87540  0.92176  0.40890  Biso   1.000  C
  H73      1.0000 0.86470  0.97980  0.41610  Biso   1.000  H
  H74      1.0000 0.81460  0.89330  0.42020  Biso   1.000  H
  C71      1.0000 0.90250  0.36205  0.02804  Biso   1.000  C
  H75      1.0000 0.85290  0.33320  0.98720  Biso   1.000  H
  C72      1.0000 0.96040  0.48981  0.09610  Biso   1.000  C
  C73      1.0000 0.88850  0.44476  0.03670  Biso   1.000  C
  H76      1.0000 0.83020  0.47030  0.00240  Biso   1.000  H
  C74      1.0000 0.04630  0.75859  0.43810  Biso   1.000  C
  H77      1.0000 0.08900  0.78580  0.40640  Biso   1.000  H
  C75      1.0000 0.83050  0.68334  0.16680  Biso   1.000  C
  H78      1.0000 0.79910  0.70180  0.10720  Biso   1.000  H
  H79      1.0000 0.89100  0.71730  0.18980  Biso   1.000  H
  C76      1.0000 0.71200  0.70571  0.36738  Biso   1.000  C
  H80      1.0000 0.73570  0.71570  0.42780  Biso   1.000  H
  C77      1.0000 0.86390  0.59447  0.16440  Biso   1.000  C
  H81      1.0000 0.80250  0.56140  0.14170  Biso   1.000  H
  H82      1.0000 0.89340  0.57660  0.22450  Biso   1.000  H
  C78      1.0000 0.94380  0.57979  0.10740  Biso   1.000  C
  H83      1.0000 0.00970  0.60510  0.13520  Biso   1.000  H
  H84      1.0000 0.91960  0.60480  0.04960  Biso   1.000  H
  Ni4      1.0000 0.98884  0.19414  0.07391  Biso   1.000  Ni
  V10      1.0000 0.84094  0.16766  0.85453  Biso   1.000  V
  V11      1.0000 0.77631  0.84145  0.75152  Biso   1.000  V
  V12      1.0000 0.71851  0.99603  0.87800  Biso   1.000  V
  O19      1.0000 0.61347  0.00112  0.92107  Biso   1.000  O
  O20      1.0000 0.70195  0.91707  0.79693  Biso   1.000  O
  O21      1.0000 0.12118  0.18613  0.17173  Biso   1.000  O
  O22      1.0000 0.73726  0.09262  0.83093  Biso   1.000  O
  O23      1.0000 0.80330  0.25404  0.78597  Biso   1.000  O
  O24      1.0000 0.86682  0.19055  0.96192  Biso   1.000  O
  N13      1.0000 0.51124  0.13107  0.01236  Biso   1.000  N
  N14      1.0000 0.88089  0.47963  0.38675  Biso   1.000  N
  N15      1.0000 0.51578  0.82123  0.42433  Biso   1.000  N
  N16      1.0000 0.88962  0.19419  0.16265  Biso   1.000  N
  C79      1.0000 0.89260  0.42908  0.32090  Biso   1.000  C
  H85      1.0000 0.95940  0.41040  0.31980  Biso   1.000  H
  C80      1.0000 0.51790  0.30246  0.01764  Biso   1.000  C
  C81      1.0000 0.74710  0.19049  0.27491  Biso   1.000  C
  C82      1.0000 0.92160  0.18030  0.24970  Biso   1.000  C
  H86      1.0000 0.99250  0.17140  0.27280  Biso   1.000  H
  C83      1.0000 0.44550  0.86498  0.36790  Biso   1.000  C
  H87      1.0000 0.38730  0.83830  0.33460  Biso   1.000  H
  C84      1.0000 0.71630  0.20387  0.18490  Biso   1.000  C
  H88      1.0000 0.64580  0.21170  0.15950  Biso   1.000  H
  C85      1.0000 0.57650  0.25819  0.96991  Biso   1.000  C
  H89      1.0000 0.61980  0.28510  0.93860  Biso   1.000  H
  C86      1.0000 0.45490  0.94825  0.35650  Biso   1.000  C
  H90      1.0000 0.40350  0.97620  0.31640  Biso   1.000  H
  C87      1.0000 0.45370  0.17403  0.05850  Biso   1.000  C
  H91      1.0000 0.41160  0.14570  0.08980  Biso   1.000  H
  C88      1.0000 0.78500  0.50720  0.38435  Biso   1.000  C
  H92      1.0000 0.77550  0.54370  0.42820  Biso   1.000  H
  C89      1.0000 0.70950  0.43118  0.25405  Biso   1.000  C
  C90      1.0000 0.81040  0.40377  0.25519  Biso   1.000  C
  H93      1.0000 0.82220  0.36820  0.21130  Biso   1.000  H
  C91      1.0000 0.52680  0.39414  0.02260  Biso   1.000  C
  H94      1.0000 0.53030  0.41540  0.96450  Biso   1.000  H
  H95      1.0000 0.46480  0.41650  0.03870  Biso   1.000  H
  C92      1.0000 0.69880  0.48483  0.32060  Biso   1.000  C
  H96      1.0000 0.63330  0.50590  0.32240  Biso   1.000  H
  C93      1.0000 0.85290  0.17870  0.30660  Biso   1.000  C
  H97      1.0000 0.87840  0.16960  0.36700  Biso   1.000  H
  C94      1.0000 0.57130  0.17430  0.96843  Biso   1.000  C
  H98      1.0000 0.61140  0.14610  0.93530  Biso   1.000  H
  C95      1.0000 0.61510  0.40520  0.18650  Biso   1.000  C
  H99      1.0000 0.55430  0.43390  0.19770  Biso   1.000  H
  H100     1.0000 0.60380  0.34730  0.19340  Biso   1.000  H
  C96      1.0000 0.62460  0.42176  0.09110  Biso   1.000  C
  H101     1.0000 0.63530  0.47980  0.08390  Biso   1.000  H
  H102     1.0000 0.68540  0.39330  0.07980  Biso   1.000  H
  C97      1.0000 0.59750  0.86205  0.47196  Biso   1.000  C
  H103     1.0000 0.64710  0.83320  0.51280  Biso   1.000  H
  C98      1.0000 0.53960  0.98981  0.40390  Biso   1.000  C
  C99      1.0000 0.61150  0.94476  0.46330  Biso   1.000  C
  H104     1.0000 0.66980  0.97030  0.49760  Biso   1.000  H
  C100     1.0000 0.45370  0.25859  0.06190  Biso   1.000  C
  H105     1.0000 0.41100  0.28580  0.09360  Biso   1.000  H
  C101     1.0000 0.66950  0.18334  0.33320  Biso   1.000  C
  H106     1.0000 0.70090  0.20180  0.39280  Biso   1.000  H
  H107     1.0000 0.60900  0.21730  0.31020  Biso   1.000  H
  C102     1.0000 0.78800  0.20571  0.13262  Biso   1.000  C
  H108     1.0000 0.76430  0.21570  0.07220  Biso   1.000  H
  C103     1.0000 0.63610  0.09447  0.33560  Biso   1.000  C
  H109     1.0000 0.69750  0.06140  0.35830  Biso   1.000  H
  H110     1.0000 0.60660  0.07660  0.27550  Biso   1.000  H
  C104     1.0000 0.55620  0.07979  0.39260  Biso   1.000  C
  H111     1.0000 0.49030  0.10510  0.36480  Biso   1.000  H
  H112     1.0000 0.58040  0.10480  0.45040  Biso   1.000  H
  Ni5      1.0000 0.00000  0.50000  0.50000  Biso   1.000  Ni
  Ni6      1.0000 0.50000  0.00000  0.00000  Biso   1.000  Ni
