data_image0
_cell_length_a       13.1897
_cell_length_b       16.438
_cell_length_c       15.4725
_cell_angle_alpha    90
_cell_angle_beta     102.345
_cell_angle_gamma    90

_symmetry_space_group_name_H-M    "P 1"
_symmetry_int_tables_number       1

loop_
  _symmetry_equiv_pos_as_xyz
  'x, y, z'

loop_
  _atom_site_label
  _atom_site_occupancy
  _atom_site_fract_x
  _atom_site_fract_y
  _atom_site_fract_z
  _atom_site_thermal_displace_type
  _atom_site_B_iso_or_equiv
  _atom_site_type_symbol
  V1       1.0000 0.34037  0.83342  0.85190  Biso   1.000  V
  V2       1.0000 0.78198  0.99580  0.12255  Biso   1.000  V
  Zn1      1.0000 0.49027  0.80492  0.07205  Biso   1.000  Zn
  V3       1.0000 0.72560  0.83974  0.24685  Biso   1.000  V
  C1       1.0000 0.37490  0.07680  0.40940  Biso   1.000  C
  H1       1.0000 0.36530  0.01870  0.41520  Biso   1.000  H
  H2       1.0000 0.31440  0.10400  0.42190  Biso   1.000  H
  C2       1.0000 0.09790  0.13540  0.47290  Biso   1.000  C
  H3       1.0000 0.14680  0.16450  0.51340  Biso   1.000  H
  C3       1.0000 0.28810  0.79540  0.13240  Biso   1.000  C
  H4       1.0000 0.26460  0.78630  0.07210  Biso   1.000  H
  C4       1.0000 0.42850  0.32360  0.53240  Biso   1.000  C
  H5       1.0000 0.38920  0.35200  0.56570  Biso   1.000  H
  C5       1.0000 0.11300  0.05320  0.46420  Biso   1.000  C
  H6       1.0000 0.17110  0.02810  0.49850  Biso   1.000  H
  C6       1.0000 0.94770  0.13150  0.36780  Biso   1.000  C
  H7       1.0000 0.89060  0.15800  0.33380  Biso   1.000  H
  C7       1.0000 0.17030  0.81460  0.33270  Biso   1.000  C
  H8       1.0000 0.20150  0.79580  0.39180  Biso   1.000  H
  H9       1.0000 0.11020  0.78100  0.30950  Biso   1.000  H
  C8       1.0000 0.95750  0.04970  0.35610  Biso   1.000  C
  H10      1.0000 0.90710  0.02200  0.31540  Biso   1.000  H
  C9       1.0000 0.13770  0.90400  0.33540  Biso   1.000  C
  H11      1.0000 0.19890  0.93670  0.35790  Biso   1.000  H
  H12      1.0000 0.10840  0.92210  0.27560  Biso   1.000  H
  C10      1.0000 0.11020  0.07190  0.18090  Biso   1.000  C
  H13      1.0000 0.04400  0.09100  0.18170  Biso   1.000  H
  C11      1.0000 0.42220  0.24000  0.53050  Biso   1.000  C
  H14      1.0000 0.37830  0.21340  0.56100  Biso   1.000  H
  C12      1.0000 0.21650  0.79740  0.18400  Biso   1.000  C
  H15      1.0000 0.14650  0.79100  0.15840  Biso   1.000  H
  C13      1.0000 0.54600  0.32340  0.44290  Biso   1.000  C
  H16      1.0000 0.58800  0.35160  0.41190  Biso   1.000  H
  C14      1.0000 0.41960  0.81820  0.24990  Biso   1.000  C
  H17      1.0000 0.48990  0.82640  0.27350  Biso   1.000  H
  C15      1.0000 0.30140  0.01590  0.18090  Biso   1.000  C
  H18      1.0000 0.36650  0.99500  0.17900  Biso   1.000  H
  C16      1.0000 0.38290  0.09560  0.31500  Biso   1.000  C
  H19      1.0000 0.39150  0.15380  0.30940  Biso   1.000  H
  H20      1.0000 0.44450  0.06940  0.30330  Biso   1.000  H
  C17      1.0000 0.21660  0.99340  0.11780  Biso   1.000  C
  H21      1.0000 0.22610  0.95650  0.07460  Biso   1.000  H
  C18      1.0000 0.19050  0.09660  0.24700  Biso   1.000  C
  H22      1.0000 0.17880  0.13130  0.29130  Biso   1.000  H
  C19      1.0000 0.35240  0.81980  0.30600  Biso   1.000  C
  H23      1.0000 0.37760  0.82820  0.36620  Biso   1.000  H
  C20      1.0000 0.47320  0.10420  0.47870  Biso   1.000  C
  H24      1.0000 0.53470  0.08180  0.46280  Biso   1.000  H
  H25      1.0000 0.46940  0.08330  0.53650  Biso   1.000  H
  C21      1.0000 0.54580  0.23900  0.43980  Biso   1.000  C
  H26      1.0000 0.58870  0.21180  0.40890  Biso   1.000  H
  C22      1.0000 0.05900  0.91830  0.39260  Biso   1.000  C
  H27      1.0000 0.99370  0.89270  0.36520  Biso   1.000  H
  H28      1.0000 0.08360  0.89340  0.45010  Biso   1.000  H
  N1       1.0000 0.38940  0.80550  0.16280  Biso   1.000  N
  N2       1.0000 0.12110  0.02130  0.11470  Biso   1.000  N
  C23      1.0000 0.48160  0.19510  0.48290  Biso   1.000  C
  N3       1.0000 0.48830  0.36630  0.48890  Biso   1.000  N
  C24      1.0000 0.29100  0.06880  0.24670  Biso   1.000  C
  C25      1.0000 0.24740  0.80890  0.27380  Biso   1.000  C
  N4       1.0000 0.01600  0.17550  0.42560  Biso   1.000  N
  C26      1.0000 0.04150  0.00760  0.40430  Biso   1.000  C
  O1       1.0000 0.36610  0.80805  0.95800  Biso   1.000  O
  O2       1.0000 0.62320  0.81380  0.17060  Biso   1.000  O
  O3       1.0000 0.30370  0.74810  0.78160  Biso   1.000  O
  O4       1.0000 0.88700  0.00119  0.07950  Biso   1.000  O
  O5       1.0000 0.79870  0.91664  0.20280  Biso   1.000  O
  O6       1.0000 0.23710  0.90788  0.83010  Biso   1.000  O
  V4       1.0000 0.15963  0.33342  0.64810  Biso   1.000  V
  V5       1.0000 0.71802  0.49580  0.37745  Biso   1.000  V
  Zn2      1.0000 0.00973  0.30492  0.42795  Biso   1.000  Zn
  V6       1.0000 0.77440  0.33974  0.25315  Biso   1.000  V
  C27      1.0000 0.12510  0.57680  0.09060  Biso   1.000  C
  H29      1.0000 0.13470  0.51870  0.08480  Biso   1.000  H
  H30      1.0000 0.18560  0.60400  0.07810  Biso   1.000  H
  C28      1.0000 0.40210  0.63540  0.02710  Biso   1.000  C
  H31      1.0000 0.35320  0.66450  0.98660  Biso   1.000  H
  C29      1.0000 0.21190  0.29540  0.36760  Biso   1.000  C
  H32      1.0000 0.23540  0.28630  0.42790  Biso   1.000  H
  C30      1.0000 0.07150  0.82360  0.96760  Biso   1.000  C
  H33      1.0000 0.11080  0.85200  0.93430  Biso   1.000  H
  C31      1.0000 0.38700  0.55320  0.03580  Biso   1.000  C
  H34      1.0000 0.32890  0.52810  0.00150  Biso   1.000  H
  C32      1.0000 0.55230  0.63150  0.13220  Biso   1.000  C
  H35      1.0000 0.60940  0.65800  0.16620  Biso   1.000  H
  C33      1.0000 0.32970  0.31460  0.16730  Biso   1.000  C
  H36      1.0000 0.29850  0.29580  0.10820  Biso   1.000  H
  H37      1.0000 0.38980  0.28100  0.19050  Biso   1.000  H
  C34      1.0000 0.54250  0.54970  0.14390  Biso   1.000  C
  H38      1.0000 0.59290  0.52200  0.18460  Biso   1.000  H
  C35      1.0000 0.36230  0.40400  0.16460  Biso   1.000  C
  H39      1.0000 0.30110  0.43670  0.14210  Biso   1.000  H
  H40      1.0000 0.39160  0.42210  0.22440  Biso   1.000  H
  C36      1.0000 0.38980  0.57190  0.31910  Biso   1.000  C
  H41      1.0000 0.45600  0.59100  0.31830  Biso   1.000  H
  C37      1.0000 0.07780  0.74000  0.96950  Biso   1.000  C
  H42      1.0000 0.12170  0.71340  0.93900  Biso   1.000  H
  C38      1.0000 0.28350  0.29740  0.31600  Biso   1.000  C
  H43      1.0000 0.35350  0.29100  0.34160  Biso   1.000  H
  C39      1.0000 0.95400  0.82340  0.05710  Biso   1.000  C
  H44      1.0000 0.91200  0.85160  0.08810  Biso   1.000  H
  C40      1.0000 0.08040  0.31820  0.25010  Biso   1.000  C
  H45      1.0000 0.01010  0.32640  0.22650  Biso   1.000  H
  C41      1.0000 0.19860  0.51590  0.31910  Biso   1.000  C
  H46      1.0000 0.13350  0.49500  0.32100  Biso   1.000  H
  C42      1.0000 0.11710  0.59560  0.18500  Biso   1.000  C
  H47      1.0000 0.10850  0.65380  0.19060  Biso   1.000  H
  H48      1.0000 0.05550  0.56940  0.19670  Biso   1.000  H
  C43      1.0000 0.28340  0.49340  0.38220  Biso   1.000  C
  H49      1.0000 0.27390  0.45650  0.42540  Biso   1.000  H
  C44      1.0000 0.30950  0.59660  0.25300  Biso   1.000  C
  H50      1.0000 0.32120  0.63130  0.20870  Biso   1.000  H
  C45      1.0000 0.14760  0.31980  0.19400  Biso   1.000  C
  H51      1.0000 0.12240  0.32820  0.13380  Biso   1.000  H
  C46      1.0000 0.02680  0.60420  0.02130  Biso   1.000  C
  H52      1.0000 0.96530  0.58180  0.03720  Biso   1.000  H
  H53      1.0000 0.03060  0.58330  0.96350  Biso   1.000  H
  C47      1.0000 0.95420  0.73900  0.06020  Biso   1.000  C
  H54      1.0000 0.91130  0.71180  0.09110  Biso   1.000  H
  C48      1.0000 0.44100  0.41830  0.10740  Biso   1.000  C
  H55      1.0000 0.50630  0.39270  0.13480  Biso   1.000  H
  H56      1.0000 0.41640  0.39340  0.04990  Biso   1.000  H
  N5       1.0000 0.11060  0.30550  0.33720  Biso   1.000  N
  N6       1.0000 0.37890  0.52130  0.38530  Biso   1.000  N
  C49      1.0000 0.01840  0.69510  0.01710  Biso   1.000  C
  N7       1.0000 0.01170  0.86630  0.01110  Biso   1.000  N
  C50      1.0000 0.20900  0.56880  0.25330  Biso   1.000  C
  C51      1.0000 0.25260  0.30890  0.22620  Biso   1.000  C
  N8       1.0000 0.48400  0.67550  0.07440  Biso   1.000  N
  C52      1.0000 0.45850  0.50760  0.09570  Biso   1.000  C
  O7       1.0000 0.13390  0.30805  0.54200  Biso   1.000  O
  O8       1.0000 0.87680  0.31380  0.32940  Biso   1.000  O
  O9       1.0000 0.19630  0.24810  0.71840  Biso   1.000  O
  O10      1.0000 0.61300  0.50119  0.42050  Biso   1.000  O
  O11      1.0000 0.70130  0.41664  0.29720  Biso   1.000  O
  O12      1.0000 0.26290  0.40788  0.66990  Biso   1.000  O
  V7       1.0000 0.65963  0.16658  0.14810  Biso   1.000  V
  V8       1.0000 0.21802  0.00420  0.87745  Biso   1.000  V
  Zn3      1.0000 0.50973  0.19508  0.92795  Biso   1.000  Zn
  V9       1.0000 0.27440  0.16026  0.75315  Biso   1.000  V
  C53      1.0000 0.62510  0.92320  0.59060  Biso   1.000  C
  H57      1.0000 0.63470  0.98130  0.58480  Biso   1.000  H
  H58      1.0000 0.68560  0.89600  0.57810  Biso   1.000  H
  C54      1.0000 0.90210  0.86460  0.52710  Biso   1.000  C
  H59      1.0000 0.85320  0.83550  0.48660  Biso   1.000  H
  C55      1.0000 0.71190  0.20460  0.86760  Biso   1.000  C
  H60      1.0000 0.73540  0.21370  0.92790  Biso   1.000  H
  C56      1.0000 0.57150  0.67640  0.46760  Biso   1.000  C
  H61      1.0000 0.61080  0.64800  0.43430  Biso   1.000  H
  C57      1.0000 0.88700  0.94680  0.53580  Biso   1.000  C
  H62      1.0000 0.82890  0.97190  0.50150  Biso   1.000  H
  C58      1.0000 0.05230  0.86850  0.63220  Biso   1.000  C
  H63      1.0000 0.10940  0.84200  0.66620  Biso   1.000  H
  C59      1.0000 0.82970  0.18540  0.66730  Biso   1.000  C
  H64      1.0000 0.79850  0.20420  0.60820  Biso   1.000  H
  H65      1.0000 0.88980  0.21900  0.69050  Biso   1.000  H
  C60      1.0000 0.04250  0.95030  0.64390  Biso   1.000  C
  H66      1.0000 0.09290  0.97800  0.68460  Biso   1.000  H
  C61      1.0000 0.86230  0.09600  0.66460  Biso   1.000  C
  H67      1.0000 0.80110  0.06330  0.64210  Biso   1.000  H
  H68      1.0000 0.89160  0.07790  0.72440  Biso   1.000  H
  C62      1.0000 0.88980  0.92810  0.81910  Biso   1.000  C
  H69      1.0000 0.95600  0.90900  0.81830  Biso   1.000  H
  C63      1.0000 0.57780  0.76000  0.46950  Biso   1.000  C
  H70      1.0000 0.62170  0.78660  0.43900  Biso   1.000  H
  C64      1.0000 0.78350  0.20260  0.81600  Biso   1.000  C
  H71      1.0000 0.85350  0.20900  0.84160  Biso   1.000  H
  C65      1.0000 0.45400  0.67660  0.55710  Biso   1.000  C
  H72      1.0000 0.41200  0.64840  0.58810  Biso   1.000  H
  C66      1.0000 0.58040  0.18180  0.75010  Biso   1.000  C
  H73      1.0000 0.51010  0.17360  0.72650  Biso   1.000  H
  C67      1.0000 0.69860  0.98410  0.81910  Biso   1.000  C
  H74      1.0000 0.63350  0.00500  0.82100  Biso   1.000  H
  C68      1.0000 0.61710  0.90440  0.68500  Biso   1.000  C
  H75      1.0000 0.60850  0.84620  0.69060  Biso   1.000  H
  H76      1.0000 0.55550  0.93060  0.69670  Biso   1.000  H
  C69      1.0000 0.78340  0.00660  0.88220  Biso   1.000  C
  H77      1.0000 0.77390  0.04350  0.92540  Biso   1.000  H
  C70      1.0000 0.80950  0.90340  0.75300  Biso   1.000  C
  H78      1.0000 0.82120  0.86870  0.70870  Biso   1.000  H
  C71      1.0000 0.64760  0.18020  0.69400  Biso   1.000  C
  H79      1.0000 0.62240  0.17180  0.63380  Biso   1.000  H
  C72      1.0000 0.52680  0.89580  0.52130  Biso   1.000  C
  H80      1.0000 0.46530  0.91820  0.53720  Biso   1.000  H
  H81      1.0000 0.53060  0.91670  0.46350  Biso   1.000  H
  C73      1.0000 0.45420  0.76100  0.56020  Biso   1.000  C
  H82      1.0000 0.41130  0.78820  0.59110  Biso   1.000  H
  C74      1.0000 0.94100  0.08170  0.60740  Biso   1.000  C
  H83      1.0000 0.00630  0.10730  0.63480  Biso   1.000  H
  H84      1.0000 0.91640  0.10660  0.54990  Biso   1.000  H
  N9       1.0000 0.61060  0.19450  0.83720  Biso   1.000  N
  N10      1.0000 0.87890  0.97870  0.88530  Biso   1.000  N
  C75      1.0000 0.51840  0.80490  0.51710  Biso   1.000  C
  N11      1.0000 0.51170  0.63370  0.51110  Biso   1.000  N
  C76      1.0000 0.70900  0.93120  0.75330  Biso   1.000  C
  C77      1.0000 0.75260  0.19110  0.72620  Biso   1.000  C
  N12      1.0000 0.98400  0.82450  0.57440  Biso   1.000  N
  C78      1.0000 0.95850  0.99240  0.59570  Biso   1.000  C
  O13      1.0000 0.63390  0.19195  0.04200  Biso   1.000  O
  O14      1.0000 0.37680  0.18620  0.82940  Biso   1.000  O
  O15      1.0000 0.69630  0.25190  0.21840  Biso   1.000  O
  O16      1.0000 0.11300  0.99881  0.92050  Biso   1.000  O
  O17      1.0000 0.20130  0.08336  0.79720  Biso   1.000  O
  O18      1.0000 0.76290  0.09212  0.16990  Biso   1.000  O
  V10      1.0000 0.84037  0.66658  0.35190  Biso   1.000  V
  V11      1.0000 0.28198  0.50420  0.62255  Biso   1.000  V
  Zn4      1.0000 0.99027  0.69508  0.57205  Biso   1.000  Zn
  V12      1.0000 0.22560  0.66026  0.74685  Biso   1.000  V
  C79      1.0000 0.87490  0.42320  0.90940  Biso   1.000  C
  H85      1.0000 0.86530  0.48130  0.91520  Biso   1.000  H
  H86      1.0000 0.81440  0.39600  0.92190  Biso   1.000  H
  C80      1.0000 0.59790  0.36460  0.97290  Biso   1.000  C
  H87      1.0000 0.64680  0.33550  0.01340  Biso   1.000  H
  C81      1.0000 0.78810  0.70460  0.63240  Biso   1.000  C
  H88      1.0000 0.76460  0.71370  0.57210  Biso   1.000  H
  C82      1.0000 0.92850  0.17640  0.03240  Biso   1.000  C
  H89      1.0000 0.88920  0.14800  0.06570  Biso   1.000  H
  C83      1.0000 0.61300  0.44680  0.96420  Biso   1.000  C
  H90      1.0000 0.67110  0.47190  0.99850  Biso   1.000  H
  C84      1.0000 0.44770  0.36850  0.86780  Biso   1.000  C
  H91      1.0000 0.39060  0.34200  0.83380  Biso   1.000  H
  C85      1.0000 0.67030  0.68540  0.83270  Biso   1.000  C
  H92      1.0000 0.70150  0.70420  0.89180  Biso   1.000  H
  H93      1.0000 0.61020  0.71900  0.80950  Biso   1.000  H
  C86      1.0000 0.45750  0.45030  0.85610  Biso   1.000  C
  H94      1.0000 0.40710  0.47800  0.81540  Biso   1.000  H
  C87      1.0000 0.63770  0.59600  0.83540  Biso   1.000  C
  H95      1.0000 0.69890  0.56330  0.85790  Biso   1.000  H
  H96      1.0000 0.60840  0.57790  0.77560  Biso   1.000  H
  C88      1.0000 0.61020  0.42810  0.68090  Biso   1.000  C
  H97      1.0000 0.54400  0.40900  0.68170  Biso   1.000  H
  C89      1.0000 0.92220  0.26000  0.03050  Biso   1.000  C
  H98      1.0000 0.87830  0.28660  0.06100  Biso   1.000  H
  C90      1.0000 0.71650  0.70260  0.68400  Biso   1.000  C
  H99      1.0000 0.64650  0.70900  0.65840  Biso   1.000  H
  C91      1.0000 0.04600  0.17660  0.94290  Biso   1.000  C
  H100     1.0000 0.08800  0.14840  0.91190  Biso   1.000  H
  C92      1.0000 0.91960  0.68180  0.74990  Biso   1.000  C
  H101     1.0000 0.98990  0.67360  0.77350  Biso   1.000  H
  C93      1.0000 0.80140  0.48410  0.68090  Biso   1.000  C
  H102     1.0000 0.86650  0.50500  0.67900  Biso   1.000  H
  C94      1.0000 0.88290  0.40440  0.81500  Biso   1.000  C
  H103     1.0000 0.89150  0.34620  0.80940  Biso   1.000  H
  H104     1.0000 0.94450  0.43060  0.80330  Biso   1.000  H
  C95      1.0000 0.71660  0.50660  0.61780  Biso   1.000  C
  H105     1.0000 0.72610  0.54350  0.57460  Biso   1.000  H
  C96      1.0000 0.69050  0.40340  0.74700  Biso   1.000  C
  H106     1.0000 0.67880  0.36870  0.79130  Biso   1.000  H
  C97      1.0000 0.85240  0.68020  0.80600  Biso   1.000  C
  H107     1.0000 0.87760  0.67180  0.86620  Biso   1.000  H
  C98      1.0000 0.97320  0.39580  0.97870  Biso   1.000  C
  H108     1.0000 0.03470  0.41820  0.96280  Biso   1.000  H
  H109     1.0000 0.96940  0.41670  0.03650  Biso   1.000  H
  C99      1.0000 0.04580  0.26100  0.93980  Biso   1.000  C
  H110     1.0000 0.08870  0.28820  0.90890  Biso   1.000  H
  C100     1.0000 0.55900  0.58170  0.89260  Biso   1.000  C
  H111     1.0000 0.49370  0.60730  0.86520  Biso   1.000  H
  H112     1.0000 0.58360  0.60660  0.95010  Biso   1.000  H
  N13      1.0000 0.88940  0.69450  0.66280  Biso   1.000  N
  N14      1.0000 0.62110  0.47870  0.61470  Biso   1.000  N
  C101     1.0000 0.98160  0.30490  0.98290  Biso   1.000  C
  N15      1.0000 0.98830  0.13370  0.98890  Biso   1.000  N
  C102     1.0000 0.79100  0.43120  0.74670  Biso   1.000  C
  C103     1.0000 0.74740  0.69110  0.77380  Biso   1.000  C
  N16      1.0000 0.51600  0.32450  0.92560  Biso   1.000  N
  C104     1.0000 0.54150  0.49240  0.90430  Biso   1.000  C
  O19      1.0000 0.86610  0.69195  0.45800  Biso   1.000  O
  O20      1.0000 0.12320  0.68620  0.67060  Biso   1.000  O
  O21      1.0000 0.80370  0.75190  0.28160  Biso   1.000  O
  O22      1.0000 0.38700  0.49881  0.57950  Biso   1.000  O
  O23      1.0000 0.29870  0.58336  0.70280  Biso   1.000  O
  O24      1.0000 0.73710  0.59212  0.33010  Biso   1.000  O
  Zn5      1.0000 0.00000  0.00000  0.00000  Biso   1.000  Zn
  Zn6      1.0000 0.50000  0.50000  0.50000  Biso   1.000  Zn
