data_image0
_cell_length_a       19.913
_cell_length_b       20.884
_cell_length_c       21.486
_cell_angle_alpha    116.076
_cell_angle_beta     98.55
_cell_angle_gamma    101.661

_symmetry_space_group_name_H-M    "P 1"
_symmetry_int_tables_number       1

loop_
  _symmetry_equiv_pos_as_xyz
  'x, y, z'

loop_
  _atom_site_label
  _atom_site_occupancy
  _atom_site_fract_x
  _atom_site_fract_y
  _atom_site_fract_z
  _atom_site_thermal_displace_type
  _atom_site_B_iso_or_equiv
  _atom_site_type_symbol
  C1       1.0000 0.34150  0.61110  0.06700  Biso   1.000  C
  C2       1.0000 0.38590  0.65770  0.12830  Biso   1.000  C
  H1       1.0000 0.37080  0.69010  0.16550  Biso   1.000  H
  C3       1.0000 0.36670  0.57030  0.00760  Biso   1.000  C
  H2       1.0000 0.33500  0.54010  0.96210  Biso   1.000  H
  C4       1.0000 0.64750  0.57580  0.97440  Biso   1.000  C
  C5       1.0000 0.60740  0.47460  0.19710  Biso   1.000  C
  H3       1.0000 0.59860  0.45080  0.14730  Biso   1.000  H
  C6       1.0000 0.46440  0.65960  0.13980  Biso   1.000  C
  H4       1.0000 0.49610  0.68760  0.18540  Biso   1.000  H
  C7       1.0000 0.62970  0.44170  0.74870  Biso   1.000  C
  C8       1.0000 0.64070  0.53060  0.89640  Biso   1.000  C
  C9       1.0000 0.62020  0.55560  0.23840  Biso   1.000  C
  C10      1.0000 0.67120  0.86080  0.22250  Biso   1.000  C
  C11      1.0000 0.62390  0.40030  0.66990  Biso   1.000  C
  C12      1.0000 0.56870  0.45790  0.77230  Biso   1.000  C
  H5       1.0000 0.52460  0.44040  0.73940  Biso   1.000  H
  C13      1.0000 0.57670  0.49950  0.84420  Biso   1.000  C
  H6       1.0000 0.53620  0.50760  0.85910  Biso   1.000  H
  C14      1.0000 0.67910  0.78710  0.17370  Biso   1.000  C
  C15      1.0000 0.65780  0.00200  0.30610  Biso   1.000  C
  C16      1.0000 0.26690  0.60670  0.05640  Biso   1.000  C
  H7       1.0000 0.23750  0.57060  0.01110  Biso   1.000  H
  C17      1.0000 0.23630  0.64420  0.09920  Biso   1.000  C
  H8       1.0000 0.26250  0.67510  0.14700  Biso   1.000  H
  C18      1.0000 0.04260  0.59640  0.01830  Biso   1.000  C
  H9       1.0000 0.00770  0.56080  0.97630  Biso   1.000  H
  C19      1.0000 0.61610  0.59960  0.19940  Biso   1.000  C
  C20      1.0000 0.69500  0.47290  0.80260  Biso   1.000  C
  H10      1.0000 0.73580  0.46440  0.78860  Biso   1.000  H
  C21      1.0000 0.16080  0.64310  0.07930  Biso   1.000  C
  C22      1.0000 0.43590  0.57510  0.01660  Biso   1.000  C
  H11      1.0000 0.45030  0.54690  0.97660  Biso   1.000  H
  C23      1.0000 0.60860  0.43530  0.23250  Biso   1.000  C
  H12      1.0000 0.59910  0.38390  0.20500  Biso   1.000  H
  C24      1.0000 0.10770  0.58720  0.03250  Biso   1.000  C
  H13      1.0000 0.11370  0.54030  0.00820  Biso   1.000  H
  C25      1.0000 0.62290  0.46500  0.30720  Biso   1.000  C
  C26      1.0000 0.15700  0.70160  0.13760  Biso   1.000  C
  H14      1.0000 0.19510  0.73370  0.17800  Biso   1.000  H
  C27      1.0000 0.70100  0.51440  0.87300  Biso   1.000  C
  H15      1.0000 0.74490  0.53250  0.90650  Biso   1.000  H
  C28      1.0000 0.07650  0.70920  0.12850  Biso   1.000  C
  H16      1.0000 0.06470  0.74670  0.16460  Biso   1.000  H
  C29      1.0000 0.62300  0.33450  0.41450  Biso   1.000  C
  C30      1.0000 0.63600  0.22310  0.41790  Biso   1.000  C
  C31      1.0000 0.66850  0.35460  0.64690  Biso   1.000  C
  H17      1.0000 0.69920  0.34940  0.68030  Biso   1.000  H
  C32      1.0000 0.63000  0.54350  0.34740  Biso   1.000  C
  H18      1.0000 0.63410  0.56480  0.39650  Biso   1.000  H
  C33      1.0000 0.57860  0.40810  0.61920  Biso   1.000  C
  H19      1.0000 0.55110  0.44010  0.63420  Biso   1.000  H
  C34      1.0000 0.73070  0.99580  0.30630  Biso   1.000  C
  H20      1.0000 0.77140  0.03670  0.33200  Biso   1.000  H
  C35      1.0000 0.63110  0.58750  0.31500  Biso   1.000  C
  H21      1.0000 0.63890  0.63860  0.34300  Biso   1.000  H
  C36      1.0000 0.65010  0.07910  0.34590  Biso   1.000  C
  C37      1.0000 0.60860  0.86970  0.22870  Biso   1.000  C
  H22      1.0000 0.56860  0.82780  0.20530  Biso   1.000  H
  C38      1.0000 0.73290  0.92220  0.26400  Biso   1.000  C
  H23      1.0000 0.77700  0.91400  0.26360  Biso   1.000  H
  C39      1.0000 0.59960  0.94100  0.26970  Biso   1.000  C
  H24      1.0000 0.55440  0.94560  0.27160  Biso   1.000  H
  C40      1.0000 0.62410  0.42080  0.34280  Biso   1.000  C
  C41      1.0000 0.66020  0.45340  0.41550  Biso   1.000  C
  H25      1.0000 0.68370  0.50450  0.44050  Biso   1.000  H
  C42      1.0000 0.66630  0.31820  0.57590  Biso   1.000  C
  H26      1.0000 0.69560  0.28800  0.56080  Biso   1.000  H
  C43      1.0000 0.66250  0.41430  0.45020  Biso   1.000  C
  H27      1.0000 0.68960  0.43790  0.49780  Biso   1.000  H
  C44      1.0000 0.57450  0.36860  0.54680  Biso   1.000  C
  H28      1.0000 0.54130  0.37090  0.51310  Biso   1.000  H
  C45      1.0000 0.61900  0.32620  0.52460  Biso   1.000  C
  C46      1.0000 0.60400  0.09500  0.38850  Biso   1.000  C
  H29      1.0000 0.57920  0.05640  0.39470  Biso   1.000  H
  C47      1.0000 0.58640  0.30200  0.34040  Biso   1.000  C
  H30      1.0000 0.56200  0.25110  0.31360  Biso   1.000  H
  C48      1.0000 0.58780  0.34480  0.31120  Biso   1.000  C
  H31      1.0000 0.56150  0.32210  0.26340  Biso   1.000  H
  C49      1.0000 0.69030  0.13740  0.34230  Biso   1.000  C
  H32      1.0000 0.72260  0.12920  0.31470  Biso   1.000  H
  C50      1.0000 0.68460  0.21120  0.37960  Biso   1.000  C
  H33      1.0000 0.71400  0.25050  0.37760  Biso   1.000  H
  C51      1.0000 0.59100  0.16320  0.42310  Biso   1.000  C
  H34      1.0000 0.55610  0.16980  0.44760  Biso   1.000  H
  N1       1.0000 0.02860  0.65870  0.06640  Biso   1.000  N
  N2       1.0000 0.48660  0.61870  0.08090  Biso   1.000  N
  N3       1.0000 0.62040  0.29350  0.45060  Biso   1.000  N
  O1       1.0000 0.73940  0.78080  0.17160  Biso   1.000  O
  O2       1.0000 0.61620  0.57000  0.13650  Biso   1.000  O
  O3       1.0000 0.59020  0.58350  0.99070  Biso   1.000  O
  O4       1.0000 0.60750  0.66410  0.23400  Biso   1.000  O
  O5       1.0000 0.62030  0.73490  0.13580  Biso   1.000  O
  O6       1.0000 0.70750  0.60210  0.01850  Biso   1.000  O
  Cu1      1.0000 0.58952  0.62921  0.09287  Biso   1.000  Cu
  Cu2      1.0000 0.76347  0.70376  0.09075  Biso   1.000  Cu
  C52      1.0000 0.90350  0.87660  0.16500  Biso   1.000  C
  C53      1.0000 0.88970  0.01670  0.23600  Biso   1.000  C
  C54      1.0000 0.88320  0.09720  0.27830  Biso   1.000  C
  C55      1.0000 0.85260  0.12650  0.24390  Biso   1.000  C
  H35      1.0000 0.83750  0.10010  0.19390  Biso   1.000  H
  C56      1.0000 0.90910  0.13560  0.34990  Biso   1.000  C
  H36      1.0000 0.92970  0.11360  0.37390  Biso   1.000  H
  C57      1.0000 0.95150  0.92440  0.22480  Biso   1.000  C
  H37      1.0000 0.98740  0.91080  0.24420  Biso   1.000  H
  C58      1.0000 0.84370  0.96440  0.17350  Biso   1.000  C
  H38      1.0000 0.80630  0.97620  0.15390  Biso   1.000  H
  C59      1.0000 0.84420  0.61860  0.13570  Biso   1.000  C
  C60      1.0000 0.84960  0.89470  0.13740  Biso   1.000  C
  H39      1.0000 0.81660  0.85950  0.09390  Biso   1.000  H
  C61      1.0000 0.94690  0.99850  0.25930  Biso   1.000  C
  H40      1.0000 0.98370  0.03550  0.29880  Biso   1.000  H
  C62      1.0000 0.87000  0.24060  0.35390  Biso   1.000  C
  C63      1.0000 0.85140  0.48590  0.24260  Biso   1.000  C
  C64      1.0000 0.84850  0.57650  0.17510  Biso   1.000  C
  C65      1.0000 0.88430  0.49140  0.80420  Biso   1.000  C
  H41      1.0000 0.87870  0.46660  0.83090  Biso   1.000  H
  C66      1.0000 0.90950  0.43060  0.50470  Biso   1.000  C
  H42      1.0000 0.92890  0.45470  0.48100  Biso   1.000  H
  C67      1.0000 0.84470  0.32020  0.50410  Biso   1.000  C
  H43      1.0000 0.82260  0.26890  0.48020  Biso   1.000  H
  C68      1.0000 0.79770  0.56540  0.20930  Biso   1.000  C
  H44      1.0000 0.76100  0.58670  0.20870  Biso   1.000  H
  C69      1.0000 0.88020  0.45090  0.73470  Biso   1.000  C
  H45      1.0000 0.87190  0.39960  0.71540  Biso   1.000  H
  C70      1.0000 0.88610  0.43590  0.61260  Biso   1.000  C
  C71      1.0000 0.89680  0.57000  0.84000  Biso   1.000  C
  C72      1.0000 0.85330  0.44040  0.28160  Biso   1.000  C
  C73      1.0000 0.90100  0.61730  0.91300  Biso   1.000  C
  C74      1.0000 0.87450  0.35390  0.46780  Biso   1.000  C
  C75      1.0000 0.84170  0.19770  0.28060  Biso   1.000  C
  H46      1.0000 0.81560  0.21500  0.25520  Biso   1.000  H
  C76      1.0000 0.90400  0.60270  0.79480  Biso   1.000  C
  H47      1.0000 0.91240  0.65390  0.81360  Biso   1.000  H
  C77      1.0000 0.85870  0.35560  0.35080  Biso   1.000  C
  C78      1.0000 0.84750  0.36160  0.57400  Biso   1.000  C
  H48      1.0000 0.82280  0.33940  0.59640  Biso   1.000  H
  C79      1.0000 0.90570  0.40710  0.28110  Biso   1.000  C
  H49      1.0000 0.93820  0.41130  0.25510  Biso   1.000  H
  C80      1.0000 0.79920  0.52210  0.24580  Biso   1.000  C
  H50      1.0000 0.76590  0.51830  0.27110  Biso   1.000  H
  C81      1.0000 0.80350  0.38550  0.34860  Biso   1.000  C
  H51      1.0000 0.76580  0.37600  0.36730  Biso   1.000  H
  C82      1.0000 0.91460  0.46990  0.57710  Biso   1.000  C
  H52      1.0000 0.93820  0.52090  0.60230  Biso   1.000  H
  C83      1.0000 0.90560  0.21010  0.39010  Biso   1.000  C
  H53      1.0000 0.92670  0.23780  0.43950  Biso   1.000  H
  C84      1.0000 0.88780  0.48170  0.69110  Biso   1.000  C
  C85      1.0000 0.89800  0.53790  0.17390  Biso   1.000  C
  H54      1.0000 0.92730  0.53660  0.14380  Biso   1.000  H
  C86      1.0000 0.90790  0.50130  0.21320  Biso   1.000  C
  H55      1.0000 0.94900  0.48770  0.21990  Biso   1.000  H
  C87      1.0000 0.91250  0.36510  0.31990  Biso   1.000  C
  H56      1.0000 0.95060  0.34620  0.32320  Biso   1.000  H
  C88      1.0000 0.91190  0.79860  0.12380  Biso   1.000  C
  C89      1.0000 0.80740  0.42980  0.31730  Biso   1.000  C
  H57      1.0000 0.77400  0.45570  0.32150  Biso   1.000  H
  C90      1.0000 0.89890  0.55950  0.72480  Biso   1.000  C
  H58      1.0000 0.90290  0.58270  0.69660  Biso   1.000  H
  N4       1.0000 0.86740  0.31360  0.38850  Biso   1.000  N
  O7       1.0000 0.80500  0.66300  0.15270  Biso   1.000  O
  O8       1.0000 0.85300  0.74250  0.07480  Biso   1.000  O
  O9       1.0000 0.96580  0.78340  0.12930  Biso   1.000  O
  O10      1.0000 0.93050  0.68350  0.94870  Biso   1.000  O
  O11      1.0000 0.88320  0.58250  0.94690  Biso   1.000  O
  O12      1.0000 0.89040  0.61590  0.10270  Biso   1.000  O
  Cu3      1.0000 0.92389  0.66733  0.04995  Biso   1.000  Cu
  C91      1.0000 0.65850  0.38890  0.93300  Biso   1.000  C
  C92      1.0000 0.61410  0.34230  0.87170  Biso   1.000  C
  H59      1.0000 0.62920  0.30990  0.83450  Biso   1.000  H
  C93      1.0000 0.63330  0.42970  0.99240  Biso   1.000  C
  H60      1.0000 0.66500  0.45990  0.03790  Biso   1.000  H
  C94      1.0000 0.35250  0.42420  0.02560  Biso   1.000  C
  C95      1.0000 0.39260  0.52540  0.80290  Biso   1.000  C
  H61      1.0000 0.40140  0.54920  0.85270  Biso   1.000  H
  C96      1.0000 0.53560  0.34040  0.86020  Biso   1.000  C
  H62      1.0000 0.50390  0.31240  0.81460  Biso   1.000  H
  C97      1.0000 0.37030  0.55830  0.25130  Biso   1.000  C
  C98      1.0000 0.35930  0.46940  0.10360  Biso   1.000  C
  C99      1.0000 0.37980  0.44440  0.76160  Biso   1.000  C
  C100     1.0000 0.32880  0.13920  0.77750  Biso   1.000  C
  C101     1.0000 0.37610  0.59970  0.33010  Biso   1.000  C
  C102     1.0000 0.43130  0.54210  0.22770  Biso   1.000  C
  H63      1.0000 0.47540  0.55960  0.26060  Biso   1.000  H
  C103     1.0000 0.42330  0.50050  0.15580  Biso   1.000  C
  H64      1.0000 0.46380  0.49240  0.14090  Biso   1.000  H
  C104     1.0000 0.32090  0.21290  0.82630  Biso   1.000  C
  C105     1.0000 0.34220  0.99800  0.69390  Biso   1.000  C
  C106     1.0000 0.73310  0.39330  0.94360  Biso   1.000  C
  H65      1.0000 0.76250  0.42940  0.98890  Biso   1.000  H
  C107     1.0000 0.76370  0.35580  0.90080  Biso   1.000  C
  H66      1.0000 0.73750  0.32490  0.85300  Biso   1.000  H
  C108     1.0000 0.95740  0.40360  0.98170  Biso   1.000  C
  H67      1.0000 0.99230  0.43920  0.02370  Biso   1.000  H
  C109     1.0000 0.38390  0.40040  0.80060  Biso   1.000  C
  C110     1.0000 0.30500  0.52710  0.19740  Biso   1.000  C
  H68      1.0000 0.26420  0.53560  0.21140  Biso   1.000  H
  C111     1.0000 0.83920  0.35690  0.92070  Biso   1.000  C
  C112     1.0000 0.56410  0.42490  0.98340  Biso   1.000  C
  H69      1.0000 0.54970  0.45310  0.02340  Biso   1.000  H
  C113     1.0000 0.39140  0.56470  0.76750  Biso   1.000  C
  H70      1.0000 0.40090  0.61610  0.79500  Biso   1.000  H
  C114     1.0000 0.89230  0.41280  0.96750  Biso   1.000  C
  H71      1.0000 0.88630  0.45970  0.99180  Biso   1.000  H
  C115     1.0000 0.37710  0.53500  0.69280  Biso   1.000  C
  C116     1.0000 0.84300  0.29840  0.86240  Biso   1.000  C
  H72      1.0000 0.80490  0.26630  0.82200  Biso   1.000  H
  C117     1.0000 0.29900  0.48560  0.12700  Biso   1.000  C
  H73      1.0000 0.25510  0.46750  0.09350  Biso   1.000  H
  C118     1.0000 0.92350  0.29080  0.87150  Biso   1.000  C
  H74      1.0000 0.93530  0.25330  0.83540  Biso   1.000  H
  C119     1.0000 0.37700  0.66550  0.58550  Biso   1.000  C
  C120     1.0000 0.36400  0.77690  0.58210  Biso   1.000  C
  C121     1.0000 0.33150  0.64540  0.35310  Biso   1.000  C
  H75      1.0000 0.30080  0.65060  0.31970  Biso   1.000  H
  C122     1.0000 0.37000  0.45650  0.65260  Biso   1.000  C
  H76      1.0000 0.36590  0.43520  0.60350  Biso   1.000  H
  C123     1.0000 0.42140  0.59190  0.38080  Biso   1.000  C
  H77      1.0000 0.44890  0.55990  0.36580  Biso   1.000  H
  C124     1.0000 0.26930  0.00420  0.69370  Biso   1.000  C
  H78      1.0000 0.22860  0.96330  0.66800  Biso   1.000  H
  C125     1.0000 0.36890  0.41250  0.68500  Biso   1.000  C
  H79      1.0000 0.36110  0.36140  0.65700  Biso   1.000  H
  C126     1.0000 0.34990  0.92090  0.65410  Biso   1.000  C
  C127     1.0000 0.39140  0.13030  0.77130  Biso   1.000  C
  H80      1.0000 0.43140  0.17220  0.79470  Biso   1.000  H
  C128     1.0000 0.26710  0.07780  0.73600  Biso   1.000  C
  H81      1.0000 0.22300  0.08600  0.73640  Biso   1.000  H
  C129     1.0000 0.40040  0.05900  0.73030  Biso   1.000  C
  H82      1.0000 0.44560  0.05440  0.72840  Biso   1.000  H
  C130     1.0000 0.37590  0.57920  0.65720  Biso   1.000  C
  C131     1.0000 0.33980  0.54660  0.58450  Biso   1.000  C
  H83      1.0000 0.31630  0.49550  0.55950  Biso   1.000  H
  C132     1.0000 0.33370  0.68180  0.42410  Biso   1.000  C
  H84      1.0000 0.30440  0.71200  0.43920  Biso   1.000  H
  C133     1.0000 0.33750  0.58570  0.54980  Biso   1.000  C
  H85      1.0000 0.31040  0.56210  0.50220  Biso   1.000  H
  C134     1.0000 0.42550  0.63140  0.45320  Biso   1.000  C
  H86      1.0000 0.45870  0.62910  0.48690  Biso   1.000  H
  C135     1.0000 0.38100  0.67380  0.47540  Biso   1.000  C
  C136     1.0000 0.39600  0.90500  0.61150  Biso   1.000  C
  H87      1.0000 0.42080  0.94360  0.60530  Biso   1.000  H
  C137     1.0000 0.41360  0.69800  0.65960  Biso   1.000  C
  H88      1.0000 0.43800  0.74890  0.68640  Biso   1.000  H
  C138     1.0000 0.41220  0.65520  0.68880  Biso   1.000  C
  H89      1.0000 0.43850  0.67790  0.73660  Biso   1.000  H
  C139     1.0000 0.30970  0.86260  0.65770  Biso   1.000  C
  H90      1.0000 0.27740  0.87080  0.68530  Biso   1.000  H
  C140     1.0000 0.31540  0.78880  0.62040  Biso   1.000  C
  H91      1.0000 0.28600  0.74950  0.62240  Biso   1.000  H
  C141     1.0000 0.40900  0.83680  0.57690  Biso   1.000  C
  H92      1.0000 0.44390  0.83020  0.55240  Biso   1.000  H
  N5       1.0000 0.97140  0.34130  0.93360  Biso   1.000  N
  N6       1.0000 0.51340  0.38130  0.91910  Biso   1.000  N
  N7       1.0000 0.37960  0.70650  0.54940  Biso   1.000  N
  O13      1.0000 0.26060  0.21920  0.82840  Biso   1.000  O
  O14      1.0000 0.38380  0.43000  0.86350  Biso   1.000  O
  O15      1.0000 0.40980  0.41650  0.00930  Biso   1.000  O
  O16      1.0000 0.39250  0.33590  0.76600  Biso   1.000  O
  O17      1.0000 0.37970  0.26510  0.86420  Biso   1.000  O
  O18      1.0000 0.29250  0.39790  0.98150  Biso   1.000  O
  Cu4      1.0000 0.41048  0.37079  0.90713  Biso   1.000  Cu
  Cu5      1.0000 0.23653  0.29624  0.90925  Biso   1.000  Cu
  C142     1.0000 0.09650  0.12340  0.83500  Biso   1.000  C
  C143     1.0000 0.11030  0.98330  0.76400  Biso   1.000  C
  C144     1.0000 0.11680  0.90280  0.72170  Biso   1.000  C
  C145     1.0000 0.14740  0.87350  0.75610  Biso   1.000  C
  H93      1.0000 0.16250  0.89990  0.80610  Biso   1.000  H
  C146     1.0000 0.09090  0.86440  0.65010  Biso   1.000  C
  H94      1.0000 0.07030  0.88640  0.62610  Biso   1.000  H
  C147     1.0000 0.04850  0.07560  0.77520  Biso   1.000  C
  H95      1.0000 0.01260  0.08920  0.75580  Biso   1.000  H
  C148     1.0000 0.15630  0.03560  0.82650  Biso   1.000  C
  H96      1.0000 0.19370  0.02380  0.84610  Biso   1.000  H
  C149     1.0000 0.15580  0.38140  0.86430  Biso   1.000  C
  C150     1.0000 0.15040  0.10530  0.86260  Biso   1.000  C
  H97      1.0000 0.18340  0.14050  0.90610  Biso   1.000  H
  C151     1.0000 0.05310  0.00150  0.74070  Biso   1.000  C
  H98      1.0000 0.01630  0.96450  0.70120  Biso   1.000  H
  C152     1.0000 0.13000  0.75940  0.64610  Biso   1.000  C
  C153     1.0000 0.14860  0.51410  0.75740  Biso   1.000  C
  C154     1.0000 0.15150  0.42350  0.82490  Biso   1.000  C
  C155     1.0000 0.11570  0.50860  0.19580  Biso   1.000  C
  H99      1.0000 0.12130  0.53340  0.16910  Biso   1.000  H
  C156     1.0000 0.09050  0.56940  0.49530  Biso   1.000  C
  H100     1.0000 0.07110  0.54530  0.51900  Biso   1.000  H
  C157     1.0000 0.15530  0.67980  0.49590  Biso   1.000  C
  H101     1.0000 0.17740  0.73110  0.51980  Biso   1.000  H
  C158     1.0000 0.20230  0.43460  0.79070  Biso   1.000  C
  H102     1.0000 0.23900  0.41330  0.79130  Biso   1.000  H
  C159     1.0000 0.11980  0.54910  0.26530  Biso   1.000  C
  H103     1.0000 0.12810  0.60040  0.28460  Biso   1.000  H
  C160     1.0000 0.11390  0.56410  0.38740  Biso   1.000  C
  C161     1.0000 0.10320  0.43000  0.16000  Biso   1.000  C
  C162     1.0000 0.14670  0.55960  0.71840  Biso   1.000  C
  C163     1.0000 0.09900  0.38270  0.08700  Biso   1.000  C
  C164     1.0000 0.12550  0.64610  0.53220  Biso   1.000  C
  C165     1.0000 0.15830  0.80230  0.71940  Biso   1.000  C
  H104     1.0000 0.18440  0.78500  0.74480  Biso   1.000  H
  C166     1.0000 0.09600  0.39730  0.20520  Biso   1.000  C
  H105     1.0000 0.08760  0.34610  0.18640  Biso   1.000  H
  C167     1.0000 0.14130  0.64440  0.64920  Biso   1.000  C
  C168     1.0000 0.15250  0.63840  0.42600  Biso   1.000  C
  H106     1.0000 0.17720  0.66060  0.40360  Biso   1.000  H
  C169     1.0000 0.09430  0.59290  0.71890  Biso   1.000  C
  H107     1.0000 0.06180  0.58870  0.74490  Biso   1.000  H
  C170     1.0000 0.20080  0.47790  0.75420  Biso   1.000  C
  H108     1.0000 0.23410  0.48170  0.72890  Biso   1.000  H
  C171     1.0000 0.19650  0.61450  0.65140  Biso   1.000  C
  H109     1.0000 0.23420  0.62400  0.63270  Biso   1.000  H
  C172     1.0000 0.08540  0.53010  0.42290  Biso   1.000  C
  H110     1.0000 0.06180  0.47910  0.39770  Biso   1.000  H
  C173     1.0000 0.09440  0.78990  0.60990  Biso   1.000  C
  H111     1.0000 0.07330  0.76220  0.56050  Biso   1.000  H
  C174     1.0000 0.11220  0.51830  0.30890  Biso   1.000  C
  C175     1.0000 0.10200  0.46210  0.82610  Biso   1.000  C
  H112     1.0000 0.07270  0.46340  0.85620  Biso   1.000  H
  C176     1.0000 0.09210  0.49870  0.78680  Biso   1.000  C
  H113     1.0000 0.05100  0.51230  0.78010  Biso   1.000  H
  C177     1.0000 0.08750  0.63490  0.68010  Biso   1.000  C
  H114     1.0000 0.04940  0.65380  0.67680  Biso   1.000  H
  C178     1.0000 0.08810  0.20140  0.87620  Biso   1.000  C
  C179     1.0000 0.19260  0.57020  0.68270  Biso   1.000  C
  H115     1.0000 0.22600  0.54430  0.67850  Biso   1.000  H
  C180     1.0000 0.10110  0.44050  0.27520  Biso   1.000  C
  H116     1.0000 0.09710  0.41730  0.30340  Biso   1.000  H
  N8       1.0000 0.13260  0.68640  0.61150  Biso   1.000  N
  O19      1.0000 0.19500  0.33700  0.84730  Biso   1.000  O
  O20      1.0000 0.14700  0.25750  0.92520  Biso   1.000  O
  O21      1.0000 0.03420  0.21660  0.87070  Biso   1.000  O
  O22      1.0000 0.06950  0.31650  0.05130  Biso   1.000  O
  O23      1.0000 0.11680  0.41750  0.05310  Biso   1.000  O
  O24      1.0000 0.10960  0.38410  0.89730  Biso   1.000  O
  Cu6      1.0000 0.07611  0.33267  0.95005  Biso   1.000  Cu
