data_image0
_cell_length_a       19.792
_cell_length_b       20.604
_cell_length_c       21.471
_cell_angle_alpha    115.799
_cell_angle_beta     98.322
_cell_angle_gamma    100.882

_symmetry_space_group_name_H-M    "P 1"
_symmetry_int_tables_number       1

loop_
  _symmetry_equiv_pos_as_xyz
  'x, y, z'

loop_
  _atom_site_label
  _atom_site_occupancy
  _atom_site_fract_x
  _atom_site_fract_y
  _atom_site_fract_z
  _atom_site_thermal_displace_type
  _atom_site_B_iso_or_equiv
  _atom_site_type_symbol
  C1       1.0000 0.11060  0.33990  0.36510  Biso   1.000  C
  H1       1.0000 0.12590  0.31130  0.32560  Biso   1.000  H
  C2       1.0000 0.13270  0.43000  0.49320  Biso   1.000  C
  H2       1.0000 0.16500  0.46050  0.53770  Biso   1.000  H
  C3       1.0000 0.23100  0.39450  0.44550  Biso   1.000  C
  H3       1.0000 0.25950  0.43150  0.49020  Biso   1.000  H
  C4       1.0000 0.15660  0.38920  0.43500  Biso   1.000  C
  C5       1.0000 0.26300  0.35770  0.40460  Biso   1.000  C
  H4       1.0000 0.23470  0.32430  0.35860  Biso   1.000  H
  C6       1.0000 0.85300  0.42620  0.52910  Biso   1.000  C
  C7       1.0000 0.38710  0.40990  0.47000  Biso   1.000  C
  H5       1.0000 0.37500  0.45170  0.50080  Biso   1.000  H
  C8       1.0000 0.34060  0.35680  0.41550  Biso   1.000  C
  C9       1.0000 0.46060  0.40460  0.48420  Biso   1.000  C
  H6       1.0000 0.49480  0.44270  0.52460  Biso   1.000  H
  C10      1.0000 0.35490  0.30380  0.36640  Biso   1.000  C
  H7       1.0000 0.32020  0.26930  0.32460  Biso   1.000  H
  C11      1.0000 0.03530  0.34000  0.36330  Biso   1.000  C
  H8       1.0000 0.00090  0.30980  0.32010  Biso   1.000  H
  C12      1.0000 0.82360  0.21370  0.32970  Biso   1.000  C
  C13      1.0000 0.42600  0.29830  0.37680  Biso   1.000  C
  H9       1.0000 0.43820  0.26120  0.34000  Biso   1.000  H
  C14      1.0000 0.92600  0.50100  0.65660  Biso   1.000  C
  H10      1.0000 0.96620  0.49110  0.64120  Biso   1.000  H
  C15      1.0000 0.87260  0.56040  0.75390  Biso   1.000  C
  C16      1.0000 0.83060  0.14190  0.28110  Biso   1.000  C
  C17      1.0000 0.88180  0.44520  0.26430  Biso   1.000  C
  C18      1.0000 0.88640  0.40000  0.30120  Biso   1.000  C
  C19      1.0000 0.87740  0.60180  0.82980  Biso   1.000  C
  C20      1.0000 0.87830  0.53250  0.19290  Biso   1.000  C
  C21      1.0000 0.87080  0.41100  0.18870  Biso   1.000  C
  H11      1.0000 0.86230  0.35930  0.16180  Biso   1.000  H
  C22      1.0000 0.89120  0.52370  0.30370  Biso   1.000  C
  H12      1.0000 0.89860  0.54720  0.35320  Biso   1.000  H
  C23      1.0000 0.87280  0.45760  0.15470  Biso   1.000  C
  H13      1.0000 0.87050  0.43660  0.10610  Biso   1.000  H
  C24      1.0000 0.76970  0.08040  0.23920  Biso   1.000  C
  H14      1.0000 0.72430  0.08670  0.23760  Biso   1.000  H
  C25      1.0000 0.85900  0.47290  0.60760  Biso   1.000  C
  C26      1.0000 0.93040  0.54380  0.72820  Biso   1.000  C
  H15      1.0000 0.97460  0.56240  0.76070  Biso   1.000  H
  C27      1.0000 0.91340  0.65310  0.19060  Biso   1.000  C
  H16      1.0000 0.93540  0.67600  0.23930  Biso   1.000  H
  C28      1.0000 0.92660  0.63000  0.95180  Biso   1.000  C
  H17      1.0000 0.95910  0.62630  0.98520  Biso   1.000  H
  C29      1.0000 0.88150  0.67410  0.97480  Biso   1.000  C
  C30      1.0000 0.79880  0.48700  0.63110  Biso   1.000  C
  H18      1.0000 0.75430  0.46690  0.59860  Biso   1.000  H
  C31      1.0000 0.77940  0.00940  0.20000  Biso   1.000  C
  H19      1.0000 0.73970  0.96770  0.17650  Biso   1.000  H
  C32      1.0000 0.06260  0.42630  0.48640  Biso   1.000  C
  H20      1.0000 0.04740  0.45410  0.52630  Biso   1.000  H
  C33      1.0000 0.84470  0.99930  0.19500  Biso   1.000  C
  C34      1.0000 0.85120  0.92110  0.15120  Biso   1.000  C
  C35      1.0000 0.87740  0.66440  0.08390  Biso   1.000  C
  C36      1.0000 0.82120  0.79060  0.12090  Biso   1.000  C
  H21      1.0000 0.79400  0.75100  0.12450  Biso   1.000  H
  C37      1.0000 0.92390  0.59220  0.88190  Biso   1.000  C
  H22      1.0000 0.95200  0.55980  0.86690  Biso   1.000  H
  C38      1.0000 0.80540  0.53090  0.70270  Biso   1.000  C
  H23      1.0000 0.76540  0.54170  0.71810  Biso   1.000  H
  C39      1.0000 0.91110  0.83990  0.07710  Biso   1.000  C
  H24      1.0000 0.94550  0.83440  0.05140  Biso   1.000  H
  C40      1.0000 0.84640  0.54770  0.08680  Biso   1.000  C
  H25      1.0000 0.82610  0.49590  0.06140  Biso   1.000  H
  C41      1.0000 0.83690  0.68520  0.92540  Biso   1.000  C
  H26      1.0000 0.81010  0.71890  0.94120  Biso   1.000  H
  C42      1.0000 0.86820  0.77750  0.08170  Biso   1.000  C
  C43      1.0000 0.90090  0.05900  0.23160  Biso   1.000  C
  H27      1.0000 0.94630  0.05370  0.22960  Biso   1.000  H
  C44      1.0000 0.91650  0.69540  0.15430  Biso   1.000  C
  H28      1.0000 0.94500  0.74490  0.17760  Biso   1.000  H
  C45      1.0000 0.83310  0.64730  0.85570  Biso   1.000  C
  H29      1.0000 0.79980  0.65130  0.82320  Biso   1.000  H
  C46      1.0000 0.87830  0.57860  0.15500  Biso   1.000  C
  C47      1.0000 0.88920  0.56370  0.26750  Biso   1.000  C
  H30      1.0000 0.89540  0.61510  0.29380  Biso   1.000  H
  C48      1.0000 0.81110  0.86240  0.15710  Biso   1.000  C
  H31      1.0000 0.77810  0.87000  0.18440  Biso   1.000  H
  C49      1.0000 0.84200  0.58880  0.05200  Biso   1.000  C
  H32      1.0000 0.81430  0.56530  0.00510  Biso   1.000  H
  C50      1.0000 0.89260  0.13040  0.27340  Biso   1.000  C
  H33      1.0000 0.93300  0.17140  0.29680  Biso   1.000  H
  C51      1.0000 0.89740  0.90760  0.11330  Biso   1.000  C
  H34      1.0000 0.92400  0.94800  0.11030  Biso   1.000  H
  N1       1.0000 0.47750  0.34690  0.44030  Biso   1.000  N
  N2       1.0000 0.01440  0.38250  0.42220  Biso   1.000  N
  N3       1.0000 0.88360  0.70900  0.05080  Biso   1.000  N
  O1       1.0000 0.76220  0.22200  0.33030  Biso   1.000  O
  O2       1.0000 0.88090  0.26450  0.37010  Biso   1.000  O
  O3       1.0000 0.90890  0.41660  0.51170  Biso   1.000  O
  O4       1.0000 0.88510  0.43130  0.36620  Biso   1.000  O
  O5       1.0000 0.78950  0.40120  0.48680  Biso   1.000  O
  O6       1.0000 0.89330  0.33530  0.26950  Biso   1.000  O
  Zn1      1.0000 0.90931  0.37072  0.40987  Biso   1.000  Zn
  Zn2      1.0000 0.73785  0.29748  0.41203  Biso   1.000  Zn
  C52      1.0000 0.58820  0.20160  0.37640  Biso   1.000  C
  C53      1.0000 0.55090  0.07680  0.27200  Biso   1.000  C
  H35      1.0000 0.51690  0.09230  0.25170  Biso   1.000  H
  C54      1.0000 0.65420  0.38120  0.36230  Biso   1.000  C
  C55      1.0000 0.65140  0.42440  0.32400  Biso   1.000  C
  C56      1.0000 0.65590  0.03350  0.32470  Biso   1.000  C
  H36      1.0000 0.69190  0.01910  0.34380  Biso   1.000  H
  C57      1.0000 0.64680  0.51200  0.25280  Biso   1.000  C
  C58      1.0000 0.59830  0.12610  0.33680  Biso   1.000  C
  C59      1.0000 0.62750  0.64640  0.03170  Biso   1.000  C
  C60      1.0000 0.64580  0.55650  0.21580  Biso   1.000  C
  C61      1.0000 0.63120  0.75840  0.14320  Biso   1.000  C
  C62      1.0000 0.65030  0.10450  0.36190  Biso   1.000  C
  H37      1.0000 0.68320  0.13820  0.40530  Biso   1.000  H
  C63      1.0000 0.61040  0.98420  0.26130  Biso   1.000  C
  C64      1.0000 0.60370  0.43040  0.66190  Biso   1.000  C
  C65      1.0000 0.61690  0.90290  0.21740  Biso   1.000  C
  C66      1.0000 0.65910  0.67800  0.99540  Biso   1.000  C
  H38      1.0000 0.68460  0.72860  0.02010  Biso   1.000  H
  C67      1.0000 0.65590  0.80130  0.21780  Biso   1.000  C
  H39      1.0000 0.67830  0.78100  0.24310  Biso   1.000  H
  C68      1.0000 0.61590  0.50790  0.69480  Biso   1.000  C
  H40      1.0000 0.62150  0.53280  0.66780  Biso   1.000  H
  C69      1.0000 0.65500  0.63830  0.92410  Biso   1.000  C
  H41      1.0000 0.67700  0.66190  0.90090  Biso   1.000  H
  C70      1.0000 0.69830  0.47600  0.25210  Biso   1.000  C
  H42      1.0000 0.73180  0.47880  0.22650  Biso   1.000  H
  C71      1.0000 0.59360  0.49830  0.28510  Biso   1.000  C
  H43      1.0000 0.55580  0.51860  0.28220  Biso   1.000  H
  C72      1.0000 0.55420  0.00480  0.23790  Biso   1.000  C
  H44      1.0000 0.51780  0.96900  0.19820  Biso   1.000  H
  C73      1.0000 0.61670  0.56050  0.88530  Biso   1.000  C
  C74      1.0000 0.61320  0.51630  0.80910  Biso   1.000  C
  C75      1.0000 0.60010  0.79420  0.10950  Biso   1.000  C
  H45      1.0000 0.58520  0.76950  0.05980  Biso   1.000  H
  C76      1.0000 0.58450  0.52500  0.92170  Biso   1.000  C
  H46      1.0000 0.56030  0.47410  0.89740  Biso   1.000  H
  C77      1.0000 0.59040  0.86460  0.14640  Biso   1.000  C
  H47      1.0000 0.56590  0.88470  0.12240  Biso   1.000  H
  C78      1.0000 0.63890  0.64350  0.14520  Biso   1.000  C
  C79      1.0000 0.64870  0.87080  0.25470  Biso   1.000  C
  H48      1.0000 0.66480  0.89690  0.30430  Biso   1.000  H
  C80      1.0000 0.61990  0.54810  0.76600  Biso   1.000  C
  H49      1.0000 0.62760  0.59980  0.78580  Biso   1.000  H
  C81      1.0000 0.70120  0.43460  0.29000  Biso   1.000  C
  H50      1.0000 0.73870  0.41370  0.29150  Biso   1.000  H
  C82      1.0000 0.59480  0.39520  0.70490  Biso   1.000  C
  H51      1.0000 0.58460  0.34330  0.68510  Biso   1.000  H
  C83      1.0000 0.58980  0.56870  0.99580  Biso   1.000  C
  H52      1.0000 0.56880  0.54660  0.02060  Biso   1.000  H
  C84      1.0000 0.59790  0.38550  0.58710  Biso   1.000  C
  C85      1.0000 0.58720  0.63120  0.17700  Biso   1.000  C
  H53      1.0000 0.54930  0.65140  0.17480  Biso   1.000  H
  C86      1.0000 0.69480  0.56860  0.18360  Biso   1.000  C
  H54      1.0000 0.73120  0.54580  0.18300  Biso   1.000  H
  C87      1.0000 0.59280  0.45770  0.32020  Biso   1.000  C
  H55      1.0000 0.55610  0.45100  0.34140  Biso   1.000  H
  C88      1.0000 0.69510  0.61450  0.14980  Biso   1.000  C
  H56      1.0000 0.73290  0.62460  0.13110  Biso   1.000  H
  C89      1.0000 0.58940  0.58980  0.21210  Biso   1.000  C
  H57      1.0000 0.55340  0.58310  0.23400  Biso   1.000  H
  C90      1.0000 0.60150  0.43880  0.77630  Biso   1.000  C
  H58      1.0000 0.59800  0.41520  0.80450  Biso   1.000  H
  N4       1.0000 0.63390  0.68490  0.10770  Biso   1.000  N
  O7       1.0000 0.64650  0.25620  0.42670  Biso   1.000  O
  O8       1.0000 0.69460  0.33910  0.34960  Biso   1.000  O
  O9       1.0000 0.61760  0.41900  0.55250  Biso   1.000  O
  O10      1.0000 0.53300  0.21580  0.36790  Biso   1.000  O
  O11      1.0000 0.56980  0.31840  0.55430  Biso   1.000  O
  O12      1.0000 0.61620  0.38880  0.40420  Biso   1.000  O
  Zn3      1.0000 0.57720  0.33341  0.45233  Biso   1.000  Zn
  C91      1.0000 0.88940  0.66010  0.63490  Biso   1.000  C
  H59      1.0000 0.87410  0.68870  0.67440  Biso   1.000  H
  C92      1.0000 0.86730  0.57000  0.50680  Biso   1.000  C
  H60      1.0000 0.83500  0.53950  0.46230  Biso   1.000  H
  C93      1.0000 0.76900  0.60550  0.55450  Biso   1.000  C
  H61      1.0000 0.74050  0.56850  0.50980  Biso   1.000  H
  C94      1.0000 0.84340  0.61080  0.56500  Biso   1.000  C
  C95      1.0000 0.73700  0.64230  0.59540  Biso   1.000  C
  H62      1.0000 0.76530  0.67570  0.64140  Biso   1.000  H
  C96      1.0000 0.14700  0.57380  0.47090  Biso   1.000  C
  C97      1.0000 0.61290  0.59010  0.53000  Biso   1.000  C
  H63      1.0000 0.62500  0.54830  0.49920  Biso   1.000  H
  C98      1.0000 0.65940  0.64320  0.58450  Biso   1.000  C
  C99      1.0000 0.53940  0.59540  0.51580  Biso   1.000  C
  H64      1.0000 0.50520  0.55730  0.47540  Biso   1.000  H
  C100     1.0000 0.64510  0.69620  0.63360  Biso   1.000  C
  H65      1.0000 0.67980  0.73070  0.67540  Biso   1.000  H
  C101     1.0000 0.96470  0.66000  0.63670  Biso   1.000  C
  H66      1.0000 0.99910  0.69020  0.67990  Biso   1.000  H
  C102     1.0000 0.17640  0.78630  0.67030  Biso   1.000  C
  C103     1.0000 0.57400  0.70170  0.62320  Biso   1.000  C
  H67      1.0000 0.56180  0.73880  0.66000  Biso   1.000  H
  C104     1.0000 0.07400  0.49900  0.34340  Biso   1.000  C
  H68      1.0000 0.03380  0.50890  0.35880  Biso   1.000  H
  C105     1.0000 0.12740  0.43960  0.24610  Biso   1.000  C
  C106     1.0000 0.16940  0.85810  0.71890  Biso   1.000  C
  C107     1.0000 0.11820  0.55480  0.73570  Biso   1.000  C
  C108     1.0000 0.11360  0.60000  0.69880  Biso   1.000  C
  C109     1.0000 0.12260  0.39820  0.17020  Biso   1.000  C
  C110     1.0000 0.12170  0.46750  0.80710  Biso   1.000  C
  C111     1.0000 0.12920  0.58900  0.81130  Biso   1.000  C
  H69      1.0000 0.13770  0.64070  0.83820  Biso   1.000  H
  C112     1.0000 0.10880  0.47630  0.69630  Biso   1.000  C
  H70      1.0000 0.10140  0.45280  0.64680  Biso   1.000  H
  C113     1.0000 0.12720  0.54240  0.84530  Biso   1.000  C
  H71      1.0000 0.12950  0.56340  0.89390  Biso   1.000  H
  C114     1.0000 0.23030  0.91960  0.76080  Biso   1.000  C
  H72      1.0000 0.27570  0.91330  0.76240  Biso   1.000  H
  C115     1.0000 0.14100  0.52710  0.39240  Biso   1.000  C
  C116     1.0000 0.06960  0.45620  0.27180  Biso   1.000  C
  H73      1.0000 0.02540  0.43760  0.23930  Biso   1.000  H
  C117     1.0000 0.08660  0.34690  0.80940  Biso   1.000  C
  H74      1.0000 0.06460  0.32400  0.76070  Biso   1.000  H
  C118     1.0000 0.07340  0.37000  0.04820  Biso   1.000  C
  H75      1.0000 0.04090  0.37370  0.01480  Biso   1.000  H
  C119     1.0000 0.11850  0.32590  0.02520  Biso   1.000  C
  C120     1.0000 0.20120  0.51300  0.36890  Biso   1.000  C
  H76      1.0000 0.24570  0.53310  0.40140  Biso   1.000  H
  C121     1.0000 0.22060  0.99060  0.80000  Biso   1.000  C
  H77      1.0000 0.26030  0.03230  0.82350  Biso   1.000  H
  C122     1.0000 0.93740  0.57370  0.51360  Biso   1.000  C
  H78      1.0000 0.95260  0.54590  0.47370  Biso   1.000  H
  C123     1.0000 0.15530  0.00070  0.80500  Biso   1.000  C
  C124     1.0000 0.14880  0.07890  0.84880  Biso   1.000  C
  C125     1.0000 0.12260  0.33560  0.91610  Biso   1.000  C
  C126     1.0000 0.17880  0.20940  0.87910  Biso   1.000  C
  H79      1.0000 0.20600  0.24900  0.87550  Biso   1.000  H
  C127     1.0000 0.07610  0.40780  0.11810  Biso   1.000  C
  H80      1.0000 0.04800  0.44020  0.13310  Biso   1.000  H
  C128     1.0000 0.19460  0.46910  0.29730  Biso   1.000  C
  H81      1.0000 0.23460  0.45830  0.28190  Biso   1.000  H
  C129     1.0000 0.08890  0.16010  0.92290  Biso   1.000  C
  H82      1.0000 0.05450  0.16560  0.94860  Biso   1.000  H
  C130     1.0000 0.15360  0.45230  0.91320  Biso   1.000  C
  H83      1.0000 0.17390  0.50410  0.93860  Biso   1.000  H
  C131     1.0000 0.16310  0.31480  0.07460  Biso   1.000  C
  H84      1.0000 0.18990  0.28110  0.05880  Biso   1.000  H
  C132     1.0000 0.13180  0.22250  0.91830  Biso   1.000  C
  C133     1.0000 0.09910  0.94100  0.76840  Biso   1.000  C
  H85      1.0000 0.05370  0.94630  0.77040  Biso   1.000  H
  C134     1.0000 0.08350  0.30460  0.84570  Biso   1.000  C
  H86      1.0000 0.05500  0.25510  0.82240  Biso   1.000  H
  C135     1.0000 0.16690  0.35270  0.14430  Biso   1.000  C
  H87      1.0000 0.20020  0.34870  0.17680  Biso   1.000  H
  C136     1.0000 0.12170  0.42140  0.84500  Biso   1.000  C
  C137     1.0000 0.11080  0.43630  0.73250  Biso   1.000  C
  H88      1.0000 0.10460  0.38490  0.70620  Biso   1.000  H
  C138     1.0000 0.18890  0.13760  0.84290  Biso   1.000  C
  H89      1.0000 0.22190  0.13000  0.81560  Biso   1.000  H
  C139     1.0000 0.15800  0.41120  0.94800  Biso   1.000  C
  H90      1.0000 0.18570  0.43470  0.99490  Biso   1.000  H
  C140     1.0000 0.10740  0.86960  0.72660  Biso   1.000  C
  H91      1.0000 0.06700  0.82860  0.70320  Biso   1.000  H
  C141     1.0000 0.10260  0.09240  0.88670  Biso   1.000  C
  H92      1.0000 0.07600  0.05200  0.88970  Biso   1.000  H
  N5       1.0000 0.52250  0.65310  0.55970  Biso   1.000  N
  N6       1.0000 0.98560  0.61750  0.57780  Biso   1.000  N
  N7       1.0000 0.11640  0.29100  0.94920  Biso   1.000  N
  O13      1.0000 0.23780  0.77800  0.66970  Biso   1.000  O
  O14      1.0000 0.11910  0.73550  0.62990  Biso   1.000  O
  O15      1.0000 0.09110  0.58340  0.48830  Biso   1.000  O
  O16      1.0000 0.11490  0.56870  0.63380  Biso   1.000  O
  O17      1.0000 0.21050  0.59880  0.51320  Biso   1.000  O
  O18      1.0000 0.10670  0.66470  0.73050  Biso   1.000  O
  Zn4      1.0000 0.09069  0.62928  0.59013  Biso   1.000  Zn
  Zn5      1.0000 0.26215  0.70252  0.58797  Biso   1.000  Zn
  C142     1.0000 0.41180  0.79840  0.62360  Biso   1.000  C
  C143     1.0000 0.44910  0.92320  0.72800  Biso   1.000  C
  H93      1.0000 0.48310  0.90770  0.74830  Biso   1.000  H
  C144     1.0000 0.34580  0.61880  0.63770  Biso   1.000  C
  C145     1.0000 0.34860  0.57560  0.67600  Biso   1.000  C
  C146     1.0000 0.34410  0.96650  0.67530  Biso   1.000  C
  H94      1.0000 0.30810  0.98090  0.65620  Biso   1.000  H
  C147     1.0000 0.35320  0.48800  0.74720  Biso   1.000  C
  C148     1.0000 0.40170  0.87390  0.66320  Biso   1.000  C
  C149     1.0000 0.37250  0.35360  0.96830  Biso   1.000  C
  C150     1.0000 0.35420  0.44350  0.78420  Biso   1.000  C
  C151     1.0000 0.36880  0.24160  0.85680  Biso   1.000  C
  C152     1.0000 0.34970  0.89550  0.63810  Biso   1.000  C
  H95      1.0000 0.31680  0.86180  0.59470  Biso   1.000  H
  C153     1.0000 0.38960  0.01580  0.73870  Biso   1.000  C
  C154     1.0000 0.39630  0.56960  0.33810  Biso   1.000  C
  C155     1.0000 0.38310  0.09710  0.78260  Biso   1.000  C
  C156     1.0000 0.34090  0.32200  0.00460  Biso   1.000  C
  H96      1.0000 0.31540  0.27140  0.97990  Biso   1.000  H
  C157     1.0000 0.34410  0.19870  0.78220  Biso   1.000  C
  H97      1.0000 0.32170  0.21900  0.75690  Biso   1.000  H
  C158     1.0000 0.38410  0.49210  0.30520  Biso   1.000  C
  H98      1.0000 0.37850  0.46720  0.33220  Biso   1.000  H
  C159     1.0000 0.34500  0.36170  0.07590  Biso   1.000  C
  H99      1.0000 0.32300  0.33810  0.09910  Biso   1.000  H
  C160     1.0000 0.30170  0.52400  0.74790  Biso   1.000  C
  H100     1.0000 0.26820  0.52120  0.77350  Biso   1.000  H
  C161     1.0000 0.40640  0.50170  0.71490  Biso   1.000  C
  H101     1.0000 0.44420  0.48140  0.71780  Biso   1.000  H
  C162     1.0000 0.44580  0.99520  0.76210  Biso   1.000  C
  H102     1.0000 0.48220  0.03100  0.80180  Biso   1.000  H
  C163     1.0000 0.38330  0.43950  0.11470  Biso   1.000  C
  C164     1.0000 0.38680  0.48370  0.19090  Biso   1.000  C
  C165     1.0000 0.39990  0.20580  0.89050  Biso   1.000  C
  H103     1.0000 0.41480  0.23050  0.94020  Biso   1.000  H
  C166     1.0000 0.41550  0.47500  0.07830  Biso   1.000  C
  H104     1.0000 0.43970  0.52590  0.10260  Biso   1.000  H
  C167     1.0000 0.40960  0.13540  0.85360  Biso   1.000  C
  H105     1.0000 0.43410  0.11530  0.87760  Biso   1.000  H
  C168     1.0000 0.36110  0.35650  0.85480  Biso   1.000  C
  C169     1.0000 0.35130  0.12920  0.74530  Biso   1.000  C
  H106     1.0000 0.33520  0.10310  0.69570  Biso   1.000  H
  C170     1.0000 0.38010  0.45190  0.23400  Biso   1.000  C
  H107     1.0000 0.37240  0.40020  0.21420  Biso   1.000  H
  C171     1.0000 0.29880  0.56540  0.71000  Biso   1.000  C
  H108     1.0000 0.26130  0.58630  0.70850  Biso   1.000  H
  C172     1.0000 0.40520  0.60480  0.29510  Biso   1.000  C
  H109     1.0000 0.41540  0.65670  0.31490  Biso   1.000  H
  C173     1.0000 0.41020  0.43130  0.00420  Biso   1.000  C
  H110     1.0000 0.43120  0.45340  0.97940  Biso   1.000  H
  C174     1.0000 0.40210  0.61450  0.41290  Biso   1.000  C
  C175     1.0000 0.41280  0.36880  0.82300  Biso   1.000  C
  H111     1.0000 0.45070  0.34860  0.82520  Biso   1.000  H
  C176     1.0000 0.30520  0.43140  0.81640  Biso   1.000  C
  H112     1.0000 0.26880  0.45420  0.81700  Biso   1.000  H
  C177     1.0000 0.40720  0.54230  0.67980  Biso   1.000  C
  H113     1.0000 0.44390  0.54900  0.65860  Biso   1.000  H
  C178     1.0000 0.30490  0.38550  0.85020  Biso   1.000  C
  H114     1.0000 0.26710  0.37540  0.86890  Biso   1.000  H
  C179     1.0000 0.41060  0.41020  0.78790  Biso   1.000  C
  H115     1.0000 0.44660  0.41690  0.76600  Biso   1.000  H
  C180     1.0000 0.39850  0.56120  0.22370  Biso   1.000  C
  H116     1.0000 0.40200  0.58480  0.19550  Biso   1.000  H
  N8       1.0000 0.36610  0.31510  0.89230  Biso   1.000  N
  O19      1.0000 0.35350  0.74380  0.57330  Biso   1.000  O
  O20      1.0000 0.30540  0.66090  0.65040  Biso   1.000  O
  O21      1.0000 0.38240  0.58100  0.44750  Biso   1.000  O
  O22      1.0000 0.46700  0.78420  0.63210  Biso   1.000  O
  O23      1.0000 0.43020  0.68160  0.44570  Biso   1.000  O
  O24      1.0000 0.38380  0.61120  0.59580  Biso   1.000  O
  Zn6      1.0000 0.42280  0.66659  0.54767  Biso   1.000  Zn
