data_image0
_cell_length_a       19.608
_cell_length_b       21.133
_cell_length_c       21.571
_cell_angle_alpha    117.428
_cell_angle_beta     100.548
_cell_angle_gamma    99.067

_symmetry_space_group_name_H-M    "P 1"
_symmetry_int_tables_number       1

loop_
  _symmetry_equiv_pos_as_xyz
  'x, y, z'

loop_
  _atom_site_label
  _atom_site_occupancy
  _atom_site_fract_x
  _atom_site_fract_y
  _atom_site_fract_z
  _atom_site_thermal_displace_type
  _atom_site_B_iso_or_equiv
  _atom_site_type_symbol
  Zn1      1.0000 0.59857  0.13165  0.09704  Biso   1.000  Zn
  O1       1.0000 0.71580  0.10420  0.01360  Biso   1.000  O
  O2       1.0000 0.62290  0.23430  0.13410  Biso   1.000  O
  O3       1.0000 0.59560  0.08000  0.99400  Biso   1.000  O
  C1       1.0000 0.46620  0.16900  0.13640  Biso   1.000  C
  H1       1.0000 0.50060  0.20240  0.18260  Biso   1.000  H
  C2       1.0000 0.65130  0.06840  0.97150  Biso   1.000  C
  O4       1.0000 0.74480  0.28550  0.17480  Biso   1.000  O
  O5       1.0000 0.62280  0.07340  0.14080  Biso   1.000  O
  N1       1.0000 0.02510  0.15920  0.07300  Biso   1.000  N
  C3       1.0000 0.56000  0.94560  0.76960  Biso   1.000  C
  H2       1.0000 0.51230  0.92560  0.73740  Biso   1.000  H
  C4       1.0000 0.61820  0.97470  0.31250  Biso   1.000  C
  C5       1.0000 0.62290  0.93470  0.74440  Biso   1.000  C
  C6       1.0000 0.69650  0.00770  0.86250  Biso   1.000  C
  H3       1.0000 0.74400  0.02900  0.89530  Biso   1.000  H
  N2       1.0000 0.59410  0.78810  0.43730  Biso   1.000  N
  C7       1.0000 0.63030  0.09220  0.31870  Biso   1.000  C
  H4       1.0000 0.63580  0.14390  0.34710  Biso   1.000  H
  C8       1.0000 0.61100  0.89450  0.66360  Biso   1.000  C
  C9       1.0000 0.61010  0.92130  0.34140  Biso   1.000  C
  C10      1.0000 0.60930  0.93990  0.23260  Biso   1.000  C
  H5       1.0000 0.60050  0.88770  0.20360  Biso   1.000  H
  C11      1.0000 0.65140  0.50540  0.30380  Biso   1.000  C
  C12      1.0000 0.66790  0.36350  0.21910  Biso   1.000  C
  O6       1.0000 0.61430  0.16830  0.23900  Biso   1.000  O
  C13      1.0000 0.67690  0.63690  0.33730  Biso   1.000  C
  H6       1.0000 0.71050  0.62780  0.30980  Biso   1.000  H
  C14      1.0000 0.71800  0.49860  0.30040  Biso   1.000  C
  H7       1.0000 0.75680  0.54240  0.32270  Biso   1.000  H
  C15      1.0000 0.39960  0.17040  0.12980  Biso   1.000  C
  H8       1.0000 0.38760  0.20730  0.16900  Biso   1.000  H
  C16      1.0000 0.64280  0.02280  0.89290  Biso   1.000  C
  C17      1.0000 0.63710  0.90780  0.44740  Biso   1.000  C
  H9       1.0000 0.66050  0.92830  0.49780  Biso   1.000  H
  C18      1.0000 0.57550  0.84570  0.29830  Biso   1.000  C
  H10      1.0000 0.55380  0.82350  0.24730  Biso   1.000  H
  C19      1.0000 0.65750  0.85140  0.63510  Biso   1.000  C
  H11      1.0000 0.69350  0.84740  0.66810  Biso   1.000  H
  C20      1.0000 0.64200  0.58170  0.34400  Biso   1.000  C
  C21      1.0000 0.59780  0.81950  0.51260  Biso   1.000  C
  C22      1.0000 0.61110  0.71790  0.40590  Biso   1.000  C
  N3       1.0000 0.49040  0.12310  0.08170  Biso   1.000  N
  C23      1.0000 0.62430  0.06140  0.24500  Biso   1.000  C
  C24      1.0000 0.57370  0.65810  0.40880  Biso   1.000  C
  H12      1.0000 0.53600  0.66390  0.43130  Biso   1.000  H
  C25      1.0000 0.57390  0.80290  0.33320  Biso   1.000  C
  H13      1.0000 0.55410  0.75060  0.30410  Biso   1.000  H
  C26      1.0000 0.62160  0.10620  0.20960  Biso   1.000  C
  C27      1.0000 0.57680  0.99190  0.85210  Biso   1.000  C
  H14      1.0000 0.53850  0.99800  0.87370  Biso   1.000  H
  C28      1.0000 0.43820  0.07430  0.01750  Biso   1.000  C
  H15      1.0000 0.45140  0.03960  0.97780  Biso   1.000  H
  C29      1.0000 0.69120  0.96530  0.79010  Biso   1.000  C
  H16      1.0000 0.73230  0.95790  0.77320  Biso   1.000  H
  C30      1.0000 0.64090  0.95310  0.41580  Biso   1.000  C
  H17      1.0000 0.66440  0.00480  0.44520  Biso   1.000  H
  C31      1.0000 0.61390  0.98360  0.20070  Biso   1.000  C
  H18      1.0000 0.61020  0.96220  0.15020  Biso   1.000  H
  C32      1.0000 0.59890  0.83290  0.40480  Biso   1.000  C
  C33      1.0000 0.36530  0.07400  0.00860  Biso   1.000  C
  H19      1.0000 0.33050  0.04250  0.96220  Biso   1.000  H
  C34      1.0000 0.55430  0.89590  0.61120  Biso   1.000  C
  H20      1.0000 0.52080  0.92280  0.62830  Biso   1.000  H
  C35      1.0000 0.67780  0.28830  0.17500  Biso   1.000  C
  C36      1.0000 0.54710  0.85980  0.53740  Biso   1.000  C
  H21      1.0000 0.50950  0.86170  0.50400  Biso   1.000  H
  C37      1.0000 0.62860  0.05030  0.35170  Biso   1.000  C
  H22      1.0000 0.63470  0.07380  0.40280  Biso   1.000  H
  C38      1.0000 0.73280  0.42790  0.26450  Biso   1.000  C
  H23      1.0000 0.78050  0.42280  0.26950  Biso   1.000  H
  C39      1.0000 0.60320  0.37170  0.22670  Biso   1.000  C
  H24      1.0000 0.56290  0.32910  0.20380  Biso   1.000  H
  C40      1.0000 0.26090  0.10240  0.05220  Biso   1.000  C
  H25      1.0000 0.22460  0.05730  0.01840  Biso   1.000  H
  C41      1.0000 0.58900  0.59180  0.38060  Biso   1.000  C
  H26      1.0000 0.56420  0.55280  0.38570  Biso   1.000  H
  C42      1.0000 0.66600  0.70760  0.36910  Biso   1.000  C
  H27      1.0000 0.69360  0.74690  0.36640  Biso   1.000  H
  C43      1.0000 0.34540  0.11860  0.06610  Biso   1.000  C
  C44      1.0000 0.59390  0.44320  0.26840  Biso   1.000  C
  H28      1.0000 0.54720  0.44790  0.27190  Biso   1.000  H
  C45      1.0000 0.65390  0.81610  0.56470  Biso   1.000  C
  H29      1.0000 0.68740  0.78890  0.54850  Biso   1.000  H
  C46      1.0000 0.03400  0.09480  0.05580  Biso   1.000  C
  H30      1.0000 0.99340  0.05500  0.04220  Biso   1.000  H
  C47      1.0000 0.10320  0.08130  0.05640  Biso   1.000  C
  H31      1.0000 0.10950  0.03430  0.04670  Biso   1.000  H
  C48      1.0000 0.08070  0.22480  0.09310  Biso   1.000  C
  H32      1.0000 0.07060  0.27090  0.10530  Biso   1.000  H
  C49      1.0000 0.16190  0.13940  0.07170  Biso   1.000  C
  C50      1.0000 0.25430  0.15700  0.09180  Biso   1.000  C
  H33      1.0000 0.29040  0.20160  0.12730  Biso   1.000  H
  C51      1.0000 0.15160  0.21650  0.09370  Biso   1.000  C
  H34      1.0000 0.19100  0.25730  0.10720  Biso   1.000  H
  Zn2      1.0000 0.76627  0.20753  0.09345  Biso   1.000  Zn
  Zn3      1.0000 0.92080  0.17003  0.05586  Biso   1.000  Zn
  O7       1.0000 0.81000  0.16770  0.15600  Biso   1.000  O
  O8       1.0000 0.88570  0.10840  0.09610  Biso   1.000  O
  N4       1.0000 0.85590  0.81750  0.38570  Biso   1.000  N
  O9       1.0000 0.88260  0.09200  0.95320  Biso   1.000  O
  C52      1.0000 0.84350  0.98560  0.23790  Biso   1.000  C
  O10      1.0000 0.85720  0.24490  0.07990  Biso   1.000  O
  C53      1.0000 0.84280  0.11510  0.13530  Biso   1.000  C
  C54      1.0000 0.80580  0.03620  0.25620  Biso   1.000  C
  H35      1.0000 0.78210  0.04400  0.29280  Biso   1.000  H
  C55      1.0000 0.90450  0.38000  0.17460  Biso   1.000  C
  C56      1.0000 0.88990  0.99570  0.69220  Biso   1.000  C
  O11      1.0000 0.97360  0.29080  0.15370  Biso   1.000  O
  C57      1.0000 0.84370  0.07020  0.17000  Biso   1.000  C
  C58      1.0000 0.85350  0.85660  0.34710  Biso   1.000  C
  C59      1.0000 0.84820  0.94030  0.27710  Biso   1.000  C
  C60      1.0000 0.86200  0.74530  0.35180  Biso   1.000  C
  C61      1.0000 0.88690  0.52130  0.24280  Biso   1.000  C
  C62      1.0000 0.87760  0.60010  0.28320  Biso   1.000  C
  C63      1.0000 0.82250  0.82930  0.49470  Biso   1.000  C
  H36      1.0000 0.78970  0.78100  0.46800  Biso   1.000  H
  C64      1.0000 0.90420  0.86330  0.31270  Biso   1.000  C
  H37      1.0000 0.94210  0.84030  0.31350  Biso   1.000  H
  C65      1.0000 0.86370  0.85970  0.46090  Biso   1.000  C
  C66      1.0000 0.89740  0.71670  0.39200  Biso   1.000  C
  H38      1.0000 0.91790  0.74780  0.44330  Biso   1.000  H
  C67      1.0000 0.80230  0.07580  0.22130  Biso   1.000  C
  H39      1.0000 0.77210  0.10810  0.23060  Biso   1.000  H
  C68      1.0000 0.90070  0.90420  0.27590  Biso   1.000  C
  H40      1.0000 0.93480  0.90660  0.25030  Biso   1.000  H
  O12      1.0000 0.94250  0.19210  0.95760  Biso   1.000  O
  C69      1.0000 0.91450  0.97840  0.57720  Biso   1.000  C
  H41      1.0000 0.94450  0.02800  0.60350  Biso   1.000  H
  C70      1.0000 0.84650  0.39770  0.13950  Biso   1.000  C
  H42      1.0000 0.81470  0.36190  0.09250  Biso   1.000  H
  C71      1.0000 0.90280  0.64560  0.35930  Biso   1.000  C
  H43      1.0000 0.92390  0.62700  0.38840  Biso   1.000  H
  C72      1.0000 0.79880  0.93200  0.31380  Biso   1.000  C
  H44      1.0000 0.76230  0.95700  0.31630  Biso   1.000  H
  C73      1.0000 0.83600  0.70030  0.27750  Biso   1.000  C
  H45      1.0000 0.81350  0.71970  0.24980  Biso   1.000  H
  C74      1.0000 0.94150  0.50470  0.27780  Biso   1.000  C
  H46      1.0000 0.97220  0.54210  0.32480  Biso   1.000  H
  C75      1.0000 0.87880  0.94910  0.61400  Biso   1.000  C
  C76      1.0000 0.83880  0.46750  0.17600  Biso   1.000  C
  H47      1.0000 0.79950  0.47950  0.15500  Biso   1.000  H
  C77      1.0000 0.87950  0.97490  0.18700  Biso   1.000  C
  H48      1.0000 0.90310  0.93670  0.17310  Biso   1.000  H
  C78      1.0000 0.84070  0.62690  0.23970  Biso   1.000  C
  H49      1.0000 0.82070  0.59650  0.18830  Biso   1.000  H
  C79      1.0000 0.90770  0.07250  0.72770  Biso   1.000  C
  H50      1.0000 0.91560  0.09680  0.70090  Biso   1.000  H
  C80      1.0000 0.95300  0.43440  0.24620  Biso   1.000  C
  H51      1.0000 0.99060  0.42300  0.27030  Biso   1.000  H
  C81      1.0000 0.80010  0.89050  0.34580  Biso   1.000  C
  H52      1.0000 0.76350  0.88480  0.36770  Biso   1.000  H
  C82      1.0000 0.90540  0.93420  0.50180  Biso   1.000  C
  H53      1.0000 0.92820  0.95540  0.47790  Biso   1.000  H
  C83      1.0000 0.87400  0.96050  0.73140  Biso   1.000  C
  H54      1.0000 0.85620  0.90800  0.70630  Biso   1.000  H
  C84      1.0000 0.83410  0.87610  0.56980  Biso   1.000  C
  H55      1.0000 0.80900  0.85610  0.59330  Biso   1.000  H
  C85      1.0000 0.88220  0.01830  0.15550  Biso   1.000  C
  H56      1.0000 0.91090  0.01260  0.12330  Biso   1.000  H
  C86      1.0000 0.88400  0.00150  0.80790  Biso   1.000  C
  H57      1.0000 0.87980  0.97700  0.83510  Biso   1.000  H
  C87      1.0000 0.91420  0.11570  0.80330  Biso   1.000  C
  H58      1.0000 0.92800  0.16830  0.82660  Biso   1.000  H
  C88      1.0000 0.90050  0.08150  0.84330  Biso   1.000  C
  C89      1.0000 0.91440  0.30240  0.13550  Biso   1.000  C
  C90      1.0000 0.90760  0.12300  0.92070  Biso   1.000  C
  Zn4      1.0000 0.40143  0.86835  0.90296  Biso   1.000  Zn
  O13      1.0000 0.28420  0.89580  0.98640  Biso   1.000  O
  O14      1.0000 0.37710  0.76570  0.86590  Biso   1.000  O
  O15      1.0000 0.40440  0.92000  0.00600  Biso   1.000  O
  C91      1.0000 0.53380  0.83100  0.86360  Biso   1.000  C
  H59      1.0000 0.49940  0.79760  0.81740  Biso   1.000  H
  C92      1.0000 0.34870  0.93160  0.02850  Biso   1.000  C
  O16      1.0000 0.25520  0.71450  0.82520  Biso   1.000  O
  O17      1.0000 0.37720  0.92660  0.85920  Biso   1.000  O
  N5       1.0000 0.97490  0.84080  0.92700  Biso   1.000  N
  C93      1.0000 0.44000  0.05440  0.23040  Biso   1.000  C
  H60      1.0000 0.48770  0.07440  0.26260  Biso   1.000  H
  C94      1.0000 0.38180  0.02530  0.68750  Biso   1.000  C
  C95      1.0000 0.37710  0.06530  0.25560  Biso   1.000  C
  C96      1.0000 0.30350  0.99230  0.13750  Biso   1.000  C
  H61      1.0000 0.25600  0.97100  0.10470  Biso   1.000  H
  N6       1.0000 0.40590  0.21190  0.56270  Biso   1.000  N
  C97      1.0000 0.36970  0.90780  0.68130  Biso   1.000  C
  H62      1.0000 0.36420  0.85610  0.65290  Biso   1.000  H
  C98      1.0000 0.38900  0.10550  0.33640  Biso   1.000  C
  C99      1.0000 0.38990  0.07870  0.65860  Biso   1.000  C
  C100     1.0000 0.39070  0.06010  0.76740  Biso   1.000  C
  H63      1.0000 0.39950  0.11230  0.79640  Biso   1.000  H
  C101     1.0000 0.34860  0.49460  0.69620  Biso   1.000  C
  C102     1.0000 0.33210  0.63650  0.78090  Biso   1.000  C
  O18      1.0000 0.38570  0.83170  0.76100  Biso   1.000  O
  C103     1.0000 0.32310  0.36310  0.66270  Biso   1.000  C
  H64      1.0000 0.28950  0.37220  0.69020  Biso   1.000  H
  C104     1.0000 0.28200  0.50140  0.69960  Biso   1.000  C
  H65      1.0000 0.24320  0.45760  0.67730  Biso   1.000  H
  C105     1.0000 0.60040  0.82960  0.87020  Biso   1.000  C
  H66      1.0000 0.61240  0.79270  0.83100  Biso   1.000  H
  C106     1.0000 0.35720  0.97720  0.10710  Biso   1.000  C
  C107     1.0000 0.36290  0.09220  0.55260  Biso   1.000  C
  H67      1.0000 0.33950  0.07170  0.50220  Biso   1.000  H
  C108     1.0000 0.42450  0.15430  0.70170  Biso   1.000  C
  H68      1.0000 0.44620  0.17650  0.75270  Biso   1.000  H
  C109     1.0000 0.34250  0.14860  0.36490  Biso   1.000  C
  H69      1.0000 0.30650  0.15260  0.33190  Biso   1.000  H
  C110     1.0000 0.35800  0.41830  0.65600  Biso   1.000  C
  C111     1.0000 0.40220  0.18050  0.48740  Biso   1.000  C
  C112     1.0000 0.38890  0.28210  0.59410  Biso   1.000  C
  N7       1.0000 0.50960  0.87690  0.91830  Biso   1.000  N
  C113     1.0000 0.37570  0.93860  0.75500  Biso   1.000  C
  C114     1.0000 0.42630  0.34190  0.59120  Biso   1.000  C
  H70      1.0000 0.46400  0.33610  0.56870  Biso   1.000  H
  C115     1.0000 0.42610  0.19710  0.66680  Biso   1.000  C
  H71      1.0000 0.44590  0.24940  0.69590  Biso   1.000  H
  C116     1.0000 0.37840  0.89380  0.79040  Biso   1.000  C
  C117     1.0000 0.42320  0.00810  0.14790  Biso   1.000  C
  H72      1.0000 0.46150  0.00200  0.12630  Biso   1.000  H
  C118     1.0000 0.56180  0.92570  0.98250  Biso   1.000  C
  H73      1.0000 0.54860  0.96040  0.02220  Biso   1.000  H
  C119     1.0000 0.30880  0.03470  0.20990  Biso   1.000  C
  H74      1.0000 0.26770  0.04210  0.22680  Biso   1.000  H
  C120     1.0000 0.35910  0.04690  0.58420  Biso   1.000  C
  H75      1.0000 0.33560  0.99520  0.55480  Biso   1.000  H
  C121     1.0000 0.38610  0.01640  0.79930  Biso   1.000  C
  H76      1.0000 0.38980  0.03780  0.84980  Biso   1.000  H
  C122     1.0000 0.40110  0.16710  0.59520  Biso   1.000  C
  C123     1.0000 0.63470  0.92600  0.99140  Biso   1.000  C
  H77      1.0000 0.66950  0.95750  0.03780  Biso   1.000  H
  C124     1.0000 0.44570  0.10410  0.38880  Biso   1.000  C
  H78      1.0000 0.47920  0.07720  0.37170  Biso   1.000  H
  C125     1.0000 0.32220  0.71170  0.82500  Biso   1.000  C
  C126     1.0000 0.45290  0.14020  0.46260  Biso   1.000  C
  H79      1.0000 0.49050  0.13830  0.49600  Biso   1.000  H
  C127     1.0000 0.37140  0.94970  0.64830  Biso   1.000  C
  H80      1.0000 0.36530  0.92620  0.59720  Biso   1.000  H
  C128     1.0000 0.26720  0.57210  0.73550  Biso   1.000  C
  H81      1.0000 0.21950  0.57720  0.73050  Biso   1.000  H
  C129     1.0000 0.39680  0.62830  0.77330  Biso   1.000  C
  H82      1.0000 0.43710  0.67090  0.79620  Biso   1.000  H
  C130     1.0000 0.73910  0.89760  0.94780  Biso   1.000  C
  H83      1.0000 0.77540  0.94270  0.98160  Biso   1.000  H
  C131     1.0000 0.41100  0.40820  0.61940  Biso   1.000  C
  H84      1.0000 0.43580  0.44720  0.61430  Biso   1.000  H
  C132     1.0000 0.33400  0.29240  0.63090  Biso   1.000  C
  H85      1.0000 0.30640  0.25310  0.63360  Biso   1.000  H
  C133     1.0000 0.65460  0.88140  0.93390  Biso   1.000  C
  C134     1.0000 0.40610  0.55680  0.73160  Biso   1.000  C
  H86      1.0000 0.45280  0.55210  0.72810  Biso   1.000  H
  C135     1.0000 0.34610  0.18390  0.43530  Biso   1.000  C
  H87      1.0000 0.31260  0.21110  0.45150  Biso   1.000  H
  C136     1.0000 0.96600  0.90520  0.94420  Biso   1.000  C
  H88      1.0000 0.00660  0.94500  0.95780  Biso   1.000  H
  C137     1.0000 0.89680  0.91870  0.94360  Biso   1.000  C
  H89      1.0000 0.89050  0.96570  0.95330  Biso   1.000  H
  C138     1.0000 0.91930  0.77520  0.90690  Biso   1.000  C
  H90      1.0000 0.92940  0.72910  0.89470  Biso   1.000  H
  C139     1.0000 0.83810  0.86060  0.92830  Biso   1.000  C
  C140     1.0000 0.74570  0.84300  0.90820  Biso   1.000  C
  H91      1.0000 0.70960  0.79840  0.87270  Biso   1.000  H
  C141     1.0000 0.84840  0.78350  0.90630  Biso   1.000  C
  H92      1.0000 0.80900  0.74270  0.89280  Biso   1.000  H
  Zn5      1.0000 0.23373  0.79247  0.90655  Biso   1.000  Zn
  Zn6      1.0000 0.07920  0.82997  0.94414  Biso   1.000  Zn
  O19      1.0000 0.19000  0.83230  0.84400  Biso   1.000  O
  O20      1.0000 0.11430  0.89160  0.90390  Biso   1.000  O
  N8       1.0000 0.14410  0.18250  0.61430  Biso   1.000  N
  O21      1.0000 0.11740  0.90800  0.04680  Biso   1.000  O
  C142     1.0000 0.15650  0.01440  0.76210  Biso   1.000  C
  O22      1.0000 0.14280  0.75510  0.92010  Biso   1.000  O
  C143     1.0000 0.15720  0.88490  0.86470  Biso   1.000  C
  C144     1.0000 0.19420  0.96380  0.74380  Biso   1.000  C
  H93      1.0000 0.21790  0.95600  0.70720  Biso   1.000  H
  C145     1.0000 0.09550  0.62000  0.82540  Biso   1.000  C
  C146     1.0000 0.11010  0.00430  0.30780  Biso   1.000  C
  O23      1.0000 0.02640  0.70920  0.84630  Biso   1.000  O
  C147     1.0000 0.15630  0.92980  0.83000  Biso   1.000  C
  C148     1.0000 0.14650  0.14340  0.65290  Biso   1.000  C
  C149     1.0000 0.15180  0.05970  0.72290  Biso   1.000  C
  C150     1.0000 0.13800  0.25470  0.64820  Biso   1.000  C
  C151     1.0000 0.11310  0.47870  0.75720  Biso   1.000  C
  C152     1.0000 0.12240  0.39990  0.71680  Biso   1.000  C
  C153     1.0000 0.17750  0.17070  0.50530  Biso   1.000  C
  H94      1.0000 0.21030  0.21900  0.53200  Biso   1.000  H
  C154     1.0000 0.09580  0.13670  0.68730  Biso   1.000  C
  H95      1.0000 0.05790  0.15970  0.68650  Biso   1.000  H
  C155     1.0000 0.13630  0.14030  0.53910  Biso   1.000  C
  C156     1.0000 0.10260  0.28330  0.60800  Biso   1.000  C
  H96      1.0000 0.08210  0.25220  0.55670  Biso   1.000  H
  C157     1.0000 0.19770  0.92420  0.77870  Biso   1.000  C
  H97      1.0000 0.22790  0.89190  0.76940  Biso   1.000  H
  C158     1.0000 0.09930  0.09580  0.72410  Biso   1.000  C
  H98      1.0000 0.06520  0.09340  0.74970  Biso   1.000  H
  O24      1.0000 0.05750  0.80790  0.04240  Biso   1.000  O
  C159     1.0000 0.08550  0.02160  0.42280  Biso   1.000  C
  H99      1.0000 0.05550  0.97200  0.39650  Biso   1.000  H
  C160     1.0000 0.15350  0.60230  0.86050  Biso   1.000  C
  H100     1.0000 0.18530  0.63810  0.90750  Biso   1.000  H
  C161     1.0000 0.09720  0.35440  0.64070  Biso   1.000  C
  H101     1.0000 0.07610  0.37300  0.61160  Biso   1.000  H
  C162     1.0000 0.20120  0.06800  0.68620  Biso   1.000  C
  H102     1.0000 0.23770  0.04300  0.68370  Biso   1.000  H
  C163     1.0000 0.16400  0.29970  0.72250  Biso   1.000  C
  H103     1.0000 0.18650  0.28030  0.75020  Biso   1.000  H
  C164     1.0000 0.05850  0.49530  0.72220  Biso   1.000  C
  H104     1.0000 0.02780  0.45790  0.67520  Biso   1.000  H
  C165     1.0000 0.12120  0.05090  0.38600  Biso   1.000  C
  C166     1.0000 0.16120  0.53250  0.82400  Biso   1.000  C
  H105     1.0000 0.20050  0.52050  0.84500  Biso   1.000  H
  C167     1.0000 0.12050  0.02510  0.81300  Biso   1.000  C
  H106     1.0000 0.09690  0.06330  0.82690  Biso   1.000  H
  C168     1.0000 0.15930  0.37310  0.76030  Biso   1.000  C
  H107     1.0000 0.17930  0.40350  0.81170  Biso   1.000  H
  C169     1.0000 0.09230  0.92750  0.27230  Biso   1.000  C
  H108     1.0000 0.08440  0.90320  0.29910  Biso   1.000  H
  C170     1.0000 0.04700  0.56560  0.75380  Biso   1.000  C
  H109     1.0000 0.00940  0.57700  0.72970  Biso   1.000  H
  C171     1.0000 0.19990  0.10950  0.65420  Biso   1.000  C
  H110     1.0000 0.23650  0.11520  0.63230  Biso   1.000  H
  C172     1.0000 0.09460  0.06580  0.49820  Biso   1.000  C
  H111     1.0000 0.07180  0.04460  0.52210  Biso   1.000  H
  C173     1.0000 0.12600  0.03950  0.26860  Biso   1.000  C
  H112     1.0000 0.14380  0.09200  0.29370  Biso   1.000  H
  C174     1.0000 0.16590  0.12390  0.43020  Biso   1.000  C
  H113     1.0000 0.19100  0.14390  0.40670  Biso   1.000  H
  C175     1.0000 0.11780  0.98170  0.84450  Biso   1.000  C
  H114     1.0000 0.08910  0.98740  0.87670  Biso   1.000  H
  C176     1.0000 0.11600  0.99850  0.19210  Biso   1.000  C
  H115     1.0000 0.12020  0.02300  0.16490  Biso   1.000  H
  C177     1.0000 0.08580  0.88430  0.19670  Biso   1.000  C
  H116     1.0000 0.07200  0.83170  0.17340  Biso   1.000  H
  C178     1.0000 0.09950  0.91850  0.15670  Biso   1.000  C
  C179     1.0000 0.08560  0.69760  0.86450  Biso   1.000  C
  C180     1.0000 0.09240  0.87700  0.07930  Biso   1.000  C
