data_image0
_cell_length_a       19.612
_cell_length_b       20.64
_cell_length_c       21.567
_cell_angle_alpha    115.922
_cell_angle_beta     98.944
_cell_angle_gamma    100.421

_symmetry_space_group_name_H-M    "P 1"
_symmetry_int_tables_number       1

loop_
  _symmetry_equiv_pos_as_xyz
  'x, y, z'

loop_
  _atom_site_label
  _atom_site_occupancy
  _atom_site_fract_x
  _atom_site_fract_y
  _atom_site_fract_z
  _atom_site_thermal_displace_type
  _atom_site_B_iso_or_equiv
  _atom_site_type_symbol
  C1       1.0000 0.67850  0.28641  0.17239  Biso   1.000  C
  C2       1.0000 0.67183  0.36059  0.22258  Biso   1.000  C
  C3       1.0000 0.60432  0.37100  0.22630  Biso   1.000  C
  H1       1.0000 0.56340  0.33060  0.19930  Biso   1.000  H
  C4       1.0000 0.59758  0.44070  0.26960  Biso   1.000  C
  H2       1.0000 0.55210  0.44650  0.27270  Biso   1.000  H
  C5       1.0000 0.65733  0.50237  0.30878  Biso   1.000  C
  C6       1.0000 0.72426  0.49072  0.30599  Biso   1.000  C
  H3       1.0000 0.76510  0.53110  0.33310  Biso   1.000  H
  C7       1.0000 0.73208  0.42107  0.26420  Biso   1.000  C
  H4       1.0000 0.77780  0.41460  0.26390  Biso   1.000  H
  C8       1.0000 0.64936  0.57864  0.34980  Biso   1.000  C
  C9       1.0000 0.59780  0.59103  0.38910  Biso   1.000  C
  H5       1.0000 0.56960  0.55150  0.39190  Biso   1.000  H
  C10      1.0000 0.69020  0.63878  0.34726  Biso   1.000  C
  H6       1.0000 0.72480  0.63160  0.32190  Biso   1.000  H
  C11      1.0000 0.61503  0.10040  0.20089  Biso   1.000  C
  C12      1.0000 0.61891  0.05400  0.23731  Biso   1.000  C
  C13      1.0000 0.60940  0.97703  0.19917  Biso   1.000  C
  H7       1.0000 0.60290  0.95380  0.14990  Biso   1.000  H
  C14      1.0000 0.60969  0.93550  0.23434  Biso   1.000  C
  H8       1.0000 0.60270  0.88410  0.20780  Biso   1.000  H
  C15      1.0000 0.62003  0.96700  0.30845  Biso   1.000  C
  C16      1.0000 0.62861  0.04520  0.34615  Biso   1.000  C
  H9       1.0000 0.63450  0.06830  0.39530  Biso   1.000  H
  C17      1.0000 0.62842  0.08750  0.31175  Biso   1.000  C
  H10      1.0000 0.63460  0.13890  0.33790  Biso   1.000  H
  C18      1.0000 0.62060  0.92200  0.34500  Biso   1.000  C
  C19      1.0000 0.58590  0.84600  0.31060  Biso   1.000  C
  H11      1.0000 0.56260  0.82240  0.26210  Biso   1.000  H
  C20      1.0000 0.58470  0.80420  0.34600  Biso   1.000  C
  H12      1.0000 0.55980  0.75350  0.32130  Biso   1.000  H
  C21      1.0000 0.65560  0.95400  0.41650  Biso   1.000  C
  H13      1.0000 0.68010  0.00480  0.44180  Biso   1.000  H
  C22      1.0000 0.64884  0.07330  0.97359  Biso   1.000  C
  C23      1.0000 0.64188  0.02697  0.89521  Biso   1.000  C
  C24      1.0000 0.57593  0.99879  0.84651  Biso   1.000  C
  H14      1.0000 0.53540  0.00820  0.86200  Biso   1.000  H
  C25      1.0000 0.56978  0.95658  0.77461  Biso   1.000  C
  H15      1.0000 0.52490  0.93760  0.74200  Biso   1.000  H
  C26      1.0000 0.63012  0.94196  0.75007  Biso   1.000  C
  C27      1.0000 0.69594  0.97100  0.80041  Biso   1.000  C
  H16      1.0000 0.73680  0.96210  0.78520  Biso   1.000  H
  C28      1.0000 0.70234  0.01232  0.87157  Biso   1.000  C
  H17      1.0000 0.74710  0.03070  0.90440  Biso   1.000  H
  C29      1.0000 0.62333  0.89982  0.67211  Biso   1.000  C
  C30      1.0000 0.57610  0.90683  0.62191  Biso   1.000  C
  H18      1.0000 0.54510  0.93610  0.63700  Biso   1.000  H
  C31      1.0000 0.57380  0.87220  0.55130  Biso   1.000  C
  H19      1.0000 0.54260  0.87940  0.51940  Biso   1.000  H
  C32      1.0000 0.61770  0.82609  0.52650  Biso   1.000  C
  C33      1.0000 0.66440  0.81659  0.57542  Biso   1.000  C
  H20      1.0000 0.69410  0.78580  0.55980  Biso   1.000  H
  C34      1.0000 0.66680  0.85243  0.64650  Biso   1.000  C
  H21      1.0000 0.69800  0.84520  0.67850  Biso   1.000  H
  C35      1.0000 0.61980  0.83650  0.41750  Biso   1.000  C
  C36      1.0000 0.65440  0.91010  0.45120  Biso   1.000  C
  H22      1.0000 0.67840  0.93290  0.49940  Biso   1.000  H
  C37      1.0000 0.68090  0.70860  0.38107  Biso   1.000  C
  H23      1.0000 0.70870  0.74790  0.37770  Biso   1.000  H
  C38      1.0000 0.58920  0.66190  0.42360  Biso   1.000  C
  H24      1.0000 0.55510  0.66980  0.44950  Biso   1.000  H
  C39      1.0000 0.43710  0.07527  0.01469  Biso   1.000  C
  H25      1.0000 0.45340  0.04720  0.97580  Biso   1.000  H
  C40      1.0000 0.46082  0.16064  0.13517  Biso   1.000  C
  H26      1.0000 0.49350  0.19080  0.17980  Biso   1.000  H
  C41      1.0000 0.39140  0.15940  0.12840  Biso   1.000  C
  H27      1.0000 0.37670  0.18930  0.16770  Biso   1.000  H
  C42      1.0000 0.34127  0.11310  0.06220  Biso   1.000  C
  C43      1.0000 0.36515  0.07072  0.00510  Biso   1.000  C
  H28      1.0000 0.33290  0.03920  0.96040  Biso   1.000  H
  C44      1.0000 0.16620  0.13530  0.08690  Biso   1.000  C
  C45      1.0000 0.63080  0.72170  0.42018  Biso   1.000  C
  C46      1.0000 0.04520  0.09470  0.01690  Biso   1.000  C
  H29      1.0000 0.01040  0.06010  0.97480  Biso   1.000  H
  C47      1.0000 0.11560  0.08620  0.02630  Biso   1.000  C
  H30      1.0000 0.12660  0.04690  0.99070  Biso   1.000  H
  C48      1.0000 0.07710  0.19120  0.12770  Biso   1.000  C
  H31      1.0000 0.06440  0.22680  0.16520  Biso   1.000  H
  C49      1.0000 0.14510  0.18460  0.13970  Biso   1.000  C
  H32      1.0000 0.17710  0.21450  0.18480  Biso   1.000  H
  N1       1.0000 0.48480  0.11968  0.07940  Biso   1.000  N
  N2       1.0000 0.26440  0.10774  0.04831  Biso   1.000  N
  N3       1.0000 0.24204  0.13570  0.10070  Biso   1.000  N
  N4       1.0000 0.02750  0.14921  0.06484  Biso   1.000  N
  N5       1.0000 0.61740  0.79324  0.45268  Biso   1.000  N
  O1       1.0000 0.62091  0.23712  0.13162  Biso   1.000  O
  O2       1.0000 0.74063  0.27883  0.17156  Biso   1.000  O
  O3       1.0000 0.61709  0.06879  0.13482  Biso   1.000  O
  O4       1.0000 0.71076  0.09930  0.01619  Biso   1.000  O
  O5       1.0000 0.59171  0.08276  0.99123  Biso   1.000  O
  O6       1.0000 0.60778  0.16385  0.23185  Biso   1.000  O
  Zn1      1.0000 0.76475  0.20250  0.09087  Biso   1.000  Zn
  Zn2      1.0000 0.59183  0.12918  0.09238  Biso   1.000  Zn
  C50      1.0000 0.84987  0.11944  0.14100  Biso   1.000  C
  C51      1.0000 0.85138  0.07372  0.17857  Biso   1.000  C
  C52      1.0000 0.90360  0.03670  0.17750  Biso   1.000  C
  H33      1.0000 0.93770  0.03990  0.15270  Biso   1.000  H
  C53      1.0000 0.90560  0.99490  0.21280  Biso   1.000  C
  H34      1.0000 0.94160  0.97100  0.21170  Biso   1.000  H
  C54      1.0000 0.85603  0.98741  0.24968  Biso   1.000  C
  C55      1.0000 0.85761  0.94154  0.28549  Biso   1.000  C
  C56      1.0000 0.91370  0.91290  0.29330  Biso   1.000  C
  H35      1.0000 0.95170  0.92270  0.27480  Biso   1.000  H
  C57      1.0000 0.80180  0.92470  0.31500  Biso   1.000  C
  H36      1.0000 0.76240  0.94320  0.31140  Biso   1.000  H
  C58      1.0000 0.91380  0.29550  0.12490  Biso   1.000  C
  C59      1.0000 0.90564  0.37170  0.16490  Biso   1.000  C
  C60      1.0000 0.95410  0.42230  0.22860  Biso   1.000  C
  H37      1.0000 0.99180  0.40840  0.24670  Biso   1.000  H
  C61      1.0000 0.94770  0.49507  0.26730  Biso   1.000  C
  H38      1.0000 0.98110  0.52870  0.31080  Biso   1.000  H
  C62      1.0000 0.84480  0.46542  0.17710  Biso   1.000  C
  H39      1.0000 0.80710  0.47910  0.15870  Biso   1.000  H
  C63      1.0000 0.85140  0.39289  0.13892  Biso   1.000  C
  H40      1.0000 0.81830  0.35900  0.09540  Biso   1.000  H
  C64      1.0000 0.88607  0.59374  0.28320  Biso   1.000  C
  C65      1.0000 0.91087  0.63549  0.35649  Biso   1.000  C
  H41      1.0000 0.93310  0.61500  0.38190  Biso   1.000  H
  C66      1.0000 0.90450  0.11390  0.91670  Biso   1.000  C
  C67      1.0000 0.89590  0.06880  0.83860  Biso   1.000  C
  C68      1.0000 0.88597  0.99190  0.80729  Biso   1.000  C
  H42      1.0000 0.88270  0.96820  0.83520  Biso   1.000  H
  C69      1.0000 0.88089  0.95005  0.73598  Biso   1.000  C
  H43      1.0000 0.87480  0.89870  0.71680  Biso   1.000  H
  C70      1.0000 0.88453  0.98206  0.69226  Biso   1.000  C
  C71      1.0000 0.89320  0.05950  0.72330  Biso   1.000  C
  H44      1.0000 0.89450  0.08280  0.69500  Biso   1.000  H
  C72      1.0000 0.90000  0.10200  0.79600  Biso   1.000  C
  H45      1.0000 0.90740  0.15360  0.81590  Biso   1.000  H
  C73      1.0000 0.88044  0.93817  0.61614  Biso   1.000  C
  C74      1.0000 0.84865  0.86026  0.57781  Biso   1.000  C
  H46      1.0000 0.83050  0.83570  0.60160  Biso   1.000  H
  C75      1.0000 0.84345  0.81896  0.50593  Biso   1.000  C
  H47      1.0000 0.82120  0.76760  0.48200  Biso   1.000  H
  C76      1.0000 0.87106  0.85339  0.46928  Biso   1.000  C
  C77      1.0000 0.90310  0.93009  0.50575  Biso   1.000  C
  H48      1.0000 0.92250  0.95380  0.48190  Biso   1.000  H
  C78      1.0000 0.90640  0.97150  0.57680  Biso   1.000  C
  H49      1.0000 0.92650  0.02320  0.59960  Biso   1.000  H
  C79      1.0000 0.86080  0.85579  0.35601  Biso   1.000  C
  C80      1.0000 0.91660  0.86960  0.32780  Biso   1.000  C
  H50      1.0000 0.95550  0.85040  0.33170  Biso   1.000  H
  C81      1.0000 0.80390  0.88240  0.34820  Biso   1.000  C
  H51      1.0000 0.76560  0.87160  0.36600  Biso   1.000  H
  C82      1.0000 0.87130  0.73944  0.35839  Biso   1.000  C
  C83      1.0000 0.90375  0.70741  0.39380  Biso   1.000  C
  H52      1.0000 0.92120  0.73390  0.44330  Biso   1.000  H
  C84      1.0000 0.85260  0.62765  0.24796  Biso   1.000  C
  H53      1.0000 0.83450  0.60140  0.19850  Biso   1.000  H
  C85      1.0000 0.84610  0.69833  0.28493  Biso   1.000  C
  H54      1.0000 0.82410  0.71940  0.25990  Biso   1.000  H
  C86      1.0000 0.80183  0.06770  0.21480  Biso   1.000  C
  H55      1.0000 0.76650  0.09250  0.21620  Biso   1.000  H
  C87      1.0000 0.89370  0.51689  0.24191  Biso   1.000  C
  C88      1.0000 0.80350  0.02490  0.24980  Biso   1.000  C
  H56      1.0000 0.76870  0.02120  0.27390  Biso   1.000  H
  N6       1.0000 0.86406  0.81342  0.39400  Biso   1.000  N
  O7       1.0000 0.80912  0.16155  0.15241  Biso   1.000  O
  O8       1.0000 0.85997  0.24244  0.07711  Biso   1.000  O
  O9       1.0000 0.97289  0.28247  0.13449  Biso   1.000  O
  O10      1.0000 0.88535  0.08020  0.95058  Biso   1.000  O
  O11      1.0000 0.89068  0.11106  0.10019  Biso   1.000  O
  O12      1.0000 0.93198  0.18225  0.94797  Biso   1.000  O
  Zn3      1.0000 0.92633  0.16493  0.05037  Biso   1.000  Zn
  C89      1.0000 0.32150  0.71359  0.82761  Biso   1.000  C
  C90      1.0000 0.32817  0.63941  0.77742  Biso   1.000  C
  C91      1.0000 0.39568  0.62900  0.77370  Biso   1.000  C
  H57      1.0000 0.43660  0.66940  0.80070  Biso   1.000  H
  C92      1.0000 0.40242  0.55930  0.73040  Biso   1.000  C
  H58      1.0000 0.44790  0.55350  0.72730  Biso   1.000  H
  C93      1.0000 0.34267  0.49763  0.69122  Biso   1.000  C
  C94      1.0000 0.27574  0.50928  0.69401  Biso   1.000  C
  H59      1.0000 0.23490  0.46890  0.66690  Biso   1.000  H
  C95      1.0000 0.26792  0.57893  0.73580  Biso   1.000  C
  H60      1.0000 0.22220  0.58540  0.73610  Biso   1.000  H
  C96      1.0000 0.35064  0.42136  0.65020  Biso   1.000  C
  C97      1.0000 0.40220  0.40897  0.61090  Biso   1.000  C
  H61      1.0000 0.43040  0.44850  0.60810  Biso   1.000  H
  C98      1.0000 0.30980  0.36122  0.65274  Biso   1.000  C
  H62      1.0000 0.27520  0.36840  0.67810  Biso   1.000  H
  C99      1.0000 0.38497  0.89960  0.79911  Biso   1.000  C
  C100     1.0000 0.38109  0.94600  0.76269  Biso   1.000  C
  C101     1.0000 0.39060  0.02297  0.80083  Biso   1.000  C
  H63      1.0000 0.39710  0.04620  0.85010  Biso   1.000  H
  C102     1.0000 0.39031  0.06450  0.76566  Biso   1.000  C
  H64      1.0000 0.39730  0.11590  0.79220  Biso   1.000  H
  C103     1.0000 0.37997  0.03300  0.69155  Biso   1.000  C
  C104     1.0000 0.37139  0.95480  0.65385  Biso   1.000  C
  H65      1.0000 0.36550  0.93170  0.60470  Biso   1.000  H
  C105     1.0000 0.37158  0.91250  0.68825  Biso   1.000  C
  H66      1.0000 0.36540  0.86110  0.66210  Biso   1.000  H
  C106     1.0000 0.37940  0.07800  0.65500  Biso   1.000  C
  C107     1.0000 0.41410  0.15400  0.68940  Biso   1.000  C
  H67      1.0000 0.43740  0.17760  0.73790  Biso   1.000  H
  C108     1.0000 0.41530  0.19580  0.65400  Biso   1.000  C
  H68      1.0000 0.44020  0.24650  0.67870  Biso   1.000  H
  C109     1.0000 0.34440  0.04600  0.58350  Biso   1.000  C
  H69      1.0000 0.31990  0.99520  0.55820  Biso   1.000  H
  C110     1.0000 0.35116  0.92670  0.02641  Biso   1.000  C
  C111     1.0000 0.35812  0.97303  0.10479  Biso   1.000  C
  C112     1.0000 0.42407  0.00121  0.15349  Biso   1.000  C
  H70      1.0000 0.46460  0.99180  0.13800  Biso   1.000  H
  C113     1.0000 0.43022  0.04342  0.22539  Biso   1.000  C
  H71      1.0000 0.47510  0.06240  0.25800  Biso   1.000  H
  C114     1.0000 0.36988  0.05804  0.24993  Biso   1.000  C
  C115     1.0000 0.30406  0.02900  0.19959  Biso   1.000  C
  H72      1.0000 0.26320  0.03790  0.21480  Biso   1.000  H
  C116     1.0000 0.29766  0.98768  0.12843  Biso   1.000  C
  H73      1.0000 0.25290  0.96930  0.09560  Biso   1.000  H
  C117     1.0000 0.37667  0.10018  0.32789  Biso   1.000  C
  C118     1.0000 0.42390  0.09317  0.37809  Biso   1.000  C
  H74      1.0000 0.45490  0.06390  0.36300  Biso   1.000  H
  C119     1.0000 0.42620  0.12780  0.44870  Biso   1.000  C
  H75      1.0000 0.45740  0.12060  0.48060  Biso   1.000  H
  C120     1.0000 0.38230  0.17391  0.47350  Biso   1.000  C
  C121     1.0000 0.33560  0.18341  0.42458  Biso   1.000  C
  H76      1.0000 0.30590  0.21420  0.44020  Biso   1.000  H
  C122     1.0000 0.33320  0.14757  0.35350  Biso   1.000  C
  H77      1.0000 0.30200  0.15480  0.32150  Biso   1.000  H
  C123     1.0000 0.38020  0.16350  0.58250  Biso   1.000  C
  C124     1.0000 0.34560  0.08990  0.54880  Biso   1.000  C
  H78      1.0000 0.32160  0.06710  0.50060  Biso   1.000  H
  C125     1.0000 0.31910  0.29140  0.61893  Biso   1.000  C
  H79      1.0000 0.29130  0.25210  0.62230  Biso   1.000  H
  C126     1.0000 0.41080  0.33810  0.57640  Biso   1.000  C
  H80      1.0000 0.44490  0.33020  0.55050  Biso   1.000  H
  C127     1.0000 0.56290  0.92473  0.98531  Biso   1.000  C
  H81      1.0000 0.54660  0.95280  0.02420  Biso   1.000  H
  C128     1.0000 0.53918  0.83936  0.86483  Biso   1.000  C
  H82      1.0000 0.50650  0.80920  0.82020  Biso   1.000  H
  C129     1.0000 0.60860  0.84060  0.87160  Biso   1.000  C
  H83      1.0000 0.62330  0.81070  0.83230  Biso   1.000  H
  C130     1.0000 0.65873  0.88690  0.93780  Biso   1.000  C
  C131     1.0000 0.63485  0.92928  0.99490  Biso   1.000  C
  H84      1.0000 0.66710  0.96080  0.03960  Biso   1.000  H
  C132     1.0000 0.83380  0.86470  0.91310  Biso   1.000  C
  C133     1.0000 0.36920  0.27830  0.57982  Biso   1.000  C
  C134     1.0000 0.95480  0.90530  0.98310  Biso   1.000  C
  H85      1.0000 0.98960  0.93990  0.02520  Biso   1.000  H
  C135     1.0000 0.88440  0.91380  0.97370  Biso   1.000  C
  H86      1.0000 0.87340  0.95310  0.00930  Biso   1.000  H
  C136     1.0000 0.92290  0.80880  0.87230  Biso   1.000  C
  H87      1.0000 0.93560  0.77320  0.83480  Biso   1.000  H
  C137     1.0000 0.85490  0.81540  0.86030  Biso   1.000  C
  H88      1.0000 0.82290  0.78550  0.81520  Biso   1.000  H
  N7       1.0000 0.51520  0.88032  0.92060  Biso   1.000  N
  N8       1.0000 0.73560  0.89226  0.95169  Biso   1.000  N
  N9       1.0000 0.75796  0.86430  0.89930  Biso   1.000  N
  N10      1.0000 0.97250  0.85079  0.93516  Biso   1.000  N
  N11      1.0000 0.38260  0.20676  0.54732  Biso   1.000  N
  O13      1.0000 0.37909  0.76288  0.86838  Biso   1.000  O
  O14      1.0000 0.25937  0.72117  0.82844  Biso   1.000  O
  O15      1.0000 0.38291  0.93121  0.86518  Biso   1.000  O
  O16      1.0000 0.28924  0.90070  0.98381  Biso   1.000  O
  O17      1.0000 0.40829  0.91724  0.00877  Biso   1.000  O
  O18      1.0000 0.39222  0.83615  0.76815  Biso   1.000  O
  Zn4      1.0000 0.23525  0.79750  0.90913  Biso   1.000  Zn
  Zn5      1.0000 0.40817  0.87082  0.90762  Biso   1.000  Zn
  C138     1.0000 0.15013  0.88056  0.85900  Biso   1.000  C
  C139     1.0000 0.14862  0.92628  0.82143  Biso   1.000  C
  C140     1.0000 0.09640  0.96330  0.82250  Biso   1.000  C
  H89      1.0000 0.06230  0.96010  0.84730  Biso   1.000  H
  C141     1.0000 0.09440  0.00510  0.78720  Biso   1.000  C
  H90      1.0000 0.05840  0.02900  0.78830  Biso   1.000  H
  C142     1.0000 0.14397  0.01259  0.75032  Biso   1.000  C
  C143     1.0000 0.14239  0.05846  0.71451  Biso   1.000  C
  C144     1.0000 0.08630  0.08710  0.70670  Biso   1.000  C
  H91      1.0000 0.04830  0.07730  0.72520  Biso   1.000  H
  C145     1.0000 0.19820  0.07530  0.68500  Biso   1.000  C
  H92      1.0000 0.23760  0.05680  0.68860  Biso   1.000  H
  C146     1.0000 0.08620  0.70450  0.87510  Biso   1.000  C
  C147     1.0000 0.09436  0.62830  0.83510  Biso   1.000  C
  C148     1.0000 0.04590  0.57770  0.77140  Biso   1.000  C
  H93      1.0000 0.00820  0.59160  0.75330  Biso   1.000  H
  C149     1.0000 0.05230  0.50493  0.73270  Biso   1.000  C
  H94      1.0000 0.01890  0.47130  0.68920  Biso   1.000  H
  C150     1.0000 0.15520  0.53458  0.82290  Biso   1.000  C
  H95      1.0000 0.19290  0.52090  0.84130  Biso   1.000  H
  C151     1.0000 0.14860  0.60711  0.86108  Biso   1.000  C
  H96      1.0000 0.18170  0.64100  0.90460  Biso   1.000  H
  C152     1.0000 0.11393  0.40626  0.71680  Biso   1.000  C
  C153     1.0000 0.08913  0.36451  0.64351  Biso   1.000  C
  H97      1.0000 0.06690  0.38500  0.61810  Biso   1.000  H
  C154     1.0000 0.09550  0.88610  0.08330  Biso   1.000  C
  C155     1.0000 0.10410  0.93120  0.16140  Biso   1.000  C
  C156     1.0000 0.11403  0.00810  0.19271  Biso   1.000  C
  H98      1.0000 0.11730  0.03180  0.16480  Biso   1.000  H
  C157     1.0000 0.11911  0.04995  0.26402  Biso   1.000  C
  H99      1.0000 0.12520  0.10130  0.28320  Biso   1.000  H
  C158     1.0000 0.11547  0.01794  0.30774  Biso   1.000  C
  C159     1.0000 0.10680  0.94050  0.27670  Biso   1.000  C
  H100     1.0000 0.10550  0.91720  0.30500  Biso   1.000  H
  C160     1.0000 0.10000  0.89800  0.20400  Biso   1.000  C
  H101     1.0000 0.09260  0.84640  0.18410  Biso   1.000  H
  C161     1.0000 0.11956  0.06183  0.38386  Biso   1.000  C
  C162     1.0000 0.15135  0.13974  0.42219  Biso   1.000  C
  H102     1.0000 0.16950  0.16430  0.39840  Biso   1.000  H
  C163     1.0000 0.15655  0.18104  0.49407  Biso   1.000  C
  H103     1.0000 0.17880  0.23240  0.51800  Biso   1.000  H
  C164     1.0000 0.12894  0.14661  0.53072  Biso   1.000  C
  C165     1.0000 0.09690  0.06991  0.49425  Biso   1.000  C
  H104     1.0000 0.07750  0.04620  0.51810  Biso   1.000  H
  C166     1.0000 0.09360  0.02850  0.42320  Biso   1.000  C
  H105     1.0000 0.07350  0.97680  0.40040  Biso   1.000  H
  C167     1.0000 0.13920  0.14421  0.64399  Biso   1.000  C
  C168     1.0000 0.08340  0.13040  0.67220  Biso   1.000  C
  H106     1.0000 0.04450  0.14960  0.66830  Biso   1.000  H
  C169     1.0000 0.19610  0.11760  0.65180  Biso   1.000  C
  H107     1.0000 0.23440  0.12840  0.63400  Biso   1.000  H
  C170     1.0000 0.12870  0.26056  0.64161  Biso   1.000  C
  C171     1.0000 0.09625  0.29259  0.60620  Biso   1.000  C
  H108     1.0000 0.07880  0.26610  0.55670  Biso   1.000  H
  C172     1.0000 0.14740  0.37235  0.75204  Biso   1.000  C
  H109     1.0000 0.16550  0.39860  0.80150  Biso   1.000  H
  C173     1.0000 0.15390  0.30167  0.71507  Biso   1.000  C
  H110     1.0000 0.17590  0.28060  0.74010  Biso   1.000  H
  C174     1.0000 0.19817  0.93230  0.78520  Biso   1.000  C
  H111     1.0000 0.23350  0.90750  0.78380  Biso   1.000  H
  C175     1.0000 0.10630  0.48311  0.75809  Biso   1.000  C
  C176     1.0000 0.19650  0.97510  0.75020  Biso   1.000  C
  H112     1.0000 0.23130  0.97880  0.72610  Biso   1.000  H
  N12      1.0000 0.13594  0.18658  0.60600  Biso   1.000  N
  O19      1.0000 0.19088  0.83845  0.84759  Biso   1.000  O
  O20      1.0000 0.14003  0.75756  0.92289  Biso   1.000  O
  O21      1.0000 0.02711  0.71753  0.86551  Biso   1.000  O
  O22      1.0000 0.11465  0.91980  0.04942  Biso   1.000  O
  O23      1.0000 0.10932  0.88894  0.89981  Biso   1.000  O
  O24      1.0000 0.06802  0.81775  0.05203  Biso   1.000  O
  Zn6      1.0000 0.07367  0.83507  0.94963  Biso   1.000  Zn
