data_image0
_cell_length_a       17.898
_cell_length_b       20.275
_cell_length_c       21.796
_cell_angle_alpha    63.375
_cell_angle_beta     76.644
_cell_angle_gamma    84.876

_symmetry_space_group_name_H-M    "P 1"
_symmetry_int_tables_number       1

loop_
  _symmetry_equiv_pos_as_xyz
  'x, y, z'

loop_
  _atom_site_label
  _atom_site_occupancy
  _atom_site_fract_x
  _atom_site_fract_y
  _atom_site_fract_z
  _atom_site_thermal_displace_type
  _atom_site_B_iso_or_equiv
  _atom_site_type_symbol
  C1       1.0000 0.05389  0.04147  0.13588  Biso   1.000  C
  H1       1.0000 0.01900  0.03190  0.17790  Biso   1.000  H
  C2       1.0000 0.28900  0.10830  0.09663  Biso   1.000  C
  H2       1.0000 0.25260  0.12980  0.11980  Biso   1.000  H
  C3       1.0000 0.12948  0.04770  0.13302  Biso   1.000  C
  H3       1.0000 0.14570  0.04360  0.17220  Biso   1.000  H
  C4       1.0000 0.36518  0.11572  0.09228  Biso   1.000  C
  H4       1.0000 0.37980  0.14250  0.11290  Biso   1.000  H
  C5       1.0000 0.64044  0.51039  0.35980  Biso   1.000  C
  C6       1.0000 0.63842  0.66392  0.28570  Biso   1.000  C
  C7       1.0000 0.18319  0.06023  0.07063  Biso   1.000  C
  C8       1.0000 0.62591  0.98126  0.13296  Biso   1.000  C
  C9       1.0000 0.63704  0.74498  0.24576  Biso   1.000  C
  C10      1.0000 0.56752  0.19048  0.91883  Biso   1.000  C
  C11      1.0000 0.63843  0.39777  0.46994  Biso   1.000  C
  C12      1.0000 0.32099  0.03625  0.03429  Biso   1.000  C
  H5       1.0000 0.30770  0.00790  0.01460  Biso   1.000  H
  C13      1.0000 0.07842  0.05959  0.02071  Biso   1.000  C
  H6       1.0000 0.06050  0.06340  0.98250  Biso   1.000  H
  C14      1.0000 0.60050  0.28084  0.23777  Biso   1.000  C
  C15      1.0000 0.58248  0.21066  0.15701  Biso   1.000  C
  C16      1.0000 0.87774  0.91781  0.19482  Biso   1.000  C
  C17      1.0000 0.67923  0.86694  0.21774  Biso   1.000  C
  H7       1.0000 0.71020  0.89670  0.22420  Biso   1.000  H
  C18      1.0000 0.61949  0.29651  0.69283  Biso   1.000  C
  C19      1.0000 0.88056  0.24966  0.66894  Biso   1.000  C
  C20      1.0000 0.57373  0.17334  0.11380  Biso   1.000  C
  C21      1.0000 0.26569  0.06799  0.06615  Biso   1.000  C
  C22      1.0000 0.88441  0.79145  0.20063  Biso   1.000  C
  H8       1.0000 0.88640  0.81240  0.15260  Biso   1.000  H
  C23      1.0000 0.63099  0.39095  0.36007  Biso   1.000  C
  C24      1.0000 0.63120  0.89939  0.17118  Biso   1.000  C
  C25      1.0000 0.15627  0.06547  0.01370  Biso   1.000  C
  H9       1.0000 0.19020  0.07280  0.97170  Biso   1.000  H
  C26      1.0000 0.61092  0.31856  0.28023  Biso   1.000  C
  C27      1.0000 0.82779  0.12840  0.16112  Biso   1.000  C
  C28      1.0000 0.60036  0.18531  0.80310  Biso   1.000  C
  H10      1.0000 0.59870  0.13410  0.82710  Biso   1.000  H
  C29      1.0000 0.84382  0.09979  0.96949  Biso   1.000  C
  C30      1.0000 0.65974  0.29559  0.57560  Biso   1.000  C
  H11      1.0000 0.67670  0.24770  0.59790  Biso   1.000  H
  C31      1.0000 0.68226  0.79131  0.25486  Biso   1.000  C
  H12      1.0000 0.71470  0.77090  0.28630  Biso   1.000  H
  C32      1.0000 0.57703  0.62052  0.29693  Biso   1.000  C
  H13      1.0000 0.53430  0.64310  0.27880  Biso   1.000  H
  C33      1.0000 0.59020  0.22786  0.84020  Biso   1.000  C
  C34      1.0000 0.57674  0.54413  0.33436  Biso   1.000  C
  H14      1.0000 0.53400  0.51620  0.34210  Biso   1.000  H
  C35      1.0000 0.66495  0.32701  0.50401  Biso   1.000  C
  H15      1.0000 0.68620  0.30080  0.47860  Biso   1.000  H
  C36      1.0000 0.59018  0.77810  0.19739  Biso   1.000  C
  H16      1.0000 0.56110  0.74870  0.18880  Biso   1.000  H
  C37      1.0000 0.87412  0.83624  0.23475  Biso   1.000  C
  C38      1.0000 0.39671  0.04658  0.03154  Biso   1.000  C
  H17      1.0000 0.43380  0.02500  0.00900  Biso   1.000  H
  C39      1.0000 0.92404  0.15126  0.84891  Biso   1.000  C
  H18      1.0000 0.96710  0.13800  0.86870  Biso   1.000  H
  C40      1.0000 0.89552  0.60288  0.34683  Biso   1.000  C
  C41      1.0000 0.58438  0.28770  0.35247  Biso   1.000  C
  H19      1.0000 0.55980  0.24180  0.37520  Biso   1.000  H
  C42      1.0000 0.88616  0.68240  0.30905  Biso   1.000  C
  C43      1.0000 0.83870  0.15548  0.21152  Biso   1.000  C
  C44      1.0000 0.60968  0.43732  0.50869  Biso   1.000  C
  H20      1.0000 0.59240  0.48510  0.48650  Biso   1.000  H
  C45      1.0000 0.90041  0.32897  0.52359  Biso   1.000  C
  C46      1.0000 0.86013  0.21641  0.29853  Biso   1.000  C
  C47      1.0000 0.64443  0.25873  0.13477  Biso   1.000  C
  H21      1.0000 0.67980  0.26760  0.09310  Biso   1.000  H
  C48      1.0000 0.65891  0.42221  0.28741  Biso   1.000  C
  H22      1.0000 0.68450  0.46760  0.26490  Biso   1.000  H
  C49      1.0000 0.70301  0.55166  0.34950  Biso   1.000  C
  H23      1.0000 0.74600  0.52880  0.36690  Biso   1.000  H
  C50      1.0000 0.61284  0.21976  0.73101  Biso   1.000  C
  H24      1.0000 0.61700  0.19120  0.70690  Biso   1.000  H
  C51      1.0000 0.85264  0.13298  0.89150  Biso   1.000  C
  C52      1.0000 0.60701  0.40511  0.58018  Biso   1.000  C
  H25      1.0000 0.58930  0.43260  0.60500  Biso   1.000  H
  C53      1.0000 0.59631  0.30411  0.80370  Biso   1.000  C
  H26      1.0000 0.58900  0.33260  0.82820  Biso   1.000  H
  C54      1.0000 0.62969  0.33358  0.61580  Biso   1.000  C
  C55      1.0000 0.79790  0.18579  0.78985  Biso   1.000  C
  H27      1.0000 0.75490  0.19640  0.77000  Biso   1.000  H
  C56      1.0000 0.58628  0.85353  0.16222  Biso   1.000  C
  H28      1.0000 0.55280  0.87420  0.13180  Biso   1.000  H
  C57      1.0000 0.54031  0.23326  0.25841  Biso   1.000  C
  H29      1.0000 0.50490  0.22420  0.30010  Biso   1.000  H
  C58      1.0000 0.59329  0.32313  0.39161  Biso   1.000  C
  H30      1.0000 0.57370  0.30120  0.43990  Biso   1.000  H
  C59      1.0000 0.83807  0.35094  0.37685  Biso   1.000  C
  H31      1.0000 0.80650  0.39000  0.37680  Biso   1.000  H
  C60      1.0000 0.87131  0.72764  0.34416  Biso   1.000  C
  H32      1.0000 0.86520  0.70620  0.39270  Biso   1.000  H
  C61      1.0000 0.78837  0.14922  0.86189  Biso   1.000  C
  H33      1.0000 0.73950  0.13560  0.89040  Biso   1.000  H
  C62      1.0000 0.70125  0.62704  0.31330  Biso   1.000  C
  H34      1.0000 0.74360  0.65460  0.30690  Biso   1.000  H
  C63      1.0000 0.86955  0.20696  0.74658  Biso   1.000  C
  C64      1.0000 0.64912  0.38679  0.24867  Biso   1.000  C
  H35      1.0000 0.66840  0.40880  0.20040  Biso   1.000  H
  C65      1.0000 0.78600  0.20145  0.29698  Biso   1.000  C
  H36      1.0000 0.74360  0.21220  0.32470  Biso   1.000  H
  C66      1.0000 0.53050  0.19775  0.21859  Biso   1.000  C
  H37      1.0000 0.48900  0.16560  0.23370  Biso   1.000  H
  C67      1.0000 0.83957  0.23097  0.63191  Biso   1.000  C
  H38      1.0000 0.80490  0.19140  0.65590  Biso   1.000  H
  C68      1.0000 0.89164  0.71713  0.23671  Biso   1.000  C
  H39      1.0000 0.90050  0.68870  0.21220  Biso   1.000  H
  C69      1.0000 0.61311  0.33780  0.73134  Biso   1.000  C
  H40      1.0000 0.62040  0.38870  0.70740  Biso   1.000  H
  C70      1.0000 0.77560  0.17058  0.25398  Biso   1.000  C
  H41      1.0000 0.72630  0.16000  0.25360  Biso   1.000  H
  C71      1.0000 0.65306  0.29353  0.17554  Biso   1.000  C
  H42      1.0000 0.69450  0.32560  0.16080  Biso   1.000  H
  C72      1.0000 0.89810  0.33197  0.41164  Biso   1.000  C
  C73      1.0000 0.93318  0.18925  0.77678  Biso   1.000  C
  H43      1.0000 0.98210  0.20300  0.74850  Biso   1.000  H
  C74      1.0000 0.86564  0.80299  0.30775  Biso   1.000  C
  H44      1.0000 0.85610  0.83190  0.33180  Biso   1.000  H
  C75      1.0000 0.94170  0.34884  0.56003  Biso   1.000  C
  H45      1.0000 0.97600  0.38870  0.53580  Biso   1.000  H
  C76      1.0000 0.87175  0.25490  0.33980  Biso   1.000  C
  C77      1.0000 0.84974  0.27046  0.55970  Biso   1.000  C
  H46      1.0000 0.82200  0.25720  0.53560  Biso   1.000  H
  C78      1.0000 0.93600  0.56180  0.31333  Biso   1.000  C
  H47      1.0000 0.95950  0.58620  0.26600  Biso   1.000  H
  C79      1.0000 0.94210  0.48746  0.34726  Biso   1.000  C
  H48      1.0000 0.97070  0.46260  0.32290  Biso   1.000  H
  C80      1.0000 0.82525  0.31154  0.34208  Biso   1.000  C
  H49      1.0000 0.78410  0.32390  0.31980  Biso   1.000  H
  C81      1.0000 0.90688  0.44749  0.41742  Biso   1.000  C
  C82      1.0000 0.93148  0.30939  0.63184  Biso   1.000  C
  H50      1.0000 0.95910  0.32290  0.65590  Biso   1.000  H
  C83      1.0000 0.91197  0.16739  0.21507  Biso   1.000  C
  H51      1.0000 0.95420  0.15480  0.18870  Biso   1.000  H
  C84      1.0000 0.92269  0.19820  0.25797  Biso   1.000  C
  H52      1.0000 0.97220  0.20670  0.25960  Biso   1.000  H
  C85      1.0000 0.86270  0.56271  0.41768  Biso   1.000  C
  H53      1.0000 0.83620  0.58760  0.44280  Biso   1.000  H
  C86      1.0000 0.86830  0.48689  0.45179  Biso   1.000  C
  H54      1.0000 0.84530  0.46200  0.49920  Biso   1.000  H
  C87      1.0000 0.94420  0.27380  0.41110  Biso   1.000  C
  H55      1.0000 0.98400  0.25990  0.43510  Biso   1.000  H
  C88      1.0000 0.93160  0.23650  0.37537  Biso   1.000  C
  H56      1.0000 0.96360  0.19800  0.37480  Biso   1.000  H
  N1       1.0000 0.42019  0.08577  0.05923  Biso   1.000  N
  N2       1.0000 0.02708  0.04860  0.08035  Biso   1.000  N
  N3       1.0000 0.64114  0.43092  0.39691  Biso   1.000  N
  N4       1.0000 0.91093  0.37028  0.44928  Biso   1.000  N
  O1       1.0000 0.76140  0.11601  0.16006  Biso   1.000  O
  O2       1.0000 0.90553  0.09053  0.99080  Biso   1.000  O
  O3       1.0000 0.57558  0.00604  0.09729  Biso   1.000  O
  O4       1.0000 0.77831  0.08351  0.00812  Biso   1.000  O
  O5       1.0000 0.67226  0.01884  0.14096  Biso   1.000  O
  O6       1.0000 0.62870  0.17091  0.06709  Biso   1.000  O
  O7       1.0000 0.87902  0.94418  0.12873  Biso   1.000  O
  O8       1.0000 0.50999  0.14549  0.12334  Biso   1.000  O
  O9       1.0000 0.57841  0.12253  0.95049  Biso   1.000  O
  O10      1.0000 0.88740  0.12174  0.12111  Biso   1.000  O
  O11      1.0000 0.88394  0.95708  0.22328  Biso   1.000  O
  O12      1.0000 0.53913  0.22803  0.95106  Biso   1.000  O
  Zn1      1.0000 0.53496  0.10612  0.04959  Biso   1.000  Zn
  Zn2      1.0000 0.72771  0.11702  0.08063  Biso   1.000  Zn
  Zn3      1.0000 0.91141  0.04580  0.08897  Biso   1.000  Zn
  C89      1.0000 0.94611  0.95853  0.86412  Biso   1.000  C
  H57      1.0000 0.98100  0.96810  0.82210  Biso   1.000  H
  C90      1.0000 0.71100  0.89170  0.90337  Biso   1.000  C
  H58      1.0000 0.74740  0.87020  0.88020  Biso   1.000  H
  C91      1.0000 0.87052  0.95230  0.86698  Biso   1.000  C
  H59      1.0000 0.85430  0.95640  0.82780  Biso   1.000  H
  C92      1.0000 0.63482  0.88428  0.90772  Biso   1.000  C
  H60      1.0000 0.62020  0.85750  0.88710  Biso   1.000  H
  C93      1.0000 0.35956  0.48961  0.64020  Biso   1.000  C
  C94      1.0000 0.36158  0.33608  0.71430  Biso   1.000  C
  C95      1.0000 0.81681  0.93977  0.92937  Biso   1.000  C
  C96      1.0000 0.37409  0.01874  0.86704  Biso   1.000  C
  C97      1.0000 0.36296  0.25502  0.75424  Biso   1.000  C
  C98      1.0000 0.43248  0.80952  0.08117  Biso   1.000  C
  C99      1.0000 0.36157  0.60223  0.53006  Biso   1.000  C
  C100     1.0000 0.67901  0.96375  0.96571  Biso   1.000  C
  H61      1.0000 0.69230  0.99210  0.98540  Biso   1.000  H
  C101     1.0000 0.92158  0.94041  0.97929  Biso   1.000  C
  H62      1.0000 0.93950  0.93660  0.01750  Biso   1.000  H
  C102     1.0000 0.39950  0.71916  0.76223  Biso   1.000  C
  C103     1.0000 0.41752  0.78934  0.84299  Biso   1.000  C
  C104     1.0000 0.12226  0.08219  0.80518  Biso   1.000  C
  C105     1.0000 0.32077  0.13306  0.78226  Biso   1.000  C
  H63      1.0000 0.28980  0.10330  0.77580  Biso   1.000  H
  C106     1.0000 0.38051  0.70349  0.30717  Biso   1.000  C
  C107     1.0000 0.11944  0.75034  0.33106  Biso   1.000  C
  C108     1.0000 0.42627  0.82666  0.88620  Biso   1.000  C
  C109     1.0000 0.73431  0.93201  0.93385  Biso   1.000  C
  C110     1.0000 0.11559  0.20855  0.79937  Biso   1.000  C
  H64      1.0000 0.11360  0.18760  0.84740  Biso   1.000  H
  C111     1.0000 0.36901  0.60905  0.63993  Biso   1.000  C
  C112     1.0000 0.36880  0.10061  0.82882  Biso   1.000  C
  C113     1.0000 0.84373  0.93453  0.98630  Biso   1.000  C
  H65      1.0000 0.80980  0.92720  0.02830  Biso   1.000  H
  C114     1.0000 0.38908  0.68144  0.71977  Biso   1.000  C
  C115     1.0000 0.17221  0.87160  0.83888  Biso   1.000  C
  C116     1.0000 0.39964  0.81469  0.19690  Biso   1.000  C
  H66      1.0000 0.40130  0.86590  0.17290  Biso   1.000  H
  C117     1.0000 0.15618  0.90021  0.03051  Biso   1.000  C
  C118     1.0000 0.34026  0.70441  0.42440  Biso   1.000  C
  H67      1.0000 0.32330  0.75230  0.40210  Biso   1.000  H
  C119     1.0000 0.31774  0.20869  0.74514  Biso   1.000  C
  H68      1.0000 0.28530  0.22910  0.71370  Biso   1.000  H
  C120     1.0000 0.42297  0.37948  0.70307  Biso   1.000  C
  H69      1.0000 0.46570  0.35690  0.72120  Biso   1.000  H
  C121     1.0000 0.40980  0.77214  0.15980  Biso   1.000  C
  C122     1.0000 0.42326  0.45587  0.66564  Biso   1.000  C
  H70      1.0000 0.46600  0.48380  0.65790  Biso   1.000  H
  C123     1.0000 0.33505  0.67299  0.49599  Biso   1.000  C
  H71      1.0000 0.31380  0.69920  0.52140  Biso   1.000  H
  C124     1.0000 0.40982  0.22190  0.80261  Biso   1.000  C
  H72      1.0000 0.43890  0.25130  0.81120  Biso   1.000  H
  C125     1.0000 0.12588  0.16376  0.76525  Biso   1.000  C
  C126     1.0000 0.60329  0.95342  0.96846  Biso   1.000  C
  H73      1.0000 0.56620  0.97500  0.99100  Biso   1.000  H
  C127     1.0000 0.07596  0.84874  0.15109  Biso   1.000  C
  H74      1.0000 0.03290  0.86200  0.13130  Biso   1.000  H
  C128     1.0000 0.10448  0.39712  0.65317  Biso   1.000  C
  C129     1.0000 0.41562  0.71230  0.64753  Biso   1.000  C
  H75      1.0000 0.44020  0.75820  0.62480  Biso   1.000  H
  C130     1.0000 0.11384  0.31760  0.69095  Biso   1.000  C
  C131     1.0000 0.16130  0.84452  0.78848  Biso   1.000  C
  C132     1.0000 0.39032  0.56268  0.49131  Biso   1.000  C
  H76      1.0000 0.40760  0.51490  0.51350  Biso   1.000  H
  C133     1.0000 0.09959  0.67103  0.47641  Biso   1.000  C
  C134     1.0000 0.13987  0.78359  0.70147  Biso   1.000  C
  C135     1.0000 0.35557  0.74127  0.86523  Biso   1.000  C
  H77      1.0000 0.32020  0.73240  0.90690  Biso   1.000  H
  C136     1.0000 0.34109  0.57779  0.71259  Biso   1.000  C
  H78      1.0000 0.31550  0.53240  0.73510  Biso   1.000  H
  C137     1.0000 0.29699  0.44834  0.65050  Biso   1.000  C
  H79      1.0000 0.25400  0.47120  0.63310  Biso   1.000  H
  C138     1.0000 0.38716  0.78024  0.26899  Biso   1.000  C
  H80      1.0000 0.38300  0.80880  0.29310  Biso   1.000  H
  C139     1.0000 0.14736  0.86702  0.10850  Biso   1.000  C
  C140     1.0000 0.39299  0.59489  0.41982  Biso   1.000  C
  H81      1.0000 0.41070  0.56740  0.39500  Biso   1.000  H
  C141     1.0000 0.40369  0.69589  0.19630  Biso   1.000  C
  H82      1.0000 0.41100  0.66740  0.17180  Biso   1.000  H
  C142     1.0000 0.37031  0.66642  0.38420  Biso   1.000  C
  C143     1.0000 0.20210  0.81421  0.21015  Biso   1.000  C
  H83      1.0000 0.24510  0.80360  0.23000  Biso   1.000  H
  C144     1.0000 0.41372  0.14647  0.83778  Biso   1.000  C
  H84      1.0000 0.44720  0.12580  0.86820  Biso   1.000  H
  C145     1.0000 0.45969  0.76674  0.74159  Biso   1.000  C
  H85      1.0000 0.49510  0.77580  0.69990  Biso   1.000  H
  C146     1.0000 0.40671  0.67687  0.60839  Biso   1.000  C
  H86      1.0000 0.42630  0.69880  0.56010  Biso   1.000  H
  C147     1.0000 0.16193  0.64906  0.62315  Biso   1.000  C
  H87      1.0000 0.19350  0.61000  0.62320  Biso   1.000  H
  C148     1.0000 0.12869  0.27236  0.65584  Biso   1.000  C
  H88      1.0000 0.13480  0.29380  0.60730  Biso   1.000  H
  C149     1.0000 0.21163  0.85078  0.13811  Biso   1.000  C
  H89      1.0000 0.26050  0.86440  0.10960  Biso   1.000  H
  C150     1.0000 0.29875  0.37296  0.68670  Biso   1.000  C
  H90      1.0000 0.25640  0.34540  0.69310  Biso   1.000  H
  C151     1.0000 0.13045  0.79304  0.25342  Biso   1.000  C
  C152     1.0000 0.35088  0.61321  0.75133  Biso   1.000  C
  H91      1.0000 0.33160  0.59120  0.79960  Biso   1.000  H
  C153     1.0000 0.21400  0.79855  0.70302  Biso   1.000  C
  H92      1.0000 0.25640  0.78780  0.67530  Biso   1.000  H
  C154     1.0000 0.46950  0.80225  0.78141  Biso   1.000  C
  H93      1.0000 0.51100  0.83440  0.76630  Biso   1.000  H
  C155     1.0000 0.16043  0.76903  0.36809  Biso   1.000  C
  H94      1.0000 0.19510  0.80860  0.34410  Biso   1.000  H
  C156     1.0000 0.10836  0.28287  0.76329  Biso   1.000  C
  H95      1.0000 0.09950  0.31130  0.78780  Biso   1.000  H
  C157     1.0000 0.38689  0.66220  0.26866  Biso   1.000  C
  H96      1.0000 0.37960  0.61130  0.29260  Biso   1.000  H
  C158     1.0000 0.22440  0.82942  0.74602  Biso   1.000  C
  H97      1.0000 0.27370  0.84000  0.74640  Biso   1.000  H
  C159     1.0000 0.34694  0.70647  0.82446  Biso   1.000  C
  H98      1.0000 0.30550  0.67440  0.83920  Biso   1.000  H
  C160     1.0000 0.10190  0.66803  0.58836  Biso   1.000  C
  C161     1.0000 0.06682  0.81075  0.22322  Biso   1.000  C
  H99      1.0000 0.01790  0.79700  0.25150  Biso   1.000  H
  C162     1.0000 0.13436  0.19701  0.69225  Biso   1.000  C
  H100     1.0000 0.14390  0.16810  0.66820  Biso   1.000  H
  C163     1.0000 0.05830  0.65116  0.43997  Biso   1.000  C
  H101     1.0000 0.02400  0.61130  0.46420  Biso   1.000  H
  C164     1.0000 0.12825  0.74510  0.66020  Biso   1.000  C
  C165     1.0000 0.15026  0.72954  0.44030  Biso   1.000  C
  H102     1.0000 0.17800  0.74280  0.46440  Biso   1.000  H
  C166     1.0000 0.06400  0.43820  0.68667  Biso   1.000  C
  H103     1.0000 0.04050  0.41380  0.73400  Biso   1.000  H
  C167     1.0000 0.05790  0.51254  0.65274  Biso   1.000  C
  H104     1.0000 0.02930  0.53740  0.67710  Biso   1.000  H
  C168     1.0000 0.17475  0.68846  0.65792  Biso   1.000  C
  H105     1.0000 0.21590  0.67610  0.68020  Biso   1.000  H
  C169     1.0000 0.09312  0.55251  0.58258  Biso   1.000  C
  C170     1.0000 0.06852  0.69061  0.36816  Biso   1.000  C
  H106     1.0000 0.04090  0.67710  0.34410  Biso   1.000  H
  C171     1.0000 0.08803  0.83261  0.78493  Biso   1.000  C
  H107     1.0000 0.04580  0.84520  0.81130  Biso   1.000  H
  C172     1.0000 0.07731  0.80180  0.74203  Biso   1.000  C
  H108     1.0000 0.02780  0.79330  0.74040  Biso   1.000  H
  C173     1.0000 0.13730  0.43729  0.58232  Biso   1.000  C
  H109     1.0000 0.16380  0.41240  0.55720  Biso   1.000  H
  C174     1.0000 0.13170  0.51311  0.54821  Biso   1.000  C
  H110     1.0000 0.15470  0.53800  0.50080  Biso   1.000  H
  C175     1.0000 0.05580  0.72620  0.58890  Biso   1.000  C
  H111     1.0000 0.01600  0.74010  0.56490  Biso   1.000  H
  C176     1.0000 0.06840  0.76350  0.62463  Biso   1.000  C
  H112     1.0000 0.03640  0.80200  0.62520  Biso   1.000  H
  N5       1.0000 0.57981  0.91423  0.94077  Biso   1.000  N
  N6       1.0000 0.97292  0.95140  0.91965  Biso   1.000  N
  N7       1.0000 0.35886  0.56908  0.60309  Biso   1.000  N
  N8       1.0000 0.08907  0.62972  0.55072  Biso   1.000  N
  O13      1.0000 0.23860  0.88399  0.83994  Biso   1.000  O
  O14      1.0000 0.09447  0.90947  0.00920  Biso   1.000  O
  O15      1.0000 0.42442  0.99396  0.90271  Biso   1.000  O
  O16      1.0000 0.22169  0.91649  0.99188  Biso   1.000  O
  O17      1.0000 0.32774  0.98116  0.85904  Biso   1.000  O
  O18      1.0000 0.37130  0.82909  0.93291  Biso   1.000  O
  O19      1.0000 0.12098  0.05582  0.87127  Biso   1.000  O
  O20      1.0000 0.49001  0.85451  0.87666  Biso   1.000  O
  O21      1.0000 0.42159  0.87747  0.04951  Biso   1.000  O
  O22      1.0000 0.11260  0.87826  0.87889  Biso   1.000  O
  O23      1.0000 0.11606  0.04292  0.77672  Biso   1.000  O
  O24      1.0000 0.46087  0.77197  0.04894  Biso   1.000  O
  Zn4      1.0000 0.46504  0.89388  0.95041  Biso   1.000  Zn
  Zn5      1.0000 0.27229  0.88298  0.91937  Biso   1.000  Zn
  Zn6      1.0000 0.08859  0.95420  0.91103  Biso   1.000  Zn
