data_image0
_cell_length_a       15.4115
_cell_length_b       19.185
_cell_length_c       25.471
_cell_angle_alpha    90
_cell_angle_beta     90
_cell_angle_gamma    90

_symmetry_space_group_name_H-M    "P 1"
_symmetry_int_tables_number       1

loop_
  _symmetry_equiv_pos_as_xyz
  'x, y, z'

loop_
  _atom_site_label
  _atom_site_occupancy
  _atom_site_fract_x
  _atom_site_fract_y
  _atom_site_fract_z
  _atom_site_thermal_displace_type
  _atom_site_B_iso_or_equiv
  _atom_site_type_symbol
  Zn1      1.0000 0.93733  0.16212  0.23122  Biso   1.000  Zn
  Zn2      1.0000 0.97166  0.03581  0.45095  Biso   1.000  Zn
  N1       1.0000 0.92450  0.13090  0.30655  Biso   1.000  N
  N2       1.0000 0.86500  0.16530  0.33750  Biso   1.000  N
  N3       1.0000 0.92820  0.08480  0.38542  Biso   1.000  N
  N4       1.0000 0.05050  0.21370  0.21981  Biso   1.000  N
  H1       1.0000 0.02770  0.28880  0.72930  Biso   1.000  H
  N5       1.0000 0.95530  0.91320  0.02700  Biso   1.000  N
  H2       1.0000 0.00640  0.91120  0.04050  Biso   1.000  H
  H3       1.0000 0.94300  0.88830  0.99990  Biso   1.000  H
  O1       1.0000 0.98610  0.12080  0.49941  Biso   1.000  O
  O2       1.0000 0.02360  0.06570  0.57236  Biso   1.000  O
  O3       1.0000 0.60180  0.03990  0.06167  Biso   1.000  O
  O4       1.0000 0.64240  0.98340  0.98978  Biso   1.000  O
  O5       1.0000 0.83420  0.11490  0.18610  Biso   1.000  O
  O6       1.0000 0.95770  0.07760  0.18040  Biso   1.000  O
  C1       1.0000 0.02810  0.03360  0.31850  Biso   1.000  C
  H4       1.0000 0.08410  0.05470  0.32290  Biso   1.000  H
  H5       1.0000 0.01910  0.02290  0.28210  Biso   1.000  H
  H6       1.0000 0.02520  0.99150  0.33880  Biso   1.000  H
  C2       1.0000 0.96030  0.08240  0.33648  Biso   1.000  C
  C3       1.0000 0.86910  0.13580  0.38382  Biso   1.000  C
  C4       1.0000 0.81230  0.15720  0.42830  Biso   1.000  C
  H7       1.0000 0.76250  0.18150  0.41490  Biso   1.000  H
  H8       1.0000 0.84400  0.18740  0.45140  Biso   1.000  H
  H9       1.0000 0.79370  0.11660  0.44720  Biso   1.000  H
  C5       1.0000 0.00690  0.11870  0.54710  Biso   1.000  C
  C6       1.0000 0.01000  0.18750  0.57600  Biso   1.000  C
  C7       1.0000 0.01940  0.18800  0.62970  Biso   1.000  C
  H10      1.0000 0.02470  0.14610  0.64780  Biso   1.000  H
  C8       1.0000 0.88330  0.07960  0.16430  Biso   1.000  C
  C9       1.0000 0.85610  0.03730  0.11710  Biso   1.000  C
  C10      1.0000 0.91590  0.99510  0.09220  Biso   1.000  C
  H11      1.0000 0.97260  0.99230  0.10450  Biso   1.000  H
  C11      1.0000 0.89100  0.95780  0.04960  Biso   1.000  C
  C12      1.0000 0.80680  0.96430  0.02980  Biso   1.000  C
  H12      1.0000 0.79090  0.93880  0.00030  Biso   1.000  H
  C13      1.0000 0.74770  0.00710  0.05290  Biso   1.000  C
  C14      1.0000 0.77340  0.04250  0.09820  Biso   1.000  C
  H13      1.0000 0.73340  0.07020  0.11590  Biso   1.000  H
  C15      1.0000 0.65670  0.01080  0.03290  Biso   1.000  C
  C16      1.0000 0.15940  0.12110  0.20490  Biso   1.000  C
  H14      1.0000 0.11120  0.09050  0.21080  Biso   1.000  H
  H15      1.0000 0.20300  0.11300  0.23120  Biso   1.000  H
  H16      1.0000 0.18340  0.11230  0.17080  Biso   1.000  H
  C17      1.0000 0.12960  0.19460  0.20790  Biso   1.000  C
  H17      1.0000 0.93010  0.92770  0.03340  Biso   1.000  H
  Zn3      1.0000 0.56267  0.83788  0.73122  Biso   1.000  Zn
  Zn4      1.0000 0.52834  0.96419  0.95095  Biso   1.000  Zn
  N6       1.0000 0.57550  0.86910  0.80655  Biso   1.000  N
  N7       1.0000 0.63500  0.83470  0.83750  Biso   1.000  N
  N8       1.0000 0.57180  0.91520  0.88542  Biso   1.000  N
  N9       1.0000 0.44950  0.78630  0.71981  Biso   1.000  N
  H18      1.0000 0.47230  0.71120  0.22930  Biso   1.000  H
  N10      1.0000 0.54470  0.08680  0.52700  Biso   1.000  N
  H19      1.0000 0.49360  0.08880  0.54050  Biso   1.000  H
  H20      1.0000 0.55700  0.11170  0.49990  Biso   1.000  H
  O7       1.0000 0.51390  0.87920  0.99941  Biso   1.000  O
  O8       1.0000 0.47640  0.93430  0.07236  Biso   1.000  O
  O9       1.0000 0.89820  0.96010  0.56167  Biso   1.000  O
  O10      1.0000 0.85760  0.01660  0.48978  Biso   1.000  O
  O11      1.0000 0.66580  0.88510  0.68610  Biso   1.000  O
  O12      1.0000 0.54230  0.92240  0.68040  Biso   1.000  O
  C18      1.0000 0.47190  0.96640  0.81850  Biso   1.000  C
  H21      1.0000 0.41590  0.94530  0.82290  Biso   1.000  H
  H22      1.0000 0.48090  0.97710  0.78210  Biso   1.000  H
  H23      1.0000 0.47480  0.00850  0.83880  Biso   1.000  H
  C19      1.0000 0.53970  0.91760  0.83648  Biso   1.000  C
  C20      1.0000 0.63090  0.86420  0.88382  Biso   1.000  C
  C21      1.0000 0.68770  0.84280  0.92830  Biso   1.000  C
  H24      1.0000 0.73750  0.81850  0.91490  Biso   1.000  H
  H25      1.0000 0.65600  0.81260  0.95140  Biso   1.000  H
  H26      1.0000 0.70630  0.88340  0.94720  Biso   1.000  H
  C22      1.0000 0.49310  0.88130  0.04710  Biso   1.000  C
  C23      1.0000 0.49000  0.81250  0.07600  Biso   1.000  C
  C24      1.0000 0.48060  0.81200  0.12970  Biso   1.000  C
  H27      1.0000 0.47530  0.85390  0.14780  Biso   1.000  H
  C25      1.0000 0.61670  0.92040  0.66430  Biso   1.000  C
  C26      1.0000 0.64390  0.96270  0.61710  Biso   1.000  C
  C27      1.0000 0.58410  0.00490  0.59220  Biso   1.000  C
  H28      1.0000 0.52740  0.00770  0.60450  Biso   1.000  H
  C28      1.0000 0.60900  0.04220  0.54960  Biso   1.000  C
  C29      1.0000 0.69320  0.03570  0.52980  Biso   1.000  C
  H29      1.0000 0.70910  0.06120  0.50030  Biso   1.000  H
  C30      1.0000 0.75230  0.99290  0.55290  Biso   1.000  C
  C31      1.0000 0.72660  0.95750  0.59820  Biso   1.000  C
  H30      1.0000 0.76660  0.92980  0.61590  Biso   1.000  H
  C32      1.0000 0.84330  0.98920  0.53290  Biso   1.000  C
  C33      1.0000 0.34060  0.87890  0.70490  Biso   1.000  C
  H31      1.0000 0.38880  0.90950  0.71080  Biso   1.000  H
  H32      1.0000 0.29700  0.88700  0.73120  Biso   1.000  H
  H33      1.0000 0.31660  0.88770  0.67080  Biso   1.000  H
  C34      1.0000 0.37040  0.80540  0.70790  Biso   1.000  C
  H34      1.0000 0.56990  0.07230  0.53340  Biso   1.000  H
  Zn5      1.0000 0.06267  0.66212  0.76878  Biso   1.000  Zn
  Zn6      1.0000 0.02834  0.53581  0.54905  Biso   1.000  Zn
  N11      1.0000 0.07550  0.63090  0.69345  Biso   1.000  N
  N12      1.0000 0.13500  0.66530  0.66250  Biso   1.000  N
  N13      1.0000 0.07180  0.58480  0.61458  Biso   1.000  N
  N14      1.0000 0.94950  0.71370  0.78019  Biso   1.000  N
  H35      1.0000 0.97230  0.78880  0.27070  Biso   1.000  H
  N15      1.0000 0.04470  0.41320  0.97300  Biso   1.000  N
  H36      1.0000 0.99360  0.41120  0.95950  Biso   1.000  H
  H37      1.0000 0.05700  0.38830  0.00010  Biso   1.000  H
  O13      1.0000 0.01390  0.62080  0.50059  Biso   1.000  O
  O14      1.0000 0.97640  0.56570  0.42764  Biso   1.000  O
  O15      1.0000 0.39820  0.53990  0.93833  Biso   1.000  O
  O16      1.0000 0.35760  0.48340  0.01022  Biso   1.000  O
  O17      1.0000 0.16580  0.61490  0.81390  Biso   1.000  O
  O18      1.0000 0.04230  0.57760  0.81960  Biso   1.000  O
  C35      1.0000 0.97190  0.53360  0.68150  Biso   1.000  C
  H38      1.0000 0.91590  0.55470  0.67710  Biso   1.000  H
  H39      1.0000 0.98090  0.52290  0.71790  Biso   1.000  H
  H40      1.0000 0.97480  0.49150  0.66120  Biso   1.000  H
  C36      1.0000 0.03970  0.58240  0.66352  Biso   1.000  C
  C37      1.0000 0.13090  0.63580  0.61618  Biso   1.000  C
  C38      1.0000 0.18770  0.65720  0.57170  Biso   1.000  C
  H41      1.0000 0.23750  0.68150  0.58510  Biso   1.000  H
  H42      1.0000 0.15600  0.68740  0.54860  Biso   1.000  H
  H43      1.0000 0.20630  0.61660  0.55280  Biso   1.000  H
  C39      1.0000 0.99310  0.61870  0.45290  Biso   1.000  C
  C40      1.0000 0.99000  0.68750  0.42400  Biso   1.000  C
  C41      1.0000 0.98060  0.68800  0.37030  Biso   1.000  C
  H44      1.0000 0.97530  0.64610  0.35220  Biso   1.000  H
  C42      1.0000 0.11670  0.57960  0.83570  Biso   1.000  C
  C43      1.0000 0.14390  0.53730  0.88290  Biso   1.000  C
  C44      1.0000 0.08410  0.49510  0.90780  Biso   1.000  C
  H45      1.0000 0.02740  0.49230  0.89550  Biso   1.000  H
  C45      1.0000 0.10900  0.45780  0.95040  Biso   1.000  C
  C46      1.0000 0.19320  0.46430  0.97020  Biso   1.000  C
  H46      1.0000 0.20910  0.43880  0.99970  Biso   1.000  H
  C47      1.0000 0.25230  0.50710  0.94710  Biso   1.000  C
  C48      1.0000 0.22660  0.54250  0.90180  Biso   1.000  C
  H47      1.0000 0.26660  0.57020  0.88410  Biso   1.000  H
  C49      1.0000 0.34330  0.51080  0.96710  Biso   1.000  C
  C50      1.0000 0.84060  0.62110  0.79510  Biso   1.000  C
  H48      1.0000 0.88880  0.59050  0.78920  Biso   1.000  H
  H49      1.0000 0.79700  0.61300  0.76880  Biso   1.000  H
  H50      1.0000 0.81660  0.61230  0.82920  Biso   1.000  H
  C51      1.0000 0.87040  0.69460  0.79210  Biso   1.000  C
  H51      1.0000 0.06990  0.42770  0.96660  Biso   1.000  H
  Zn7      1.0000 0.43733  0.33788  0.26878  Biso   1.000  Zn
  Zn8      1.0000 0.47166  0.46419  0.04905  Biso   1.000  Zn
  N16      1.0000 0.42450  0.36910  0.19345  Biso   1.000  N
  N17      1.0000 0.36500  0.33470  0.16250  Biso   1.000  N
  N18      1.0000 0.42820  0.41520  0.11458  Biso   1.000  N
  N19      1.0000 0.55050  0.28630  0.28019  Biso   1.000  N
  H52      1.0000 0.52770  0.21120  0.77070  Biso   1.000  H
  N20      1.0000 0.45530  0.58680  0.47300  Biso   1.000  N
  H53      1.0000 0.50640  0.58880  0.45950  Biso   1.000  H
  H54      1.0000 0.44300  0.61170  0.50010  Biso   1.000  H
  O19      1.0000 0.48610  0.37920  0.00059  Biso   1.000  O
  O20      1.0000 0.52360  0.43430  0.92764  Biso   1.000  O
  O21      1.0000 0.10180  0.46010  0.43833  Biso   1.000  O
  O22      1.0000 0.14240  0.51660  0.51022  Biso   1.000  O
  O23      1.0000 0.33420  0.38510  0.31390  Biso   1.000  O
  O24      1.0000 0.45770  0.42240  0.31960  Biso   1.000  O
  C52      1.0000 0.52810  0.46640  0.18150  Biso   1.000  C
  H55      1.0000 0.58410  0.44530  0.17710  Biso   1.000  H
  H56      1.0000 0.51910  0.47710  0.21790  Biso   1.000  H
  H57      1.0000 0.52520  0.50850  0.16120  Biso   1.000  H
  C53      1.0000 0.46030  0.41760  0.16352  Biso   1.000  C
  C54      1.0000 0.36910  0.36420  0.11618  Biso   1.000  C
  C55      1.0000 0.31230  0.34280  0.07170  Biso   1.000  C
  H58      1.0000 0.26250  0.31850  0.08510  Biso   1.000  H
  H59      1.0000 0.34400  0.31260  0.04860  Biso   1.000  H
  H60      1.0000 0.29370  0.38340  0.05280  Biso   1.000  H
  C56      1.0000 0.50690  0.38130  0.95290  Biso   1.000  C
  C57      1.0000 0.51000  0.31250  0.92400  Biso   1.000  C
  C58      1.0000 0.51940  0.31200  0.87030  Biso   1.000  C
  H61      1.0000 0.52470  0.35390  0.85220  Biso   1.000  H
  C59      1.0000 0.38330  0.42040  0.33570  Biso   1.000  C
  C60      1.0000 0.35610  0.46270  0.38290  Biso   1.000  C
  C61      1.0000 0.41590  0.50490  0.40780  Biso   1.000  C
  H62      1.0000 0.47260  0.50770  0.39550  Biso   1.000  H
  C62      1.0000 0.39100  0.54220  0.45040  Biso   1.000  C
  C63      1.0000 0.30680  0.53570  0.47020  Biso   1.000  C
  H63      1.0000 0.29090  0.56120  0.49970  Biso   1.000  H
  C64      1.0000 0.24770  0.49290  0.44710  Biso   1.000  C
  C65      1.0000 0.27340  0.45750  0.40180  Biso   1.000  C
  H64      1.0000 0.23340  0.42980  0.38410  Biso   1.000  H
  C66      1.0000 0.15670  0.48920  0.46710  Biso   1.000  C
  C67      1.0000 0.65940  0.37890  0.29510  Biso   1.000  C
  H65      1.0000 0.61120  0.40950  0.28920  Biso   1.000  H
  H66      1.0000 0.70300  0.38700  0.26880  Biso   1.000  H
  H67      1.0000 0.68340  0.38770  0.32920  Biso   1.000  H
  C68      1.0000 0.62960  0.30540  0.29210  Biso   1.000  C
  H68      1.0000 0.43010  0.57230  0.46660  Biso   1.000  H
  Zn9      1.0000 0.06267  0.83788  0.76878  Biso   1.000  Zn
  Zn10     1.0000 0.02834  0.96419  0.54905  Biso   1.000  Zn
  N21      1.0000 0.07550  0.86910  0.69345  Biso   1.000  N
  N22      1.0000 0.13500  0.83470  0.66250  Biso   1.000  N
  N23      1.0000 0.07180  0.91520  0.61458  Biso   1.000  N
  N24      1.0000 0.94950  0.78630  0.78019  Biso   1.000  N
  H69      1.0000 0.97230  0.71120  0.27070  Biso   1.000  H
  N25      1.0000 0.04470  0.08680  0.97300  Biso   1.000  N
  H70      1.0000 0.99360  0.08880  0.95950  Biso   1.000  H
  H71      1.0000 0.05700  0.11170  0.00010  Biso   1.000  H
  O25      1.0000 0.01390  0.87920  0.50059  Biso   1.000  O
  O26      1.0000 0.97640  0.93430  0.42764  Biso   1.000  O
  O27      1.0000 0.39820  0.96010  0.93833  Biso   1.000  O
  O28      1.0000 0.35760  0.01660  0.01022  Biso   1.000  O
  O29      1.0000 0.16580  0.88510  0.81390  Biso   1.000  O
  O30      1.0000 0.04230  0.92240  0.81960  Biso   1.000  O
  C69      1.0000 0.97190  0.96640  0.68150  Biso   1.000  C
  H72      1.0000 0.91590  0.94530  0.67710  Biso   1.000  H
  H73      1.0000 0.98090  0.97710  0.71790  Biso   1.000  H
  H74      1.0000 0.97480  0.00850  0.66120  Biso   1.000  H
  C70      1.0000 0.03970  0.91760  0.66352  Biso   1.000  C
  C71      1.0000 0.13090  0.86420  0.61618  Biso   1.000  C
  C72      1.0000 0.18770  0.84280  0.57170  Biso   1.000  C
  H75      1.0000 0.23750  0.81850  0.58510  Biso   1.000  H
  H76      1.0000 0.15600  0.81260  0.54860  Biso   1.000  H
  H77      1.0000 0.20630  0.88340  0.55280  Biso   1.000  H
  C73      1.0000 0.99310  0.88130  0.45290  Biso   1.000  C
  C74      1.0000 0.99000  0.81250  0.42400  Biso   1.000  C
  C75      1.0000 0.98060  0.81200  0.37030  Biso   1.000  C
  H78      1.0000 0.97530  0.85390  0.35220  Biso   1.000  H
  C76      1.0000 0.11670  0.92040  0.83570  Biso   1.000  C
  C77      1.0000 0.14390  0.96270  0.88290  Biso   1.000  C
  C78      1.0000 0.08410  0.00490  0.90780  Biso   1.000  C
  H79      1.0000 0.02740  0.00770  0.89550  Biso   1.000  H
  C79      1.0000 0.10900  0.04220  0.95040  Biso   1.000  C
  C80      1.0000 0.19320  0.03570  0.97020  Biso   1.000  C
  H80      1.0000 0.20910  0.06120  0.99970  Biso   1.000  H
  C81      1.0000 0.25230  0.99290  0.94710  Biso   1.000  C
  C82      1.0000 0.22660  0.95750  0.90180  Biso   1.000  C
  H81      1.0000 0.26660  0.92980  0.88410  Biso   1.000  H
  C83      1.0000 0.34330  0.98920  0.96710  Biso   1.000  C
  C84      1.0000 0.84060  0.87890  0.79510  Biso   1.000  C
  H82      1.0000 0.88880  0.90950  0.78920  Biso   1.000  H
  H83      1.0000 0.79700  0.88700  0.76880  Biso   1.000  H
  H84      1.0000 0.81660  0.88770  0.82920  Biso   1.000  H
  C85      1.0000 0.87040  0.80540  0.79210  Biso   1.000  C
  H85      1.0000 0.06990  0.07230  0.96660  Biso   1.000  H
  Zn11     1.0000 0.43733  0.16212  0.26878  Biso   1.000  Zn
  Zn12     1.0000 0.47166  0.03581  0.04905  Biso   1.000  Zn
  N26      1.0000 0.42450  0.13090  0.19345  Biso   1.000  N
  N27      1.0000 0.36500  0.16530  0.16250  Biso   1.000  N
  N28      1.0000 0.42820  0.08480  0.11458  Biso   1.000  N
  N29      1.0000 0.55050  0.21370  0.28019  Biso   1.000  N
  H86      1.0000 0.52770  0.28880  0.77070  Biso   1.000  H
  N30      1.0000 0.45530  0.91320  0.47300  Biso   1.000  N
  H87      1.0000 0.50640  0.91120  0.45950  Biso   1.000  H
  H88      1.0000 0.44300  0.88830  0.50010  Biso   1.000  H
  O31      1.0000 0.48610  0.12080  0.00059  Biso   1.000  O
  O32      1.0000 0.52360  0.06570  0.92764  Biso   1.000  O
  O33      1.0000 0.10180  0.03990  0.43833  Biso   1.000  O
  O34      1.0000 0.14240  0.98340  0.51022  Biso   1.000  O
  O35      1.0000 0.33420  0.11490  0.31390  Biso   1.000  O
  O36      1.0000 0.45770  0.07760  0.31960  Biso   1.000  O
  C86      1.0000 0.52810  0.03360  0.18150  Biso   1.000  C
  H89      1.0000 0.58410  0.05470  0.17710  Biso   1.000  H
  H90      1.0000 0.51910  0.02290  0.21790  Biso   1.000  H
  H91      1.0000 0.52520  0.99150  0.16120  Biso   1.000  H
  C87      1.0000 0.46030  0.08240  0.16352  Biso   1.000  C
  C88      1.0000 0.36910  0.13580  0.11618  Biso   1.000  C
  C89      1.0000 0.31230  0.15720  0.07170  Biso   1.000  C
  H92      1.0000 0.26250  0.18150  0.08510  Biso   1.000  H
  H93      1.0000 0.34400  0.18740  0.04860  Biso   1.000  H
  H94      1.0000 0.29370  0.11660  0.05280  Biso   1.000  H
  C90      1.0000 0.50690  0.11870  0.95290  Biso   1.000  C
  C91      1.0000 0.51000  0.18750  0.92400  Biso   1.000  C
  C92      1.0000 0.51940  0.18800  0.87030  Biso   1.000  C
  H95      1.0000 0.52470  0.14610  0.85220  Biso   1.000  H
  C93      1.0000 0.38330  0.07960  0.33570  Biso   1.000  C
  C94      1.0000 0.35610  0.03730  0.38290  Biso   1.000  C
  C95      1.0000 0.41590  0.99510  0.40780  Biso   1.000  C
  H96      1.0000 0.47260  0.99230  0.39550  Biso   1.000  H
  C96      1.0000 0.39100  0.95780  0.45040  Biso   1.000  C
  C97      1.0000 0.30680  0.96430  0.47020  Biso   1.000  C
  H97      1.0000 0.29090  0.93880  0.49970  Biso   1.000  H
  C98      1.0000 0.24770  0.00710  0.44710  Biso   1.000  C
  C99      1.0000 0.27340  0.04250  0.40180  Biso   1.000  C
  H98      1.0000 0.23340  0.07020  0.38410  Biso   1.000  H
  C100     1.0000 0.15670  0.01080  0.46710  Biso   1.000  C
  C101     1.0000 0.65940  0.12110  0.29510  Biso   1.000  C
  H99      1.0000 0.61120  0.09050  0.28920  Biso   1.000  H
  H100     1.0000 0.70300  0.11300  0.26880  Biso   1.000  H
  H101     1.0000 0.68340  0.11230  0.32920  Biso   1.000  H
  C102     1.0000 0.62960  0.19460  0.29210  Biso   1.000  C
  H102     1.0000 0.43010  0.92770  0.46660  Biso   1.000  H
  Zn13     1.0000 0.93733  0.33788  0.23122  Biso   1.000  Zn
  Zn14     1.0000 0.97166  0.46419  0.45095  Biso   1.000  Zn
  N31      1.0000 0.92450  0.36910  0.30655  Biso   1.000  N
  N32      1.0000 0.86500  0.33470  0.33750  Biso   1.000  N
  N33      1.0000 0.92820  0.41520  0.38542  Biso   1.000  N
  N34      1.0000 0.05050  0.28630  0.21981  Biso   1.000  N
  H103     1.0000 0.02770  0.21120  0.72930  Biso   1.000  H
  N35      1.0000 0.95530  0.58680  0.02700  Biso   1.000  N
  H104     1.0000 0.00640  0.58880  0.04050  Biso   1.000  H
  H105     1.0000 0.94300  0.61170  0.99990  Biso   1.000  H
  O37      1.0000 0.98610  0.37920  0.49941  Biso   1.000  O
  O38      1.0000 0.02360  0.43430  0.57236  Biso   1.000  O
  O39      1.0000 0.60180  0.46010  0.06167  Biso   1.000  O
  O40      1.0000 0.64240  0.51660  0.98978  Biso   1.000  O
  O41      1.0000 0.83420  0.38510  0.18610  Biso   1.000  O
  O42      1.0000 0.95770  0.42240  0.18040  Biso   1.000  O
  C103     1.0000 0.02810  0.46640  0.31850  Biso   1.000  C
  H106     1.0000 0.08410  0.44530  0.32290  Biso   1.000  H
  H107     1.0000 0.01910  0.47710  0.28210  Biso   1.000  H
  H108     1.0000 0.02520  0.50850  0.33880  Biso   1.000  H
  C104     1.0000 0.96030  0.41760  0.33648  Biso   1.000  C
  C105     1.0000 0.86910  0.36420  0.38382  Biso   1.000  C
  C106     1.0000 0.81230  0.34280  0.42830  Biso   1.000  C
  H109     1.0000 0.76250  0.31850  0.41490  Biso   1.000  H
  H110     1.0000 0.84400  0.31260  0.45140  Biso   1.000  H
  H111     1.0000 0.79370  0.38340  0.44720  Biso   1.000  H
  C107     1.0000 0.00690  0.38130  0.54710  Biso   1.000  C
  C108     1.0000 0.01000  0.31250  0.57600  Biso   1.000  C
  C109     1.0000 0.01940  0.31200  0.62970  Biso   1.000  C
  H112     1.0000 0.02470  0.35390  0.64780  Biso   1.000  H
  C110     1.0000 0.88330  0.42040  0.16430  Biso   1.000  C
  C111     1.0000 0.85610  0.46270  0.11710  Biso   1.000  C
  C112     1.0000 0.91590  0.50490  0.09220  Biso   1.000  C
  H113     1.0000 0.97260  0.50770  0.10450  Biso   1.000  H
  C113     1.0000 0.89100  0.54220  0.04960  Biso   1.000  C
  C114     1.0000 0.80680  0.53570  0.02980  Biso   1.000  C
  H114     1.0000 0.79090  0.56120  0.00030  Biso   1.000  H
  C115     1.0000 0.74770  0.49290  0.05290  Biso   1.000  C
  C116     1.0000 0.77340  0.45750  0.09820  Biso   1.000  C
  H115     1.0000 0.73340  0.42980  0.11590  Biso   1.000  H
  C117     1.0000 0.65670  0.48920  0.03290  Biso   1.000  C
  C118     1.0000 0.15940  0.37890  0.20490  Biso   1.000  C
  H116     1.0000 0.11120  0.40950  0.21080  Biso   1.000  H
  H117     1.0000 0.20300  0.38700  0.23120  Biso   1.000  H
  H118     1.0000 0.18340  0.38770  0.17080  Biso   1.000  H
  C119     1.0000 0.12960  0.30540  0.20790  Biso   1.000  C
  H119     1.0000 0.93010  0.57230  0.03340  Biso   1.000  H
  Zn15     1.0000 0.56267  0.66212  0.73122  Biso   1.000  Zn
  Zn16     1.0000 0.52834  0.53581  0.95095  Biso   1.000  Zn
  N36      1.0000 0.57550  0.63090  0.80655  Biso   1.000  N
  N37      1.0000 0.63500  0.66530  0.83750  Biso   1.000  N
  N38      1.0000 0.57180  0.58480  0.88542  Biso   1.000  N
  N39      1.0000 0.44950  0.71370  0.71981  Biso   1.000  N
  H120     1.0000 0.47230  0.78880  0.22930  Biso   1.000  H
  N40      1.0000 0.54470  0.41320  0.52700  Biso   1.000  N
  H121     1.0000 0.49360  0.41120  0.54050  Biso   1.000  H
  H122     1.0000 0.55700  0.38830  0.49990  Biso   1.000  H
  O43      1.0000 0.51390  0.62080  0.99941  Biso   1.000  O
  O44      1.0000 0.47640  0.56570  0.07236  Biso   1.000  O
  O45      1.0000 0.89820  0.53990  0.56167  Biso   1.000  O
  O46      1.0000 0.85760  0.48340  0.48978  Biso   1.000  O
  O47      1.0000 0.66580  0.61490  0.68610  Biso   1.000  O
  O48      1.0000 0.54230  0.57760  0.68040  Biso   1.000  O
  C120     1.0000 0.47190  0.53360  0.81850  Biso   1.000  C
  H123     1.0000 0.41590  0.55470  0.82290  Biso   1.000  H
  H124     1.0000 0.48090  0.52290  0.78210  Biso   1.000  H
  H125     1.0000 0.47480  0.49150  0.83880  Biso   1.000  H
  C121     1.0000 0.53970  0.58240  0.83648  Biso   1.000  C
  C122     1.0000 0.63090  0.63580  0.88382  Biso   1.000  C
  C123     1.0000 0.68770  0.65720  0.92830  Biso   1.000  C
  H126     1.0000 0.73750  0.68150  0.91490  Biso   1.000  H
  H127     1.0000 0.65600  0.68740  0.95140  Biso   1.000  H
  H128     1.0000 0.70630  0.61660  0.94720  Biso   1.000  H
  C124     1.0000 0.49310  0.61870  0.04710  Biso   1.000  C
  C125     1.0000 0.49000  0.68750  0.07600  Biso   1.000  C
  C126     1.0000 0.48060  0.68800  0.12970  Biso   1.000  C
  H129     1.0000 0.47530  0.64610  0.14780  Biso   1.000  H
  C127     1.0000 0.61670  0.57960  0.66430  Biso   1.000  C
  C128     1.0000 0.64390  0.53730  0.61710  Biso   1.000  C
  C129     1.0000 0.58410  0.49510  0.59220  Biso   1.000  C
  H130     1.0000 0.52740  0.49230  0.60450  Biso   1.000  H
  C130     1.0000 0.60900  0.45780  0.54960  Biso   1.000  C
  C131     1.0000 0.69320  0.46430  0.52980  Biso   1.000  C
  H131     1.0000 0.70910  0.43880  0.50030  Biso   1.000  H
  C132     1.0000 0.75230  0.50710  0.55290  Biso   1.000  C
  C133     1.0000 0.72660  0.54250  0.59820  Biso   1.000  C
  H132     1.0000 0.76660  0.57020  0.61590  Biso   1.000  H
  C134     1.0000 0.84330  0.51080  0.53290  Biso   1.000  C
  C135     1.0000 0.34060  0.62110  0.70490  Biso   1.000  C
  H133     1.0000 0.38880  0.59050  0.71080  Biso   1.000  H
  H134     1.0000 0.29700  0.61300  0.73120  Biso   1.000  H
  H135     1.0000 0.31660  0.61230  0.67080  Biso   1.000  H
  C136     1.0000 0.37040  0.69460  0.70790  Biso   1.000  C
  H136     1.0000 0.56990  0.42770  0.53340  Biso   1.000  H
  Zn17     1.0000 0.80809  0.25000  0.30813  Biso   1.000  Zn
  N41      1.0000 0.18210  0.25000  0.19970  Biso   1.000  N
  N42      1.0000 0.02600  0.25000  0.71240  Biso   1.000  N
  O49      1.0000 0.86480  0.25000  0.23850  Biso   1.000  O
  H137     1.0000 0.82400  0.25000  0.21370  Biso   1.000  H
  C137     1.0000 0.02100  0.25000  0.65690  Biso   1.000  C
  C138     1.0000 0.00200  0.25000  0.54890  Biso   1.000  C
  H138     1.0000 0.99130  0.25000  0.51300  Biso   1.000  H
  H139     1.0000 0.02310  0.25000  0.69340  Biso   1.000  H
  Zn18     1.0000 0.69191  0.75000  0.80813  Biso   1.000  Zn
  N43      1.0000 0.31790  0.75000  0.69970  Biso   1.000  N
  N44      1.0000 0.47400  0.75000  0.21240  Biso   1.000  N
  O50      1.0000 0.63520  0.75000  0.73850  Biso   1.000  O
  H140     1.0000 0.67600  0.75000  0.71370  Biso   1.000  H
  C139     1.0000 0.47900  0.75000  0.15690  Biso   1.000  C
  C140     1.0000 0.49800  0.75000  0.04890  Biso   1.000  C
  H141     1.0000 0.50870  0.75000  0.01300  Biso   1.000  H
  H142     1.0000 0.47690  0.75000  0.19340  Biso   1.000  H
  Zn19     1.0000 0.19191  0.75000  0.69187  Biso   1.000  Zn
  N45      1.0000 0.81790  0.75000  0.80030  Biso   1.000  N
  N46      1.0000 0.97400  0.75000  0.28760  Biso   1.000  N
  O51      1.0000 0.13520  0.75000  0.76150  Biso   1.000  O
  H143     1.0000 0.17600  0.75000  0.78630  Biso   1.000  H
  C141     1.0000 0.97900  0.75000  0.34310  Biso   1.000  C
  C142     1.0000 0.99800  0.75000  0.45110  Biso   1.000  C
  H144     1.0000 0.00870  0.75000  0.48700  Biso   1.000  H
  H145     1.0000 0.97690  0.75000  0.30660  Biso   1.000  H
  Zn20     1.0000 0.30809  0.25000  0.19187  Biso   1.000  Zn
  N47      1.0000 0.68210  0.25000  0.30030  Biso   1.000  N
  N48      1.0000 0.52600  0.25000  0.78760  Biso   1.000  N
  O52      1.0000 0.36480  0.25000  0.26150  Biso   1.000  O
  H146     1.0000 0.32400  0.25000  0.28630  Biso   1.000  H
  C143     1.0000 0.52100  0.25000  0.84310  Biso   1.000  C
  C144     1.0000 0.50200  0.25000  0.95110  Biso   1.000  C
  H147     1.0000 0.49130  0.25000  0.98700  Biso   1.000  H
  H148     1.0000 0.52310  0.25000  0.80660  Biso   1.000  H
