data_image0
_cell_length_a       15.4775
_cell_length_b       19.1313
_cell_length_c       25.544
_cell_angle_alpha    90
_cell_angle_beta     90
_cell_angle_gamma    90

_symmetry_space_group_name_H-M    "P 1"
_symmetry_int_tables_number       1

loop_
  _symmetry_equiv_pos_as_xyz
  'x, y, z'

loop_
  _atom_site_label
  _atom_site_occupancy
  _atom_site_fract_x
  _atom_site_fract_y
  _atom_site_fract_z
  _atom_site_thermal_displace_type
  _atom_site_B_iso_or_equiv
  _atom_site_type_symbol
  Zn1      1.0000 0.44326  0.66128  0.51702  Biso   1.000  Zn
  Zn2      1.0000 0.43403  0.83707  0.51801  Biso   1.000  Zn
  Zn3      1.0000 0.30836  0.74104  0.44199  Biso   1.000  Zn
  Zn4      1.0000 0.04100  0.03939  0.79745  Biso   1.000  Zn
  Zn5      1.0000 0.98234  0.96935  0.70018  Biso   1.000  Zn
  O1       1.0000 0.55540  0.10580  0.92030  Biso   1.000  O
  O2       1.0000 0.68900  0.08810  0.94790  Biso   1.000  O
  O3       1.0000 0.91190  0.03690  0.81230  Biso   1.000  O
  O4       1.0000 0.86990  0.00450  0.73220  Biso   1.000  O
  O5       1.0000 0.34990  0.87240  0.57290  Biso   1.000  O
  O6       1.0000 0.45920  0.94010  0.55680  Biso   1.000  O
  O7       1.0000 0.11320  0.95400  0.69080  Biso   1.000  O
  O8       1.0000 0.15150  0.02880  0.75400  Biso   1.000  O
  O9       1.0000 0.01650  0.12560  0.75070  Biso   1.000  O
  O10      1.0000 0.00580  0.06950  0.67450  Biso   1.000  O
  O11      1.0000 0.01980  0.38680  0.74880  Biso   1.000  O
  O12      1.0000 0.95490  0.43700  0.67980  Biso   1.000  O
  N1       1.0000 0.55290  0.71790  0.52810  Biso   1.000  N
  N2       1.0000 0.55040  0.79000  0.52830  Biso   1.000  N
  N3       1.0000 0.68220  0.75680  0.54930  Biso   1.000  N
  N4       1.0000 0.41690  0.86590  0.44270  Biso   1.000  N
  N5       1.0000 0.36100  0.82750  0.41170  Biso   1.000  N
  N6       1.0000 0.41770  0.91080  0.36310  Biso   1.000  N
  N7       1.0000 0.43150  0.62680  0.44280  Biso   1.000  N
  N8       1.0000 0.36650  0.65650  0.41290  Biso   1.000  N
  N9       1.0000 0.43580  0.57930  0.36480  Biso   1.000  N
  C1       1.0000 0.66340  0.62680  0.54410  Biso   1.000  C
  H1       1.0000 0.61490  0.59570  0.54080  Biso   1.000  H
  H2       1.0000 0.69100  0.61930  0.57720  Biso   1.000  H
  H3       1.0000 0.70380  0.61790  0.51640  Biso   1.000  H
  C2       1.0000 0.63290  0.70040  0.54080  Biso   1.000  C
  C3       1.0000 0.62910  0.81180  0.54080  Biso   1.000  C
  C4       1.0000 0.65740  0.88570  0.54360  Biso   1.000  C
  H4       1.0000 0.68530  0.89850  0.51140  Biso   1.000  H
  H5       1.0000 0.69710  0.89140  0.57210  Biso   1.000  H
  H6       1.0000 0.60800  0.91520  0.54910  Biso   1.000  H
  C5       1.0000 0.51390  0.96780  0.43030  Biso   1.000  C
  H7       1.0000 0.52950  0.95790  0.46590  Biso   1.000  H
  H8       1.0000 0.48910  0.01370  0.42820  Biso   1.000  H
  H9       1.0000 0.56450  0.96570  0.40870  Biso   1.000  H
  C6       1.0000 0.44930  0.91490  0.41170  Biso   1.000  C
  C7       1.0000 0.36330  0.85630  0.36460  Biso   1.000  C
  C8       1.0000 0.30910  0.83190  0.31960  Biso   1.000  C
  H10      1.0000 0.27280  0.79410  0.33090  Biso   1.000  H
  H11      1.0000 0.34590  0.81610  0.29180  Biso   1.000  H
  H12      1.0000 0.27380  0.86980  0.30740  Biso   1.000  H
  C9       1.0000 0.54570  0.53770  0.43040  Biso   1.000  C
  H13      1.0000 0.59860  0.56140  0.42200  Biso   1.000  H
  H14      1.0000 0.54410  0.49350  0.41260  Biso   1.000  H
  H15      1.0000 0.54250  0.53020  0.46750  Biso   1.000  H
  C10      1.0000 0.47150  0.58100  0.41340  Biso   1.000  C
  C11      1.0000 0.37130  0.62610  0.36650  Biso   1.000  C
  C12      1.0000 0.31110  0.64070  0.32260  Biso   1.000  C
  H16      1.0000 0.27350  0.67860  0.33200  Biso   1.000  H
  H17      1.0000 0.27740  0.59980  0.31530  Biso   1.000  H
  H18      1.0000 0.34370  0.65330  0.29200  Biso   1.000  H
  C13      1.0000 0.63450  0.08590  0.91310  Biso   1.000  C
  C14      1.0000 0.65600  0.06250  0.85820  Biso   1.000  C
  C15      1.0000 0.74310  0.05350  0.84490  Biso   1.000  C
  H19      1.0000 0.78640  0.06020  0.86960  Biso   1.000  H
  C16      1.0000 0.76340  0.03420  0.79380  Biso   1.000  C
  C17      1.0000 0.85560  0.02490  0.77830  Biso   1.000  C
  C18      1.0000 0.69820  0.02500  0.75750  Biso   1.000  C
  H20      1.0000 0.71250  0.01230  0.72340  Biso   1.000  H
  C19      1.0000 0.61330  0.03420  0.77030  Biso   1.000  C
  C20      1.0000 0.59250  0.05310  0.82130  Biso   1.000  C
  H21      1.0000 0.53500  0.05950  0.83050  Biso   1.000  H
  C21      1.0000 0.39100  0.92770  0.58170  Biso   1.000  C
  C22      1.0000 0.35680  0.97710  0.62130  Biso   1.000  C
  C23      1.0000 0.27930  0.96250  0.64750  Biso   1.000  C
  H22      1.0000 0.24870  0.92190  0.63990  Biso   1.000  H
  C24      1.0000 0.24850  0.00910  0.68470  Biso   1.000  C
  C25      1.0000 0.16410  0.99560  0.71220  Biso   1.000  C
  C26      1.0000 0.29440  0.07080  0.69570  Biso   1.000  C
  H23      1.0000 0.27320  0.10190  0.72060  Biso   1.000  H
  C27      1.0000 0.37110  0.08580  0.66970  Biso   1.000  C
  C28      1.0000 0.40210  0.03860  0.63190  Biso   1.000  C
  H24      1.0000 0.45290  0.04830  0.61390  Biso   1.000  H
  C29      1.0000 0.00900  0.12410  0.70130  Biso   1.000  C
  C30      1.0000 0.00500  0.19190  0.67330  Biso   1.000  C
  C31      1.0000 0.00380  0.25510  0.70090  Biso   1.000  C
  H25      1.0000 0.01030  0.25530  0.73710  Biso   1.000  H
  C32      1.0000 0.99290  0.31760  0.67390  Biso   1.000  C
  C33      1.0000 0.98880  0.38580  0.70290  Biso   1.000  C
  C34      1.0000 0.98590  0.31790  0.61950  Biso   1.000  C
  H26      1.0000 0.97650  0.35960  0.60180  Biso   1.000  H
  C35      1.0000 0.99310  0.25530  0.59180  Biso   1.000  C
  C36      1.0000 0.99940  0.19190  0.61870  Biso   1.000  C
  H27      1.0000 0.99990  0.14990  0.60030  Biso   1.000  H
  N10      1.0000 0.54810  0.02280  0.73290  Biso   1.000  N
  H28      1.0000 0.56160  0.01000  0.70170  Biso   1.000  H
  H29      1.0000 0.49470  0.02860  0.74130  Biso   1.000  H
  N11      1.0000 0.41480  0.14630  0.68130  Biso   1.000  N
  H30      1.0000 0.39470  0.17450  0.70450  Biso   1.000  H
  H31      1.0000 0.46230  0.15590  0.66540  Biso   1.000  H
  N12      1.0000 0.98790  0.25630  0.53660  Biso   1.000  N
  H32      1.0000 0.98860  0.21770  0.51930  Biso   1.000  H
  H33      1.0000 0.98400  0.29550  0.52020  Biso   1.000  H
  O13      1.0000 0.36640  0.74430  0.51107  Biso   1.000  O
  H34      1.0000 0.32600  0.75410  0.53250  Biso   1.000  H
  Zn6      1.0000 0.05674  0.33872  0.01702  Biso   1.000  Zn
  Zn7      1.0000 0.06597  0.16293  0.01801  Biso   1.000  Zn
  Zn8      1.0000 0.19164  0.25896  0.94199  Biso   1.000  Zn
  Zn9      1.0000 0.45900  0.96061  0.29745  Biso   1.000  Zn
  Zn10     1.0000 0.51766  0.03065  0.20018  Biso   1.000  Zn
  O14      1.0000 0.94460  0.89420  0.42030  Biso   1.000  O
  O15      1.0000 0.81100  0.91190  0.44790  Biso   1.000  O
  O16      1.0000 0.58810  0.96310  0.31230  Biso   1.000  O
  O17      1.0000 0.63010  0.99550  0.23220  Biso   1.000  O
  O18      1.0000 0.15010  0.12760  0.07290  Biso   1.000  O
  O19      1.0000 0.04080  0.05990  0.05680  Biso   1.000  O
  O20      1.0000 0.38680  0.04600  0.19080  Biso   1.000  O
  O21      1.0000 0.34850  0.97120  0.25400  Biso   1.000  O
  O22      1.0000 0.48350  0.87440  0.25070  Biso   1.000  O
  O23      1.0000 0.49420  0.93050  0.17450  Biso   1.000  O
  O24      1.0000 0.48020  0.61320  0.24880  Biso   1.000  O
  O25      1.0000 0.54510  0.56300  0.17980  Biso   1.000  O
  N13      1.0000 0.94710  0.28210  0.02810  Biso   1.000  N
  N14      1.0000 0.94960  0.21000  0.02830  Biso   1.000  N
  N15      1.0000 0.81780  0.24320  0.04930  Biso   1.000  N
  N16      1.0000 0.08310  0.13410  0.94270  Biso   1.000  N
  N17      1.0000 0.13900  0.17250  0.91170  Biso   1.000  N
  N18      1.0000 0.08230  0.08920  0.86310  Biso   1.000  N
  N19      1.0000 0.06850  0.37320  0.94280  Biso   1.000  N
  N20      1.0000 0.13350  0.34350  0.91290  Biso   1.000  N
  N21      1.0000 0.06420  0.42070  0.86480  Biso   1.000  N
  C37      1.0000 0.83660  0.37320  0.04410  Biso   1.000  C
  H35      1.0000 0.88510  0.40430  0.04080  Biso   1.000  H
  H36      1.0000 0.80900  0.38070  0.07720  Biso   1.000  H
  H37      1.0000 0.79620  0.38210  0.01640  Biso   1.000  H
  C38      1.0000 0.86710  0.29960  0.04080  Biso   1.000  C
  C39      1.0000 0.87090  0.18820  0.04080  Biso   1.000  C
  C40      1.0000 0.84260  0.11430  0.04360  Biso   1.000  C
  H38      1.0000 0.81470  0.10150  0.01140  Biso   1.000  H
  H39      1.0000 0.80290  0.10860  0.07210  Biso   1.000  H
  H40      1.0000 0.89200  0.08480  0.04910  Biso   1.000  H
  C41      1.0000 0.98610  0.03220  0.93030  Biso   1.000  C
  H41      1.0000 0.97050  0.04210  0.96590  Biso   1.000  H
  H42      1.0000 0.01090  0.98630  0.92820  Biso   1.000  H
  H43      1.0000 0.93550  0.03430  0.90870  Biso   1.000  H
  C42      1.0000 0.05070  0.08510  0.91170  Biso   1.000  C
  C43      1.0000 0.13670  0.14370  0.86460  Biso   1.000  C
  C44      1.0000 0.19090  0.16810  0.81960  Biso   1.000  C
  H44      1.0000 0.22720  0.20590  0.83090  Biso   1.000  H
  H45      1.0000 0.15410  0.18390  0.79180  Biso   1.000  H
  H46      1.0000 0.22620  0.13020  0.80740  Biso   1.000  H
  C45      1.0000 0.95430  0.46230  0.93040  Biso   1.000  C
  H47      1.0000 0.90140  0.43860  0.92200  Biso   1.000  H
  H48      1.0000 0.95590  0.50650  0.91260  Biso   1.000  H
  H49      1.0000 0.95750  0.46980  0.96750  Biso   1.000  H
  C46      1.0000 0.02850  0.41900  0.91340  Biso   1.000  C
  C47      1.0000 0.12870  0.37390  0.86650  Biso   1.000  C
  C48      1.0000 0.18890  0.35930  0.82260  Biso   1.000  C
  H50      1.0000 0.22650  0.32140  0.83200  Biso   1.000  H
  H51      1.0000 0.22260  0.40020  0.81530  Biso   1.000  H
  H52      1.0000 0.15630  0.34670  0.79200  Biso   1.000  H
  C49      1.0000 0.86550  0.91410  0.41310  Biso   1.000  C
  C50      1.0000 0.84400  0.93750  0.35820  Biso   1.000  C
  C51      1.0000 0.75690  0.94650  0.34490  Biso   1.000  C
  H53      1.0000 0.71360  0.93980  0.36960  Biso   1.000  H
  C52      1.0000 0.73660  0.96580  0.29380  Biso   1.000  C
  C53      1.0000 0.64440  0.97510  0.27830  Biso   1.000  C
  C54      1.0000 0.80180  0.97500  0.25750  Biso   1.000  C
  H54      1.0000 0.78750  0.98770  0.22340  Biso   1.000  H
  C55      1.0000 0.88670  0.96580  0.27030  Biso   1.000  C
  C56      1.0000 0.90750  0.94690  0.32130  Biso   1.000  C
  H55      1.0000 0.96500  0.94050  0.33050  Biso   1.000  H
  C57      1.0000 0.10900  0.07230  0.08170  Biso   1.000  C
  C58      1.0000 0.14320  0.02290  0.12130  Biso   1.000  C
  C59      1.0000 0.22070  0.03750  0.14750  Biso   1.000  C
  H56      1.0000 0.25130  0.07810  0.13990  Biso   1.000  H
  C60      1.0000 0.25150  0.99090  0.18470  Biso   1.000  C
  C61      1.0000 0.33590  0.00440  0.21220  Biso   1.000  C
  C62      1.0000 0.20560  0.92920  0.19570  Biso   1.000  C
  H57      1.0000 0.22680  0.89810  0.22060  Biso   1.000  H
  C63      1.0000 0.12890  0.91420  0.16970  Biso   1.000  C
  C64      1.0000 0.09790  0.96140  0.13190  Biso   1.000  C
  H58      1.0000 0.04710  0.95170  0.11390  Biso   1.000  H
  C65      1.0000 0.49100  0.87590  0.20130  Biso   1.000  C
  C66      1.0000 0.49500  0.80810  0.17330  Biso   1.000  C
  C67      1.0000 0.49620  0.74490  0.20090  Biso   1.000  C
  H59      1.0000 0.48970  0.74470  0.23710  Biso   1.000  H
  C68      1.0000 0.50710  0.68240  0.17390  Biso   1.000  C
  C69      1.0000 0.51120  0.61420  0.20290  Biso   1.000  C
  C70      1.0000 0.51410  0.68210  0.11950  Biso   1.000  C
  H60      1.0000 0.52350  0.64040  0.10180  Biso   1.000  H
  C71      1.0000 0.50690  0.74470  0.09180  Biso   1.000  C
  C72      1.0000 0.50060  0.80810  0.11870  Biso   1.000  C
  H61      1.0000 0.50010  0.85010  0.10030  Biso   1.000  H
  N22      1.0000 0.95190  0.97720  0.23290  Biso   1.000  N
  H62      1.0000 0.93840  0.99000  0.20170  Biso   1.000  H
  H63      1.0000 0.00530  0.97140  0.24130  Biso   1.000  H
  N23      1.0000 0.08520  0.85370  0.18130  Biso   1.000  N
  H64      1.0000 0.10530  0.82550  0.20450  Biso   1.000  H
  H65      1.0000 0.03770  0.84410  0.16540  Biso   1.000  H
  N24      1.0000 0.51210  0.74370  0.03660  Biso   1.000  N
  H66      1.0000 0.51140  0.78230  0.01930  Biso   1.000  H
  H67      1.0000 0.51600  0.70450  0.02020  Biso   1.000  H
  O26      1.0000 0.13360  0.25570  0.01107  Biso   1.000  O
  H68      1.0000 0.17400  0.24590  0.03250  Biso   1.000  H
  Zn11     1.0000 0.55674  0.16128  0.98298  Biso   1.000  Zn
  Zn12     1.0000 0.56597  0.33707  0.98199  Biso   1.000  Zn
  Zn13     1.0000 0.69164  0.24104  0.05801  Biso   1.000  Zn
  Zn14     1.0000 0.95900  0.53939  0.70255  Biso   1.000  Zn
  Zn15     1.0000 0.01766  0.46935  0.79982  Biso   1.000  Zn
  O27      1.0000 0.44460  0.60580  0.57970  Biso   1.000  O
  O28      1.0000 0.31100  0.58810  0.55210  Biso   1.000  O
  O29      1.0000 0.08810  0.53690  0.68770  Biso   1.000  O
  O30      1.0000 0.13010  0.50450  0.76780  Biso   1.000  O
  O31      1.0000 0.65010  0.37240  0.92710  Biso   1.000  O
  O32      1.0000 0.54080  0.44010  0.94320  Biso   1.000  O
  O33      1.0000 0.88680  0.45400  0.80920  Biso   1.000  O
  O34      1.0000 0.84850  0.52880  0.74600  Biso   1.000  O
  O35      1.0000 0.98350  0.62560  0.74930  Biso   1.000  O
  O36      1.0000 0.99420  0.56950  0.82550  Biso   1.000  O
  O37      1.0000 0.98020  0.88680  0.75120  Biso   1.000  O
  O38      1.0000 0.04510  0.93700  0.82020  Biso   1.000  O
  N25      1.0000 0.44710  0.21790  0.97190  Biso   1.000  N
  N26      1.0000 0.44960  0.29000  0.97170  Biso   1.000  N
  N27      1.0000 0.31780  0.25680  0.95070  Biso   1.000  N
  N28      1.0000 0.58310  0.36590  0.05730  Biso   1.000  N
  N29      1.0000 0.63900  0.32750  0.08830  Biso   1.000  N
  N30      1.0000 0.58230  0.41080  0.13690  Biso   1.000  N
  N31      1.0000 0.56850  0.12680  0.05720  Biso   1.000  N
  N32      1.0000 0.63350  0.15650  0.08710  Biso   1.000  N
  N33      1.0000 0.56420  0.07930  0.13520  Biso   1.000  N
  C73      1.0000 0.33660  0.12680  0.95590  Biso   1.000  C
  H69      1.0000 0.38510  0.09570  0.95920  Biso   1.000  H
  H70      1.0000 0.30900  0.11930  0.92280  Biso   1.000  H
  H71      1.0000 0.29620  0.11790  0.98360  Biso   1.000  H
  C74      1.0000 0.36710  0.20040  0.95920  Biso   1.000  C
  C75      1.0000 0.37090  0.31180  0.95920  Biso   1.000  C
  C76      1.0000 0.34260  0.38570  0.95640  Biso   1.000  C
  H72      1.0000 0.31470  0.39850  0.98860  Biso   1.000  H
  H73      1.0000 0.30290  0.39140  0.92790  Biso   1.000  H
  H74      1.0000 0.39200  0.41520  0.95090  Biso   1.000  H
  C77      1.0000 0.48610  0.46780  0.06970  Biso   1.000  C
  H75      1.0000 0.47050  0.45790  0.03410  Biso   1.000  H
  H76      1.0000 0.51090  0.51370  0.07180  Biso   1.000  H
  H77      1.0000 0.43550  0.46570  0.09130  Biso   1.000  H
  C78      1.0000 0.55070  0.41490  0.08830  Biso   1.000  C
  C79      1.0000 0.63670  0.35630  0.13540  Biso   1.000  C
  C80      1.0000 0.69090  0.33190  0.18040  Biso   1.000  C
  H78      1.0000 0.72720  0.29410  0.16910  Biso   1.000  H
  H79      1.0000 0.65410  0.31610  0.20820  Biso   1.000  H
  H80      1.0000 0.72620  0.36980  0.19260  Biso   1.000  H
  C81      1.0000 0.45430  0.03770  0.06960  Biso   1.000  C
  H81      1.0000 0.40140  0.06140  0.07800  Biso   1.000  H
  H82      1.0000 0.45590  0.99350  0.08740  Biso   1.000  H
  H83      1.0000 0.45750  0.03020  0.03250  Biso   1.000  H
  C82      1.0000 0.52850  0.08100  0.08660  Biso   1.000  C
  C83      1.0000 0.62870  0.12610  0.13350  Biso   1.000  C
  C84      1.0000 0.68890  0.14070  0.17740  Biso   1.000  C
  H84      1.0000 0.72650  0.17860  0.16800  Biso   1.000  H
  H85      1.0000 0.72260  0.09980  0.18470  Biso   1.000  H
  H86      1.0000 0.65630  0.15330  0.20800  Biso   1.000  H
  C85      1.0000 0.36550  0.58590  0.58690  Biso   1.000  C
  C86      1.0000 0.34400  0.56250  0.64180  Biso   1.000  C
  C87      1.0000 0.25690  0.55350  0.65510  Biso   1.000  C
  H87      1.0000 0.21360  0.56020  0.63040  Biso   1.000  H
  C88      1.0000 0.23660  0.53420  0.70620  Biso   1.000  C
  C89      1.0000 0.14440  0.52490  0.72170  Biso   1.000  C
  C90      1.0000 0.30180  0.52500  0.74250  Biso   1.000  C
  H88      1.0000 0.28750  0.51230  0.77660  Biso   1.000  H
  C91      1.0000 0.38670  0.53420  0.72970  Biso   1.000  C
  C92      1.0000 0.40750  0.55310  0.67870  Biso   1.000  C
  H89      1.0000 0.46500  0.55950  0.66950  Biso   1.000  H
  C93      1.0000 0.60900  0.42770  0.91830  Biso   1.000  C
  C94      1.0000 0.64320  0.47710  0.87870  Biso   1.000  C
  C95      1.0000 0.72070  0.46250  0.85250  Biso   1.000  C
  H90      1.0000 0.75130  0.42190  0.86010  Biso   1.000  H
  C96      1.0000 0.75150  0.50910  0.81530  Biso   1.000  C
  C97      1.0000 0.83590  0.49560  0.78780  Biso   1.000  C
  C98      1.0000 0.70560  0.57080  0.80430  Biso   1.000  C
  H91      1.0000 0.72680  0.60190  0.77940  Biso   1.000  H
  C99      1.0000 0.62890  0.58580  0.83030  Biso   1.000  C
  C100     1.0000 0.59790  0.53860  0.86810  Biso   1.000  C
  H92      1.0000 0.54710  0.54830  0.88610  Biso   1.000  H
  C101     1.0000 0.99100  0.62410  0.79870  Biso   1.000  C
  C102     1.0000 0.99500  0.69190  0.82670  Biso   1.000  C
  C103     1.0000 0.99620  0.75510  0.79910  Biso   1.000  C
  H93      1.0000 0.98970  0.75530  0.76290  Biso   1.000  H
  C104     1.0000 0.00710  0.81760  0.82610  Biso   1.000  C
  C105     1.0000 0.01120  0.88580  0.79710  Biso   1.000  C
  C106     1.0000 0.01410  0.81790  0.88050  Biso   1.000  C
  H94      1.0000 0.02350  0.85960  0.89820  Biso   1.000  H
  C107     1.0000 0.00690  0.75530  0.90820  Biso   1.000  C
  C108     1.0000 0.00060  0.69190  0.88130  Biso   1.000  C
  H95      1.0000 0.00010  0.64990  0.89970  Biso   1.000  H
  N34      1.0000 0.45190  0.52280  0.76710  Biso   1.000  N
  H96      1.0000 0.43840  0.51000  0.79830  Biso   1.000  H
  H97      1.0000 0.50530  0.52860  0.75870  Biso   1.000  H
  N35      1.0000 0.58520  0.64630  0.81870  Biso   1.000  N
  H98      1.0000 0.60530  0.67450  0.79550  Biso   1.000  H
  H99      1.0000 0.53770  0.65590  0.83460  Biso   1.000  H
  N36      1.0000 0.01210  0.75630  0.96340  Biso   1.000  N
  H100     1.0000 0.01140  0.71770  0.98070  Biso   1.000  H
  H101     1.0000 0.01600  0.79550  0.97980  Biso   1.000  H
  O39      1.0000 0.63360  0.24430  0.98893  Biso   1.000  O
  H102     1.0000 0.67400  0.25410  0.96750  Biso   1.000  H
  Zn16     1.0000 0.94326  0.83872  0.48298  Biso   1.000  Zn
  Zn17     1.0000 0.93403  0.66293  0.48199  Biso   1.000  Zn
  Zn18     1.0000 0.80836  0.75896  0.55801  Biso   1.000  Zn
  Zn19     1.0000 0.54100  0.46061  0.20255  Biso   1.000  Zn
  Zn20     1.0000 0.48234  0.53065  0.29982  Biso   1.000  Zn
  O40      1.0000 0.05540  0.39420  0.07970  Biso   1.000  O
  O41      1.0000 0.18900  0.41190  0.05210  Biso   1.000  O
  O42      1.0000 0.41190  0.46310  0.18770  Biso   1.000  O
  O43      1.0000 0.36990  0.49550  0.26780  Biso   1.000  O
  O44      1.0000 0.84990  0.62760  0.42710  Biso   1.000  O
  O45      1.0000 0.95920  0.55990  0.44320  Biso   1.000  O
  O46      1.0000 0.61320  0.54600  0.30920  Biso   1.000  O
  O47      1.0000 0.65150  0.47120  0.24600  Biso   1.000  O
  O48      1.0000 0.51650  0.37440  0.24930  Biso   1.000  O
  O49      1.0000 0.50580  0.43050  0.32550  Biso   1.000  O
  O50      1.0000 0.51980  0.11320  0.25120  Biso   1.000  O
  O51      1.0000 0.45490  0.06300  0.32020  Biso   1.000  O
  N37      1.0000 0.05290  0.78210  0.47190  Biso   1.000  N
  N38      1.0000 0.05040  0.71000  0.47170  Biso   1.000  N
  N39      1.0000 0.18220  0.74320  0.45070  Biso   1.000  N
  N40      1.0000 0.91690  0.63410  0.55730  Biso   1.000  N
  N41      1.0000 0.86100  0.67250  0.58830  Biso   1.000  N
  N42      1.0000 0.91770  0.58920  0.63690  Biso   1.000  N
  N43      1.0000 0.93150  0.87320  0.55720  Biso   1.000  N
  N44      1.0000 0.86650  0.84350  0.58710  Biso   1.000  N
  N45      1.0000 0.93580  0.92070  0.63520  Biso   1.000  N
  C109     1.0000 0.16340  0.87320  0.45590  Biso   1.000  C
  H103     1.0000 0.11490  0.90430  0.45920  Biso   1.000  H
  H104     1.0000 0.19100  0.88070  0.42280  Biso   1.000  H
  H105     1.0000 0.20380  0.88210  0.48360  Biso   1.000  H
  C110     1.0000 0.13290  0.79960  0.45920  Biso   1.000  C
  C111     1.0000 0.12910  0.68820  0.45920  Biso   1.000  C
  C112     1.0000 0.15740  0.61430  0.45640  Biso   1.000  C
  H106     1.0000 0.18530  0.60150  0.48860  Biso   1.000  H
  H107     1.0000 0.19710  0.60860  0.42790  Biso   1.000  H
  H108     1.0000 0.10800  0.58480  0.45090  Biso   1.000  H
  C113     1.0000 0.01390  0.53220  0.56970  Biso   1.000  C
  H109     1.0000 0.02950  0.54210  0.53410  Biso   1.000  H
  H110     1.0000 0.98910  0.48630  0.57180  Biso   1.000  H
  H111     1.0000 0.06450  0.53430  0.59130  Biso   1.000  H
  C114     1.0000 0.94930  0.58510  0.58830  Biso   1.000  C
  C115     1.0000 0.86330  0.64370  0.63540  Biso   1.000  C
  C116     1.0000 0.80910  0.66810  0.68040  Biso   1.000  C
  H112     1.0000 0.77280  0.70590  0.66910  Biso   1.000  H
  H113     1.0000 0.84590  0.68390  0.70820  Biso   1.000  H
  H114     1.0000 0.77380  0.63020  0.69260  Biso   1.000  H
  C117     1.0000 0.04570  0.96230  0.56960  Biso   1.000  C
  H115     1.0000 0.09860  0.93860  0.57800  Biso   1.000  H
  H116     1.0000 0.04410  0.00650  0.58740  Biso   1.000  H
  H117     1.0000 0.04250  0.96980  0.53250  Biso   1.000  H
  C118     1.0000 0.97150  0.91900  0.58660  Biso   1.000  C
  C119     1.0000 0.87130  0.87390  0.63350  Biso   1.000  C
  C120     1.0000 0.81110  0.85930  0.67740  Biso   1.000  C
  H118     1.0000 0.77350  0.82140  0.66800  Biso   1.000  H
  H119     1.0000 0.77740  0.90020  0.68470  Biso   1.000  H
  H120     1.0000 0.84370  0.84670  0.70800  Biso   1.000  H
  C121     1.0000 0.13450  0.41410  0.08690  Biso   1.000  C
  C122     1.0000 0.15600  0.43750  0.14180  Biso   1.000  C
  C123     1.0000 0.24310  0.44650  0.15510  Biso   1.000  C
  H121     1.0000 0.28640  0.43980  0.13040  Biso   1.000  H
  C124     1.0000 0.26340  0.46580  0.20620  Biso   1.000  C
  C125     1.0000 0.35560  0.47510  0.22170  Biso   1.000  C
  C126     1.0000 0.19820  0.47500  0.24250  Biso   1.000  C
  H122     1.0000 0.21250  0.48770  0.27660  Biso   1.000  H
  C127     1.0000 0.11330  0.46580  0.22970  Biso   1.000  C
  C128     1.0000 0.09250  0.44690  0.17870  Biso   1.000  C
  H123     1.0000 0.03500  0.44050  0.16950  Biso   1.000  H
  C129     1.0000 0.89100  0.57230  0.41830  Biso   1.000  C
  C130     1.0000 0.85680  0.52290  0.37870  Biso   1.000  C
  C131     1.0000 0.77930  0.53750  0.35250  Biso   1.000  C
  H124     1.0000 0.74870  0.57810  0.36010  Biso   1.000  H
  C132     1.0000 0.74850  0.49090  0.31530  Biso   1.000  C
  C133     1.0000 0.66410  0.50440  0.28780  Biso   1.000  C
  C134     1.0000 0.79440  0.42920  0.30430  Biso   1.000  C
  H125     1.0000 0.77320  0.39810  0.27940  Biso   1.000  H
  C135     1.0000 0.87110  0.41420  0.33030  Biso   1.000  C
  C136     1.0000 0.90210  0.46140  0.36810  Biso   1.000  C
  H126     1.0000 0.95290  0.45170  0.38610  Biso   1.000  H
  C137     1.0000 0.50900  0.37590  0.29870  Biso   1.000  C
  C138     1.0000 0.50500  0.30810  0.32670  Biso   1.000  C
  C139     1.0000 0.50380  0.24490  0.29910  Biso   1.000  C
  H127     1.0000 0.51030  0.24470  0.26290  Biso   1.000  H
  C140     1.0000 0.49290  0.18240  0.32610  Biso   1.000  C
  C141     1.0000 0.48880  0.11420  0.29710  Biso   1.000  C
  C142     1.0000 0.48590  0.18210  0.38050  Biso   1.000  C
  H128     1.0000 0.47650  0.14040  0.39820  Biso   1.000  H
  C143     1.0000 0.49310  0.24470  0.40820  Biso   1.000  C
  C144     1.0000 0.49940  0.30810  0.38130  Biso   1.000  C
  H129     1.0000 0.49990  0.35010  0.39970  Biso   1.000  H
  N46      1.0000 0.04810  0.47720  0.26710  Biso   1.000  N
  H130     1.0000 0.06160  0.49000  0.29830  Biso   1.000  H
  H131     1.0000 0.99470  0.47140  0.25870  Biso   1.000  H
  N47      1.0000 0.91480  0.35370  0.31870  Biso   1.000  N
  H132     1.0000 0.89470  0.32550  0.29550  Biso   1.000  H
  H133     1.0000 0.96230  0.34410  0.33460  Biso   1.000  H
  N48      1.0000 0.48790  0.24370  0.46340  Biso   1.000  N
  H134     1.0000 0.48860  0.28230  0.48070  Biso   1.000  H
  H135     1.0000 0.48400  0.20450  0.47980  Biso   1.000  H
  O52      1.0000 0.86640  0.75570  0.48893  Biso   1.000  O
  H136     1.0000 0.82600  0.74590  0.46750  Biso   1.000  H
