data_HURGUX_clean
_audit_creation_date              2014-07-02
_audit_creation_method            'Materials Studio'
_symmetry_space_group_name_H-M    'P1'
_symmetry_Int_Tables_number       1
_symmetry_cell_setting            triclinic
loop_
_symmetry_equiv_pos_as_xyz
  x,y,z
_cell_length_a                    11.3850
_cell_length_b                    11.6060
_cell_length_c                    19.1250
_cell_angle_alpha                 90.0000
_cell_angle_beta                  90.0000
_cell_angle_gamma                 115.6840
loop_
_atom_site_label
_atom_site_type_symbol
_atom_site_fract_x
_atom_site_fract_y
_atom_site_fract_z
_atom_site_U_iso_or_equiv
_atom_site_adp_type
_atom_site_occupancy
Ni1    Ni    0.67351   0.82916   0.49506   0.01267  Uiso   1.00
Ni2    Ni    0.82649   0.67084   0.99506   0.01267  Uiso   1.00
Ni3    Ni    0.32649   0.17084   0.50494   0.01267  Uiso   1.00
Ni4    Ni    0.17351   0.32916   0.00494   0.01267  Uiso   1.00
Ni5    Ni    0.50000   0.50000   0.50000   0.01267  Uiso   1.00
Ni6    Ni    0.00000   0.00000   0.00000   0.01267  Uiso   1.00
H1     H     0.79190   0.51590   0.55190   0.01267  Uiso   1.00
H2     H     0.87060   0.36700   0.61010   0.01267  Uiso   1.00
H3     H     0.99040   0.72690   0.38820   0.01267  Uiso   1.00
H4     H     0.07600   0.60850   0.14620   0.01267  Uiso   1.00
H5     H     0.15840   0.48530   0.22740   0.01267  Uiso   1.00
H6     H     0.29300   0.48750   0.31620   0.01267  Uiso   1.00
H7     H     0.44940   0.86990   0.32580   0.01267  Uiso   1.00
H8     H     0.37600   0.98990   0.24410   0.01267  Uiso   1.00
H9     H     0.24760   0.99190   0.15300   0.01267  Uiso   1.00
H10    H     0.59630   0.04460   0.54050   0.01267  Uiso   1.00
H11    H     0.70860   0.17340   0.51380   0.01267  Uiso   1.00
H12    H     0.73830   0.08980   0.56970   0.01267  Uiso   1.00
H13    H     0.86460   0.04480   0.40900   0.01267  Uiso   1.00
H14    H     0.86590   0.17430   0.43460   0.01267  Uiso   1.00
H15    H     0.91040   0.09300   0.48540   0.01267  Uiso   1.00
H16    H     0.66520   0.01410   0.43750   0.01267  Uiso   1.00
H17    H     0.70810   0.98410   0.05190   0.01267  Uiso   1.00
H18    H     0.62940   0.13300   0.11010   0.01267  Uiso   1.00
H19    H     0.50960   0.77310   0.88820   0.01267  Uiso   1.00
H20    H     0.42400   0.89150   0.64620   0.01267  Uiso   1.00
H21    H     0.34160   0.01470   0.72740   0.01267  Uiso   1.00
H22    H     0.20700   0.01250   0.81620   0.01267  Uiso   1.00
H23    H     0.05060   0.63010   0.82580   0.01267  Uiso   1.00
H24    H     0.12400   0.51010   0.74410   0.01267  Uiso   1.00
H25    H     0.25240   0.50810   0.65300   0.01267  Uiso   1.00
H26    H     0.90370   0.45540   0.04050   0.01267  Uiso   1.00
H27    H     0.79140   0.32660   0.01380   0.01267  Uiso   1.00
H28    H     0.76170   0.41020   0.06970   0.01267  Uiso   1.00
H29    H     0.63540   0.45520   0.90900   0.01267  Uiso   1.00
H30    H     0.63410   0.32570   0.93460   0.01267  Uiso   1.00
H31    H     0.58960   0.40700   0.98540   0.01267  Uiso   1.00
H32    H     0.83480   0.48590   0.93750   0.01267  Uiso   1.00
H33    H     0.20810   0.48410   0.44810   0.01267  Uiso   1.00
H34    H     0.12940   0.63300   0.38990   0.01267  Uiso   1.00
H35    H     0.00960   0.27310   0.61180   0.01267  Uiso   1.00
H36    H     0.92400   0.39150   0.85380   0.01267  Uiso   1.00
H37    H     0.84160   0.51470   0.77260   0.01267  Uiso   1.00
H38    H     0.70700   0.51250   0.68380   0.01267  Uiso   1.00
H39    H     0.55060   0.13010   0.67420   0.01267  Uiso   1.00
H40    H     0.62400   0.01010   0.75590   0.01267  Uiso   1.00
H41    H     0.75240   0.00810   0.84700   0.01267  Uiso   1.00
H42    H     0.40370   0.95540   0.45950   0.01267  Uiso   1.00
H43    H     0.29140   0.82660   0.48620   0.01267  Uiso   1.00
H44    H     0.26170   0.91020   0.43030   0.01267  Uiso   1.00
H45    H     0.13540   0.95520   0.59100   0.01267  Uiso   1.00
H46    H     0.13410   0.82570   0.56540   0.01267  Uiso   1.00
H47    H     0.08960   0.90700   0.51460   0.01267  Uiso   1.00
H48    H     0.33480   0.98590   0.56250   0.01267  Uiso   1.00
H49    H     0.29190   0.01590   0.94810   0.01267  Uiso   1.00
H50    H     0.37060   0.86700   0.88990   0.01267  Uiso   1.00
H51    H     0.49040   0.22690   0.11180   0.01267  Uiso   1.00
H52    H     0.57600   0.10850   0.35380   0.01267  Uiso   1.00
H53    H     0.65840   0.98530   0.27260   0.01267  Uiso   1.00
H54    H     0.79300   0.98750   0.18380   0.01267  Uiso   1.00
H55    H     0.94940   0.36990   0.17420   0.01267  Uiso   1.00
H56    H     0.87600   0.48990   0.25590   0.01267  Uiso   1.00
H57    H     0.74760   0.49190   0.34700   0.01267  Uiso   1.00
H58    H     0.09630   0.54460   0.95950   0.01267  Uiso   1.00
H59    H     0.20860   0.67340   0.98620   0.01267  Uiso   1.00
H60    H     0.23830   0.58980   0.93030   0.01267  Uiso   1.00
H61    H     0.36460   0.54480   0.09100   0.01267  Uiso   1.00
H62    H     0.36590   0.67430   0.06540   0.01267  Uiso   1.00
H63    H     0.41040   0.59300   0.01460   0.01267  Uiso   1.00
H64    H     0.16520   0.51410   0.06250   0.01267  Uiso   1.00
C1     C     0.47260   0.67960   0.39010   0.01267  Uiso   1.00
C2     C     0.79100   0.69860   0.47080   0.01267  Uiso   1.00
C3     C     0.87710   0.62950   0.47080   0.01267  Uiso   1.00
C4     C     0.86140   0.54000   0.52060   0.01267  Uiso   1.00
C5     C     0.94860   0.48220   0.52440   0.01267  Uiso   1.00
C6     C     0.93710   0.39060   0.57680   0.01267  Uiso   1.00
C7     C     0.98070   0.66600   0.42190   0.01267  Uiso   1.00
C8     C     0.05840   0.80500   0.08370   0.01267  Uiso   1.00
C9     C     0.14700   0.79920   0.14160   0.01267  Uiso   1.00
C10    C     0.13760   0.68470   0.16610   0.01267  Uiso   1.00
C11    C     0.21950   0.68030   0.22120   0.01267  Uiso   1.00
C12    C     0.21590   0.56300   0.24720   0.01267  Uiso   1.00
C13    C     0.29620   0.56410   0.30010   0.01267  Uiso   1.00
C14    C     0.38420   0.67970   0.33080   0.01267  Uiso   1.00
C15    C     0.39000   0.79300   0.30650   0.01267  Uiso   1.00
C16    C     0.30930   0.79660   0.25140   0.01267  Uiso   1.00
C17    C     0.31700   0.91310   0.22470   0.01267  Uiso   1.00
C18    C     0.23970   0.91420   0.17110   0.01267  Uiso   1.00
C19    C     0.68740   0.08750   0.52910   0.01267  Uiso   1.00
C20    C     0.85100   0.08850   0.44850   0.01267  Uiso   1.00
C21    C     0.02740   0.82040   0.89010   0.01267  Uiso   1.00
C22    C     0.70900   0.80140   0.97080   0.01267  Uiso   1.00
C23    C     0.62290   0.87050   0.97080   0.01267  Uiso   1.00
C24    C     0.63860   0.96000   0.02060   0.01267  Uiso   1.00
C25    C     0.55140   0.01780   0.02440   0.01267  Uiso   1.00
C26    C     0.56290   0.10940   0.07680   0.01267  Uiso   1.00
C27    C     0.51930   0.83400   0.92190   0.01267  Uiso   1.00
C28    C     0.44160   0.69500   0.58370   0.01267  Uiso   1.00
C29    C     0.35300   0.70080   0.64160   0.01267  Uiso   1.00
C30    C     0.36240   0.81530   0.66610   0.01267  Uiso   1.00
C31    C     0.28050   0.81970   0.72120   0.01267  Uiso   1.00
C32    C     0.28410   0.93700   0.74720   0.01267  Uiso   1.00
C33    C     0.20380   0.93590   0.80010   0.01267  Uiso   1.00
C34    C     0.11580   0.82030   0.83080   0.01267  Uiso   1.00
C35    C     0.11000   0.70700   0.80650   0.01267  Uiso   1.00
C36    C     0.19070   0.70340   0.75140   0.01267  Uiso   1.00
C37    C     0.18300   0.58690   0.72470   0.01267  Uiso   1.00
C38    C     0.26030   0.58580   0.67110   0.01267  Uiso   1.00
C39    C     0.81260   0.41250   0.02910   0.01267  Uiso   1.00
C40    C     0.64900   0.41150   0.94850   0.01267  Uiso   1.00
C41    C     0.52740   0.32040   0.60990   0.01267  Uiso   1.00
C42    C     0.20900   0.30140   0.52920   0.01267  Uiso   1.00
C43    C     0.12290   0.37050   0.52920   0.01267  Uiso   1.00
C44    C     0.13860   0.46000   0.47940   0.01267  Uiso   1.00
C45    C     0.05140   0.51780   0.47560   0.01267  Uiso   1.00
C46    C     0.06290   0.60940   0.42320   0.01267  Uiso   1.00
C47    C     0.01930   0.33400   0.57810   0.01267  Uiso   1.00
C48    C     0.94160   0.19500   0.91630   0.01267  Uiso   1.00
C49    C     0.85300   0.20080   0.85840   0.01267  Uiso   1.00
C50    C     0.86240   0.31530   0.83390   0.01267  Uiso   1.00
C51    C     0.78050   0.31970   0.77880   0.01267  Uiso   1.00
C52    C     0.78410   0.43700   0.75280   0.01267  Uiso   1.00
C53    C     0.70380   0.43590   0.69990   0.01267  Uiso   1.00
C54    C     0.61580   0.32030   0.66920   0.01267  Uiso   1.00
C55    C     0.61000   0.20700   0.69350   0.01267  Uiso   1.00
C56    C     0.69070   0.20340   0.74860   0.01267  Uiso   1.00
C57    C     0.68300   0.08690   0.77530   0.01267  Uiso   1.00
C58    C     0.76030   0.08580   0.82890   0.01267  Uiso   1.00
C59    C     0.31260   0.91250   0.47090   0.01267  Uiso   1.00
C60    C     0.14900   0.91150   0.55150   0.01267  Uiso   1.00
C61    C     0.97260   0.17960   0.10990   0.01267  Uiso   1.00
C62    C     0.29100   0.19860   0.02920   0.01267  Uiso   1.00
C63    C     0.37710   0.12950   0.02920   0.01267  Uiso   1.00
C64    C     0.36140   0.04000   0.97940   0.01267  Uiso   1.00
C65    C     0.44860   0.98220   0.97560   0.01267  Uiso   1.00
C66    C     0.43710   0.89060   0.92320   0.01267  Uiso   1.00
C67    C     0.48070   0.16600   0.07810   0.01267  Uiso   1.00
C68    C     0.55840   0.30500   0.41630   0.01267  Uiso   1.00
C69    C     0.64700   0.29920   0.35840   0.01267  Uiso   1.00
C70    C     0.63760   0.18470   0.33390   0.01267  Uiso   1.00
C71    C     0.71950   0.18030   0.27880   0.01267  Uiso   1.00
C72    C     0.71590   0.06300   0.25280   0.01267  Uiso   1.00
C73    C     0.79620   0.06410   0.19990   0.01267  Uiso   1.00
C74    C     0.88420   0.17970   0.16920   0.01267  Uiso   1.00
C75    C     0.89000   0.29300   0.19350   0.01267  Uiso   1.00
C76    C     0.80930   0.29660   0.24860   0.01267  Uiso   1.00
C77    C     0.81700   0.41310   0.27530   0.01267  Uiso   1.00
C78    C     0.73970   0.41420   0.32890   0.01267  Uiso   1.00
C79    C     0.18740   0.58750   0.97090   0.01267  Uiso   1.00
C80    C     0.35100   0.58850   0.05150   0.01267  Uiso   1.00
N1     N     0.71630   0.01680   0.47307   0.01267  Uiso   1.00
N2     N     0.78370   0.48320   0.97307   0.01267  Uiso   1.00
N3     N     0.28370   0.98320   0.52693   0.01267  Uiso   1.00
N4     N     0.21630   0.51680   0.02693   0.01267  Uiso   1.00
O1     O     0.44800   0.57070   0.41492   0.01267  Uiso   1.00
O2     O     0.55910   0.78530   0.40915   0.01267  Uiso   1.00
O3     O     0.68570   0.65490   0.50700   0.01267  Uiso   1.00
O4     O     0.82740   0.80380   0.44034   0.01267  Uiso   1.00
O5     O     0.97690   0.69920   0.05923   0.01267  Uiso   1.00
O6     O     0.07210   0.91460   0.06748   0.01267  Uiso   1.00
O7     O     0.05200   0.92930   0.91492   0.01267  Uiso   1.00
O8     O     0.94090   0.71470   0.90915   0.01267  Uiso   1.00
O9     O     0.81430   0.84510   0.00700   0.01267  Uiso   1.00
O10    O     0.67260   0.69620   0.94034   0.01267  Uiso   1.00
O11    O     0.52310   0.80080   0.55923   0.01267  Uiso   1.00
O12    O     0.42790   0.58540   0.56748   0.01267  Uiso   1.00
O13    O     0.55200   0.42930   0.58508   0.01267  Uiso   1.00
O14    O     0.44090   0.21470   0.59085   0.01267  Uiso   1.00
O15    O     0.31430   0.34510   0.49300   0.01267  Uiso   1.00
O16    O     0.17260   0.19620   0.55966   0.01267  Uiso   1.00
O17    O     0.02310   0.30080   0.94077   0.01267  Uiso   1.00
O18    O     0.92790   0.08540   0.93252   0.01267  Uiso   1.00
O19    O     0.94800   0.07070   0.08508   0.01267  Uiso   1.00
O20    O     0.05910   0.28530   0.09085   0.01267  Uiso   1.00
O21    O     0.18570   0.15490   0.99300   0.01267  Uiso   1.00
O22    O     0.32740   0.30380   0.05966   0.01267  Uiso   1.00
O23    O     0.47690   0.19920   0.44077   0.01267  Uiso   1.00
O24    O     0.57210   0.41460   0.43252   0.01267  Uiso   1.00
