data_HURGUX01_clean
_audit_creation_date              2014-07-02
_audit_creation_method            'Materials Studio'
_symmetry_space_group_name_H-M    'P1'
_symmetry_Int_Tables_number       1
_symmetry_cell_setting            triclinic
loop_
_symmetry_equiv_pos_as_xyz
  x,y,z
_cell_length_a                    11.3780
_cell_length_b                    11.6259
_cell_length_c                    19.1060
_cell_angle_alpha                 90.0000
_cell_angle_beta                  90.0000
_cell_angle_gamma                 115.7530
loop_
_atom_site_label
_atom_site_type_symbol
_atom_site_fract_x
_atom_site_fract_y
_atom_site_fract_z
_atom_site_U_iso_or_equiv
_atom_site_adp_type
_atom_site_occupancy
Ni1    Ni    0.17403   0.82933   0.00515   0.01267  Uiso   1.00
Ni2    Ni    0.32597   0.67067   0.50515   0.01267  Uiso   1.00
Ni3    Ni    0.82597   0.17067   0.99485   0.01267  Uiso   1.00
Ni4    Ni    0.67403   0.32933   0.49485   0.01267  Uiso   1.00
Ni5    Ni    0.00000   0.50000   0.00000   0.01267  Uiso   1.00
Ni6    Ni    0.50000   0.00000   0.50000   0.01267  Uiso   1.00
H1     H     0.16420   0.01520   0.06500   0.01267  Uiso   1.00
H2     H     0.29210   0.51520   0.94740   0.01267  Uiso   1.00
H3     H     0.49140   0.72920   0.11090   0.01267  Uiso   1.00
H4     H     0.37120   0.36810   0.89010   0.01267  Uiso   1.00
H5     H     0.20750   0.51320   0.81590   0.01267  Uiso   1.00
H6     H     0.34340   0.51340   0.72810   0.01267  Uiso   1.00
H7     H     0.42540   0.39110   0.64770   0.01267  Uiso   1.00
H8     H     0.25440   0.00940   0.65350   0.01267  Uiso   1.00
H9     H     0.12300   0.01000   0.74410   0.01267  Uiso   1.00
H10    H     0.05170   0.13300   0.82720   0.01267  Uiso   1.00
H11    H     0.36720   0.17500   0.06510   0.01267  Uiso   1.00
H12    H     0.36690   0.04800   0.09290   0.01267  Uiso   1.00
H13    H     0.41260   0.09370   0.01620   0.01267  Uiso   1.00
H14    H     0.20580   0.17260   0.98730   0.01267  Uiso   1.00
H15    H     0.24050   0.09420   0.93100   0.01267  Uiso   1.00
H16    H     0.09700   0.04390   0.95870   0.01267  Uiso   1.00
H17    H     0.33580   0.48480   0.56500   0.01267  Uiso   1.00
H18    H     0.20790   0.98480   0.44740   0.01267  Uiso   1.00
H19    H     0.00860   0.77080   0.61090   0.01267  Uiso   1.00
H20    H     0.12880   0.13190   0.39010   0.01267  Uiso   1.00
H21    H     0.29250   0.98680   0.31590   0.01267  Uiso   1.00
H22    H     0.15660   0.98660   0.22810   0.01267  Uiso   1.00
H23    H     0.07460   0.10890   0.14770   0.01267  Uiso   1.00
H24    H     0.24560   0.49060   0.15350   0.01267  Uiso   1.00
H25    H     0.37700   0.49000   0.24410   0.01267  Uiso   1.00
H26    H     0.44830   0.36700   0.32720   0.01267  Uiso   1.00
H27    H     0.13280   0.32500   0.56510   0.01267  Uiso   1.00
H28    H     0.13310   0.45200   0.59290   0.01267  Uiso   1.00
H29    H     0.08740   0.40630   0.51620   0.01267  Uiso   1.00
H30    H     0.29420   0.32740   0.48730   0.01267  Uiso   1.00
H31    H     0.25950   0.40580   0.43100   0.01267  Uiso   1.00
H32    H     0.40300   0.45610   0.45870   0.01267  Uiso   1.00
H33    H     0.83580   0.98480   0.93500   0.01267  Uiso   1.00
H34    H     0.70790   0.48480   0.05260   0.01267  Uiso   1.00
H35    H     0.50860   0.27080   0.88910   0.01267  Uiso   1.00
H36    H     0.62880   0.63190   0.10990   0.01267  Uiso   1.00
H37    H     0.79250   0.48680   0.18410   0.01267  Uiso   1.00
H38    H     0.65660   0.48660   0.27190   0.01267  Uiso   1.00
H39    H     0.57460   0.60890   0.35230   0.01267  Uiso   1.00
H40    H     0.74560   0.99060   0.34650   0.01267  Uiso   1.00
H41    H     0.87700   0.99000   0.25590   0.01267  Uiso   1.00
H42    H     0.94830   0.86700   0.17280   0.01267  Uiso   1.00
H43    H     0.63280   0.82500   0.93490   0.01267  Uiso   1.00
H44    H     0.63310   0.95200   0.90710   0.01267  Uiso   1.00
H45    H     0.58740   0.90630   0.98380   0.01267  Uiso   1.00
H46    H     0.79420   0.82740   0.01270   0.01267  Uiso   1.00
H47    H     0.75950   0.90580   0.06900   0.01267  Uiso   1.00
H48    H     0.90300   0.95610   0.04130   0.01267  Uiso   1.00
H49    H     0.66420   0.51520   0.43500   0.01267  Uiso   1.00
H50    H     0.79210   0.01520   0.55260   0.01267  Uiso   1.00
H51    H     0.99140   0.22920   0.38910   0.01267  Uiso   1.00
H52    H     0.87120   0.86810   0.60990   0.01267  Uiso   1.00
H53    H     0.70750   0.01320   0.68410   0.01267  Uiso   1.00
H54    H     0.84340   0.01340   0.77190   0.01267  Uiso   1.00
H55    H     0.92540   0.89110   0.85230   0.01267  Uiso   1.00
H56    H     0.75440   0.50940   0.84650   0.01267  Uiso   1.00
H57    H     0.62300   0.51000   0.75590   0.01267  Uiso   1.00
H58    H     0.55170   0.63300   0.67280   0.01267  Uiso   1.00
H59    H     0.86720   0.67500   0.43490   0.01267  Uiso   1.00
H60    H     0.86690   0.54800   0.40710   0.01267  Uiso   1.00
H61    H     0.91260   0.59370   0.48380   0.01267  Uiso   1.00
H62    H     0.70580   0.67260   0.51270   0.01267  Uiso   1.00
H63    H     0.74050   0.59420   0.56900   0.01267  Uiso   1.00
H64    H     0.59700   0.54390   0.54130   0.01267  Uiso   1.00
C1     C     0.29180   0.69860   0.02870   0.01267  Uiso   1.00
C2     C     0.37650   0.62910   0.02900   0.01267  Uiso   1.00
C3     C     0.36060   0.53950   0.97920   0.01267  Uiso   1.00
C4     C     0.44950   0.48330   0.97610   0.01267  Uiso   1.00
C5     C     0.48000   0.66640   0.07790   0.01267  Uiso   1.00
C6     C     0.43690   0.39020   0.92360   0.01267  Uiso   1.00
C7     C     0.02890   0.32320   0.89010   0.01267  Uiso   1.00
C8     C     0.11590   0.32140   0.83060   0.01267  Uiso   1.00
C9     C     0.20410   0.43620   0.80000   0.01267  Uiso   1.00
C10    C     0.28460   0.43620   0.74730   0.01267  Uiso   1.00
C11    C     0.36300   0.31530   0.66640   0.01267  Uiso   1.00
C12    C     0.35230   0.20030   0.64100   0.01267  Uiso   1.00
C13    C     0.26150   0.08700   0.67080   0.01267  Uiso   1.00
C14    C     0.18210   0.08690   0.72490   0.01267  Uiso   1.00
C15    C     0.19030   0.20410   0.75160   0.01267  Uiso   1.00
C16    C     0.28000   0.31980   0.72110   0.01267  Uiso   1.00
C17    C     0.11010   0.20890   0.80670   0.01267  Uiso   1.00
C18    C     0.44300   0.19490   0.58410   0.01267  Uiso   1.00
C19    C     0.35290   0.08990   0.05260   0.01267  Uiso   1.00
C20    C     0.18760   0.08830   0.97120   0.01267  Uiso   1.00
C21    C     0.20820   0.80140   0.52870   0.01267  Uiso   1.00
C22    C     0.12350   0.87090   0.52900   0.01267  Uiso   1.00
C23    C     0.13940   0.96050   0.47920   0.01267  Uiso   1.00
C24    C     0.05050   0.01670   0.47610   0.01267  Uiso   1.00
C25    C     0.02000   0.83360   0.57790   0.01267  Uiso   1.00
C26    C     0.06310   0.10980   0.42360   0.01267  Uiso   1.00
C27    C     0.47110   0.17680   0.39010   0.01267  Uiso   1.00
C28    C     0.38410   0.17860   0.33060   0.01267  Uiso   1.00
C29    C     0.29590   0.06380   0.30000   0.01267  Uiso   1.00
C30    C     0.21540   0.06380   0.24730   0.01267  Uiso   1.00
C31    C     0.13700   0.18470   0.16640   0.01267  Uiso   1.00
C32    C     0.14770   0.29970   0.14100   0.01267  Uiso   1.00
C33    C     0.23850   0.41300   0.17080   0.01267  Uiso   1.00
C34    C     0.31790   0.41310   0.22490   0.01267  Uiso   1.00
C35    C     0.30970   0.29590   0.25160   0.01267  Uiso   1.00
C36    C     0.22000   0.18020   0.22110   0.01267  Uiso   1.00
C37    C     0.38990   0.29110   0.30670   0.01267  Uiso   1.00
C38    C     0.05700   0.30510   0.08410   0.01267  Uiso   1.00
C39    C     0.14710   0.41010   0.55260   0.01267  Uiso   1.00
C40    C     0.31240   0.41170   0.47120   0.01267  Uiso   1.00
C41    C     0.70820   0.30140   0.97130   0.01267  Uiso   1.00
C42    C     0.62350   0.37090   0.97100   0.01267  Uiso   1.00
C43    C     0.63940   0.46050   0.02080   0.01267  Uiso   1.00
C44    C     0.55050   0.51670   0.02390   0.01267  Uiso   1.00
C45    C     0.52000   0.33360   0.92210   0.01267  Uiso   1.00
C46    C     0.56310   0.60980   0.07640   0.01267  Uiso   1.00
C47    C     0.97110   0.67680   0.10990   0.01267  Uiso   1.00
C48    C     0.88410   0.67860   0.16940   0.01267  Uiso   1.00
C49    C     0.79590   0.56380   0.20000   0.01267  Uiso   1.00
C50    C     0.71540   0.56380   0.25270   0.01267  Uiso   1.00
C51    C     0.63700   0.68470   0.33360   0.01267  Uiso   1.00
C52    C     0.64770   0.79970   0.35900   0.01267  Uiso   1.00
C53    C     0.73850   0.91300   0.32920   0.01267  Uiso   1.00
C54    C     0.81790   0.91310   0.27510   0.01267  Uiso   1.00
C55    C     0.80970   0.79590   0.24840   0.01267  Uiso   1.00
C56    C     0.72000   0.68020   0.27890   0.01267  Uiso   1.00
C57    C     0.88990   0.79110   0.19330   0.01267  Uiso   1.00
C58    C     0.55700   0.80510   0.41590   0.01267  Uiso   1.00
C59    C     0.64710   0.91010   0.94740   0.01267  Uiso   1.00
C60    C     0.81240   0.91170   0.02880   0.01267  Uiso   1.00
C61    C     0.79180   0.19860   0.47130   0.01267  Uiso   1.00
C62    C     0.87650   0.12910   0.47100   0.01267  Uiso   1.00
C63    C     0.86060   0.03950   0.52080   0.01267  Uiso   1.00
C64    C     0.94950   0.98330   0.52390   0.01267  Uiso   1.00
C65    C     0.98000   0.16640   0.42210   0.01267  Uiso   1.00
C66    C     0.93690   0.89020   0.57640   0.01267  Uiso   1.00
C67    C     0.52890   0.82320   0.60990   0.01267  Uiso   1.00
C68    C     0.61590   0.82140   0.66940   0.01267  Uiso   1.00
C69    C     0.70410   0.93620   0.70000   0.01267  Uiso   1.00
C70    C     0.78460   0.93620   0.75270   0.01267  Uiso   1.00
C71    C     0.86300   0.81530   0.83360   0.01267  Uiso   1.00
C72    C     0.85230   0.70030   0.85900   0.01267  Uiso   1.00
C73    C     0.76150   0.58700   0.82920   0.01267  Uiso   1.00
C74    C     0.68210   0.58690   0.77510   0.01267  Uiso   1.00
C75    C     0.69030   0.70410   0.74840   0.01267  Uiso   1.00
C76    C     0.78000   0.81980   0.77890   0.01267  Uiso   1.00
C77    C     0.61010   0.70890   0.69330   0.01267  Uiso   1.00
C78    C     0.94300   0.69490   0.91590   0.01267  Uiso   1.00
C79    C     0.85290   0.58990   0.44740   0.01267  Uiso   1.00
C80    C     0.68760   0.58830   0.52880   0.01267  Uiso   1.00
N1     N     0.21740   0.01770   0.02750   0.01267  Uiso   1.00
N2     N     0.28260   0.48230   0.52750   0.01267  Uiso   1.00
N3     N     0.78260   0.98230   0.97250   0.01267  Uiso   1.00
N4     N     0.71740   0.51770   0.47250   0.01267  Uiso   1.00
O1     O     0.32790   0.80380   0.05980   0.01267  Uiso   1.00
O2     O     0.18610   0.65620   0.99263   0.01267  Uiso   1.00
O3     O     0.05130   0.42950   0.91440   0.01267  Uiso   1.00
O4     O     0.94120   0.21530   0.90913   0.01267  Uiso   1.00
O5     O     0.42730   0.08610   0.56770   0.01267  Uiso   1.00
O6     O     0.52360   0.30080   0.55949   0.01267  Uiso   1.00
O7     O     0.17210   0.69620   0.55980   0.01267  Uiso   1.00
O8     O     0.31390   0.84380   0.49263   0.01267  Uiso   1.00
O9     O     0.44870   0.07050   0.41440   0.01267  Uiso   1.00
O10    O     0.55880   0.28470   0.40913   0.01267  Uiso   1.00
O11    O     0.07270   0.41390   0.06770   0.01267  Uiso   1.00
O12    O     0.97640   0.19920   0.05949   0.01267  Uiso   1.00
O13    O     0.67210   0.19620   0.94020   0.01267  Uiso   1.00
O14    O     0.81390   0.34380   0.00737   0.01267  Uiso   1.00
O15    O     0.94870   0.57050   0.08560   0.01267  Uiso   1.00
O16    O     0.05880   0.78470   0.09087   0.01267  Uiso   1.00
O17    O     0.57270   0.91390   0.43230   0.01267  Uiso   1.00
O18    O     0.47640   0.69920   0.44051   0.01267  Uiso   1.00
O19    O     0.82790   0.30380   0.44020   0.01267  Uiso   1.00
O20    O     0.68610   0.15620   0.50737   0.01267  Uiso   1.00
O21    O     0.55130   0.92950   0.58560   0.01267  Uiso   1.00
O22    O     0.44120   0.71530   0.59087   0.01267  Uiso   1.00
O23    O     0.92730   0.58610   0.93230   0.01267  Uiso   1.00
O24    O     0.02360   0.80080   0.94051   0.01267  Uiso   1.00
