data_HUSGAE_clean
_audit_creation_date              2014-07-02
_audit_creation_method            'Materials Studio'
_symmetry_space_group_name_H-M    'P1'
_symmetry_Int_Tables_number       1
_symmetry_cell_setting            triclinic
loop_
_symmetry_equiv_pos_as_xyz
  x,y,z
_cell_length_a                    7.9911
_cell_length_b                    10.1983
_cell_length_c                    12.1081
_cell_angle_alpha                 65.0938
_cell_angle_beta                  70.7319
_cell_angle_gamma                 90.0000
loop_
_atom_site_label
_atom_site_type_symbol
_atom_site_fract_x
_atom_site_fract_y
_atom_site_fract_z
_atom_site_U_iso_or_equiv
_atom_site_adp_type
_atom_site_occupancy
Cd1    Cd    0.25000   0.75000   0.50000   0.01267  Uiso   1.00
Cd2    Cd    0.75000   0.25000   0.50000   0.01267  Uiso   1.00
Cd3    Cd    0.00000   0.00000   0.00000   0.01267  Uiso   1.00
Cd4    Cd    0.50000   0.50000   0.00000   0.01267  Uiso   1.00
H1     H     0.23550   0.84070   0.19900   0.01267  Uiso   1.00
H2     H     0.56550   0.96030   0.19900   0.01267  Uiso   1.00
H3     H     0.26450   0.53970   0.80100   0.01267  Uiso   1.00
H4     H     0.93450   0.65930   0.80100   0.01267  Uiso   1.00
H5     H     0.76450   0.15930   0.80100   0.01267  Uiso   1.00
H6     H     0.43450   0.03970   0.80100   0.01267  Uiso   1.00
H7     H     0.73550   0.46030   0.19900   0.01267  Uiso   1.00
H8     H     0.06550   0.34070   0.19900   0.01267  Uiso   1.00
C1     C     0.03879   0.99651   0.35042   0.01267  Uiso   1.00
C2     C     0.16740   0.89954   0.23120   0.01267  Uiso   1.00
C3     C     0.61079   0.65307   0.35042   0.01267  Uiso   1.00
C4     C     0.60140   0.86926   0.23120   0.01267  Uiso   1.00
C5     C     0.46121   0.84693   0.64958   0.01267  Uiso   1.00
C6     C     0.33260   0.63074   0.76880   0.01267  Uiso   1.00
C7     C     0.88921   0.50349   0.64958   0.01267  Uiso   1.00
C8     C     0.89860   0.60046   0.76880   0.01267  Uiso   1.00
C9     C     0.96121   0.00349   0.64958   0.01267  Uiso   1.00
C10    C     0.83260   0.10046   0.76880   0.01267  Uiso   1.00
C11    C     0.38921   0.34693   0.64958   0.01267  Uiso   1.00
C12    C     0.39860   0.13074   0.76880   0.01267  Uiso   1.00
C13    C     0.53879   0.15307   0.35042   0.01267  Uiso   1.00
C14    C     0.66740   0.36926   0.23120   0.01267  Uiso   1.00
C15    C     0.11079   0.49651   0.35042   0.01267  Uiso   1.00
C16    C     0.10140   0.39954   0.23120   0.01267  Uiso   1.00
N1     N     0.08118   0.99625   0.16724   0.01267  Uiso   1.00
N2     N     0.99485   0.06088   0.24550   0.01267  Uiso   1.00
N3     N     0.14629   0.89522   0.34682   0.01267  Uiso   1.00
N4     N     0.97336   0.03571   0.45328   0.01267  Uiso   1.00
N5     N     0.75158   0.83651   0.16724   0.01267  Uiso   1.00
N6     N     0.75965   0.69362   0.24550   0.01267  Uiso   1.00
N7     N     0.50689   0.75796   0.34682   0.01267  Uiso   1.00
N8     N     0.57336   0.51101   0.45328   0.01267  Uiso   1.00
N9     N     0.41882   0.66349   0.83276   0.01267  Uiso   1.00
N10    N     0.50515   0.80638   0.75450   0.01267  Uiso   1.00
N11    N     0.35371   0.74204   0.65318   0.01267  Uiso   1.00
N12    N     0.52664   0.98899   0.54672   0.01267  Uiso   1.00
N13    N     0.74842   0.50375   0.83276   0.01267  Uiso   1.00
N14    N     0.74035   0.43912   0.75450   0.01267  Uiso   1.00
N15    N     0.99311   0.60478   0.65318   0.01267  Uiso   1.00
N16    N     0.92664   0.46429   0.54672   0.01267  Uiso   1.00
N17    N     0.91882   0.00375   0.83276   0.01267  Uiso   1.00
N18    N     0.00515   0.93912   0.75450   0.01267  Uiso   1.00
N19    N     0.85371   0.10478   0.65318   0.01267  Uiso   1.00
N20    N     0.02664   0.96429   0.54672   0.01267  Uiso   1.00
N21    N     0.24842   0.16349   0.83276   0.01267  Uiso   1.00
N22    N     0.24035   0.30638   0.75450   0.01267  Uiso   1.00
N23    N     0.49311   0.24204   0.65318   0.01267  Uiso   1.00
N24    N     0.42664   0.48899   0.54672   0.01267  Uiso   1.00
N25    N     0.58118   0.33651   0.16724   0.01267  Uiso   1.00
N26    N     0.49485   0.19362   0.24550   0.01267  Uiso   1.00
N27    N     0.64629   0.25796   0.34682   0.01267  Uiso   1.00
N28    N     0.47336   0.01101   0.45328   0.01267  Uiso   1.00
N29    N     0.25158   0.49625   0.16724   0.01267  Uiso   1.00
N30    N     0.25965   0.56088   0.24550   0.01267  Uiso   1.00
N31    N     0.00689   0.39522   0.34682   0.01267  Uiso   1.00
N32    N     0.07336   0.53571   0.45328   0.01267  Uiso   1.00
