data_image0
_cell_length_a       18.4394
_cell_length_b       13.7828
_cell_length_c       8.116
_cell_angle_alpha    90
_cell_angle_beta     92.319
_cell_angle_gamma    90

_symmetry_space_group_name_H-M    "P 1"
_symmetry_int_tables_number       1

loop_
  _symmetry_equiv_pos_as_xyz
  'x, y, z'

loop_
  _atom_site_label
  _atom_site_occupancy
  _atom_site_fract_x
  _atom_site_fract_y
  _atom_site_fract_z
  _atom_site_thermal_displace_type
  _atom_site_B_iso_or_equiv
  _atom_site_type_symbol
  C1       1.0000 0.63000  0.55710  0.48240  Biso   1.000  C
  La1      1.0000 0.50125  0.51709  0.25533  Biso   1.000  La
  O1       1.0000 0.59010  0.48290  0.51370  Biso   1.000  O
  C2       1.0000 0.69850  0.57240  0.58630  Biso   1.000  C
  O2       1.0000 0.61360  0.61340  0.36710  Biso   1.000  O
  C3       1.0000 0.73560  0.49300  0.65020  Biso   1.000  C
  H1       1.0000 0.71720  0.43110  0.62980  Biso   1.000  H
  O3       1.0000 0.94270  0.08950  0.96240  Biso   1.000  O
  C4       1.0000 0.80090  0.50380  0.74580  Biso   1.000  C
  O4       1.0000 0.99240  0.18770  0.14990  Biso   1.000  O
  C5       1.0000 0.84120  0.42020  0.80830  Biso   1.000  C
  O5       1.0000 0.04190  0.83340  0.20800  Biso   1.000  O
  C6       1.0000 0.82100  0.32540  0.76930  Biso   1.000  C
  H2       1.0000 0.78100  0.31640  0.69720  Biso   1.000  H
  O6       1.0000 0.96300  0.89300  0.02060  Biso   1.000  O
  C7       1.0000 0.85600  0.24450  0.83020  Biso   1.000  C
  H3       1.0000 0.84080  0.18250  0.79980  Biso   1.000  H
  C8       1.0000 0.91630  0.25890  0.94100  Biso   1.000  C
  C9       1.0000 0.95280  0.17370  0.02080  Biso   1.000  C
  C10      1.0000 0.93880  0.35050  0.98020  Biso   1.000  C
  H4       1.0000 0.97850  0.35860  0.05350  Biso   1.000  H
  C11      1.0000 0.90390  0.43340  0.91310  Biso   1.000  C
  C12      1.0000 0.93130  0.53150  0.94920  Biso   1.000  C
  C13      1.0000 0.99380  0.54820  0.04950  Biso   1.000  C
  H5       1.0000 0.02060  0.49530  0.08870  Biso   1.000  H
  C14      1.0000 0.01650  0.63900  0.09110  Biso   1.000  C
  H6       1.0000 0.05810  0.64730  0.15820  Biso   1.000  H
  C15      1.0000 0.97730  0.72030  0.03330  Biso   1.000  C
  C16      1.0000 0.99600  0.82040  0.09140  Biso   1.000  C
  C17      1.0000 0.91770  0.70750  0.92990  Biso   1.000  C
  H7       1.0000 0.89300  0.76140  0.88760  Biso   1.000  H
  C18      1.0000 0.89320  0.61300  0.88650  Biso   1.000  C
  C19      1.0000 0.82730  0.60160  0.78120  Biso   1.000  C
  C20      1.0000 0.78920  0.67890  0.70940  Biso   1.000  C
  H8       1.0000 0.80680  0.74150  0.72600  Biso   1.000  H
  C21      1.0000 0.72540  0.66580  0.61310  Biso   1.000  C
  H9       1.0000 0.70100  0.71910  0.56740  Biso   1.000  H
  C22      1.0000 0.13000  0.05710  0.48240  Biso   1.000  C
  La2      1.0000 0.00125  0.01709  0.25533  Biso   1.000  La
  O7       1.0000 0.09010  0.98290  0.51370  Biso   1.000  O
  C23      1.0000 0.19850  0.07240  0.58630  Biso   1.000  C
  O8       1.0000 0.11360  0.11340  0.36710  Biso   1.000  O
  C24      1.0000 0.23560  0.99300  0.65020  Biso   1.000  C
  H10      1.0000 0.21720  0.93110  0.62980  Biso   1.000  H
  O9       1.0000 0.44270  0.58950  0.96240  Biso   1.000  O
  C25      1.0000 0.30090  0.00380  0.74580  Biso   1.000  C
  O10      1.0000 0.49240  0.68770  0.14990  Biso   1.000  O
  C26      1.0000 0.34120  0.92020  0.80830  Biso   1.000  C
  O11      1.0000 0.54190  0.33340  0.20800  Biso   1.000  O
  C27      1.0000 0.32100  0.82540  0.76930  Biso   1.000  C
  H11      1.0000 0.28100  0.81640  0.69720  Biso   1.000  H
  O12      1.0000 0.46300  0.39300  0.02060  Biso   1.000  O
  C28      1.0000 0.35600  0.74450  0.83020  Biso   1.000  C
  H12      1.0000 0.34080  0.68250  0.79980  Biso   1.000  H
  C29      1.0000 0.41630  0.75890  0.94100  Biso   1.000  C
  C30      1.0000 0.45280  0.67370  0.02080  Biso   1.000  C
  C31      1.0000 0.43880  0.85050  0.98020  Biso   1.000  C
  H13      1.0000 0.47850  0.85860  0.05350  Biso   1.000  H
  C32      1.0000 0.40390  0.93340  0.91310  Biso   1.000  C
  C33      1.0000 0.43130  0.03150  0.94920  Biso   1.000  C
  C34      1.0000 0.49380  0.04820  0.04950  Biso   1.000  C
  H14      1.0000 0.52060  0.99530  0.08870  Biso   1.000  H
  C35      1.0000 0.51650  0.13900  0.09110  Biso   1.000  C
  H15      1.0000 0.55810  0.14730  0.15820  Biso   1.000  H
  C36      1.0000 0.47730  0.22030  0.03330  Biso   1.000  C
  C37      1.0000 0.49600  0.32040  0.09140  Biso   1.000  C
  C38      1.0000 0.41770  0.20750  0.92990  Biso   1.000  C
  H16      1.0000 0.39300  0.26140  0.88760  Biso   1.000  H
  C39      1.0000 0.39320  0.11300  0.88650  Biso   1.000  C
  C40      1.0000 0.32730  0.10160  0.78120  Biso   1.000  C
  C41      1.0000 0.28920  0.17890  0.70940  Biso   1.000  C
  H17      1.0000 0.30680  0.24150  0.72600  Biso   1.000  H
  C42      1.0000 0.22540  0.16580  0.61310  Biso   1.000  C
  H18      1.0000 0.20100  0.21910  0.56740  Biso   1.000  H
  C43      1.0000 0.63000  0.44290  0.98240  Biso   1.000  C
  La3      1.0000 0.50125  0.48291  0.75533  Biso   1.000  La
  O13      1.0000 0.59010  0.51710  0.01370  Biso   1.000  O
  C44      1.0000 0.69850  0.42760  0.08630  Biso   1.000  C
  O14      1.0000 0.61360  0.38660  0.86710  Biso   1.000  O
  C45      1.0000 0.73560  0.50700  0.15020  Biso   1.000  C
  H19      1.0000 0.71720  0.56890  0.12980  Biso   1.000  H
  O15      1.0000 0.94270  0.91050  0.46240  Biso   1.000  O
  C46      1.0000 0.80090  0.49620  0.24580  Biso   1.000  C
  O16      1.0000 0.99240  0.81230  0.64990  Biso   1.000  O
  C47      1.0000 0.84120  0.57980  0.30830  Biso   1.000  C
  O17      1.0000 0.04190  0.16660  0.70800  Biso   1.000  O
  C48      1.0000 0.82100  0.67460  0.26930  Biso   1.000  C
  H20      1.0000 0.78100  0.68360  0.19720  Biso   1.000  H
  O18      1.0000 0.96300  0.10700  0.52060  Biso   1.000  O
  C49      1.0000 0.85600  0.75550  0.33020  Biso   1.000  C
  H21      1.0000 0.84080  0.81750  0.29980  Biso   1.000  H
  C50      1.0000 0.91630  0.74110  0.44100  Biso   1.000  C
  C51      1.0000 0.95280  0.82630  0.52080  Biso   1.000  C
  C52      1.0000 0.93880  0.64950  0.48020  Biso   1.000  C
  H22      1.0000 0.97850  0.64140  0.55350  Biso   1.000  H
  C53      1.0000 0.90390  0.56660  0.41310  Biso   1.000  C
  C54      1.0000 0.93130  0.46850  0.44920  Biso   1.000  C
  C55      1.0000 0.99380  0.45180  0.54950  Biso   1.000  C
  H23      1.0000 0.02060  0.50470  0.58870  Biso   1.000  H
  C56      1.0000 0.01650  0.36100  0.59110  Biso   1.000  C
  H24      1.0000 0.05810  0.35270  0.65820  Biso   1.000  H
  C57      1.0000 0.97730  0.27970  0.53330  Biso   1.000  C
  C58      1.0000 0.99600  0.17960  0.59140  Biso   1.000  C
  C59      1.0000 0.91770  0.29250  0.42990  Biso   1.000  C
  H25      1.0000 0.89300  0.23860  0.38760  Biso   1.000  H
  C60      1.0000 0.89320  0.38700  0.38650  Biso   1.000  C
  C61      1.0000 0.82730  0.39840  0.28120  Biso   1.000  C
  C62      1.0000 0.78920  0.32110  0.20940  Biso   1.000  C
  H26      1.0000 0.80680  0.25850  0.22600  Biso   1.000  H
  C63      1.0000 0.72540  0.33420  0.11310  Biso   1.000  C
  H27      1.0000 0.70100  0.28090  0.06740  Biso   1.000  H
  C64      1.0000 0.13000  0.94290  0.98240  Biso   1.000  C
  La4      1.0000 0.00125  0.98291  0.75533  Biso   1.000  La
  O19      1.0000 0.09010  0.01710  0.01370  Biso   1.000  O
  C65      1.0000 0.19850  0.92760  0.08630  Biso   1.000  C
  O20      1.0000 0.11360  0.88660  0.86710  Biso   1.000  O
  C66      1.0000 0.23560  0.00700  0.15020  Biso   1.000  C
  H28      1.0000 0.21720  0.06890  0.12980  Biso   1.000  H
  O21      1.0000 0.44270  0.41050  0.46240  Biso   1.000  O
  C67      1.0000 0.30090  0.99620  0.24580  Biso   1.000  C
  O22      1.0000 0.49240  0.31230  0.64990  Biso   1.000  O
  C68      1.0000 0.34120  0.07980  0.30830  Biso   1.000  C
  O23      1.0000 0.54190  0.66660  0.70800  Biso   1.000  O
  C69      1.0000 0.32100  0.17460  0.26930  Biso   1.000  C
  H29      1.0000 0.28100  0.18360  0.19720  Biso   1.000  H
  O24      1.0000 0.46300  0.60700  0.52060  Biso   1.000  O
  C70      1.0000 0.35600  0.25550  0.33020  Biso   1.000  C
  H30      1.0000 0.34080  0.31750  0.29980  Biso   1.000  H
  C71      1.0000 0.41630  0.24110  0.44100  Biso   1.000  C
  C72      1.0000 0.45280  0.32630  0.52080  Biso   1.000  C
  C73      1.0000 0.43880  0.14950  0.48020  Biso   1.000  C
  H31      1.0000 0.47850  0.14140  0.55350  Biso   1.000  H
  C74      1.0000 0.40390  0.06660  0.41310  Biso   1.000  C
  C75      1.0000 0.43130  0.96850  0.44920  Biso   1.000  C
  C76      1.0000 0.49380  0.95180  0.54950  Biso   1.000  C
  H32      1.0000 0.52060  0.00470  0.58870  Biso   1.000  H
  C77      1.0000 0.51650  0.86100  0.59110  Biso   1.000  C
  H33      1.0000 0.55810  0.85270  0.65820  Biso   1.000  H
  C78      1.0000 0.47730  0.77970  0.53330  Biso   1.000  C
  C79      1.0000 0.49600  0.67960  0.59140  Biso   1.000  C
  C80      1.0000 0.41770  0.79250  0.42990  Biso   1.000  C
  H34      1.0000 0.39300  0.73860  0.38760  Biso   1.000  H
  C81      1.0000 0.39320  0.88700  0.38650  Biso   1.000  C
  C82      1.0000 0.32730  0.89840  0.28120  Biso   1.000  C
  C83      1.0000 0.28920  0.82110  0.20940  Biso   1.000  C
  H35      1.0000 0.30680  0.75850  0.22600  Biso   1.000  H
  C84      1.0000 0.22540  0.83420  0.11310  Biso   1.000  C
  H36      1.0000 0.20100  0.78090  0.06740  Biso   1.000  H
