data_HUSQES_clean
_audit_creation_date              2014-07-02
_audit_creation_method            'Materials Studio'
_symmetry_space_group_name_H-M    'P1'
_symmetry_Int_Tables_number       1
_symmetry_cell_setting            triclinic
loop_
_symmetry_equiv_pos_as_xyz
  x,y,z
_cell_length_a                    12.4209
_cell_length_b                    12.4471
_cell_length_c                    15.1155
_cell_angle_alpha                 90.0000
_cell_angle_beta                  90.0000
_cell_angle_gamma                 90.0000
loop_
_atom_site_label
_atom_site_type_symbol
_atom_site_fract_x
_atom_site_fract_y
_atom_site_fract_z
_atom_site_U_iso_or_equiv
_atom_site_adp_type
_atom_site_occupancy
Mo1    Mo    0.91393   0.60284   0.06069   0.01267  Uiso   1.00
Mo2    Mo    0.41393   0.39716   0.43931   0.01267  Uiso   1.00
Mo3    Mo    0.08607   0.10284   0.93931   0.01267  Uiso   1.00
Mo4    Mo    0.58607   0.89716   0.56069   0.01267  Uiso   1.00
Mo5    Mo    0.08607   0.39716   0.93931   0.01267  Uiso   1.00
Mo6    Mo    0.58607   0.60284   0.56069   0.01267  Uiso   1.00
Mo7    Mo    0.91393   0.89716   0.06069   0.01267  Uiso   1.00
Mo8    Mo    0.41393   0.10284   0.43931   0.01267  Uiso   1.00
H1     H     0.95330   0.59130   0.82300   0.01267  Uiso   1.00
H2     H     0.29550   0.59160   0.57060   0.01267  Uiso   1.00
H3     H     0.13860   0.68700   0.70830   0.01267  Uiso   1.00
H4     H     0.11710   0.91530   0.56480   0.01267  Uiso   1.00
H5     H     0.10370   0.85150   0.47440   0.01267  Uiso   1.00
H6     H     0.93300   0.91510   0.52200   0.01267  Uiso   1.00
H7     H     0.96760   0.91560   0.67760   0.01267  Uiso   1.00
H8     H     0.85900   0.85220   0.65830   0.01267  Uiso   1.00
H9     H     0.45330   0.40870   0.67700   0.01267  Uiso   1.00
H10    H     0.79550   0.40840   0.92940   0.01267  Uiso   1.00
H11    H     0.63860   0.31300   0.79170   0.01267  Uiso   1.00
H12    H     0.61710   0.08470   0.93520   0.01267  Uiso   1.00
H13    H     0.60370   0.14850   0.02560   0.01267  Uiso   1.00
H14    H     0.43300   0.08490   0.97800   0.01267  Uiso   1.00
H15    H     0.46760   0.08440   0.82240   0.01267  Uiso   1.00
H16    H     0.35900   0.14780   0.84170   0.01267  Uiso   1.00
H17    H     0.04670   0.09130   0.17700   0.01267  Uiso   1.00
H18    H     0.70450   0.09160   0.42940   0.01267  Uiso   1.00
H19    H     0.86140   0.18700   0.29170   0.01267  Uiso   1.00
H20    H     0.88290   0.41530   0.43520   0.01267  Uiso   1.00
H21    H     0.89630   0.35150   0.52560   0.01267  Uiso   1.00
H22    H     0.06700   0.41510   0.47800   0.01267  Uiso   1.00
H23    H     0.03240   0.41560   0.32240   0.01267  Uiso   1.00
H24    H     0.14100   0.35220   0.34170   0.01267  Uiso   1.00
H25    H     0.54670   0.90870   0.32300   0.01267  Uiso   1.00
H26    H     0.20450   0.90840   0.07060   0.01267  Uiso   1.00
H27    H     0.36140   0.81300   0.20830   0.01267  Uiso   1.00
H28    H     0.38290   0.58470   0.06480   0.01267  Uiso   1.00
H29    H     0.39630   0.64850   0.97440   0.01267  Uiso   1.00
H30    H     0.56700   0.58490   0.02200   0.01267  Uiso   1.00
H31    H     0.53240   0.58440   0.17760   0.01267  Uiso   1.00
H32    H     0.64100   0.64780   0.15830   0.01267  Uiso   1.00
H33    H     0.04670   0.40870   0.17700   0.01267  Uiso   1.00
H34    H     0.70450   0.40840   0.42940   0.01267  Uiso   1.00
H35    H     0.86140   0.31300   0.29170   0.01267  Uiso   1.00
H36    H     0.88290   0.08470   0.43520   0.01267  Uiso   1.00
H37    H     0.89630   0.14850   0.52560   0.01267  Uiso   1.00
H38    H     0.06700   0.08490   0.47800   0.01267  Uiso   1.00
H39    H     0.03240   0.08440   0.32240   0.01267  Uiso   1.00
H40    H     0.14100   0.14780   0.34170   0.01267  Uiso   1.00
H41    H     0.54670   0.59130   0.32300   0.01267  Uiso   1.00
H42    H     0.20450   0.59160   0.07060   0.01267  Uiso   1.00
H43    H     0.36140   0.68700   0.20830   0.01267  Uiso   1.00
H44    H     0.38290   0.91530   0.06480   0.01267  Uiso   1.00
H45    H     0.39630   0.85150   0.97440   0.01267  Uiso   1.00
H46    H     0.56700   0.91510   0.02200   0.01267  Uiso   1.00
H47    H     0.53240   0.91560   0.17760   0.01267  Uiso   1.00
H48    H     0.64100   0.85220   0.15830   0.01267  Uiso   1.00
H49    H     0.95330   0.90870   0.82300   0.01267  Uiso   1.00
H50    H     0.29550   0.90840   0.57060   0.01267  Uiso   1.00
H51    H     0.13860   0.81300   0.70830   0.01267  Uiso   1.00
H52    H     0.11710   0.58470   0.56480   0.01267  Uiso   1.00
H53    H     0.10370   0.64850   0.47440   0.01267  Uiso   1.00
H54    H     0.93300   0.58490   0.52200   0.01267  Uiso   1.00
H55    H     0.96760   0.58440   0.67760   0.01267  Uiso   1.00
H56    H     0.85900   0.64780   0.65830   0.01267  Uiso   1.00
H57    H     0.45330   0.09130   0.67700   0.01267  Uiso   1.00
H58    H     0.79550   0.09160   0.92940   0.01267  Uiso   1.00
H59    H     0.63860   0.18700   0.79170   0.01267  Uiso   1.00
H60    H     0.61710   0.41530   0.93520   0.01267  Uiso   1.00
H61    H     0.60370   0.35150   0.02560   0.01267  Uiso   1.00
H62    H     0.43300   0.41510   0.97800   0.01267  Uiso   1.00
H63    H     0.46760   0.41560   0.82240   0.01267  Uiso   1.00
H64    H     0.35900   0.35220   0.84170   0.01267  Uiso   1.00
H65    H     0.93030   0.75000   0.44380   0.01267  Uiso   1.00
H66    H     0.83700   0.75000   0.51560   0.01267  Uiso   1.00
H67    H     0.43030   0.25000   0.05620   0.01267  Uiso   1.00
H68    H     0.33700   0.25000   0.98440   0.01267  Uiso   1.00
H69    H     0.06970   0.25000   0.55620   0.01267  Uiso   1.00
H70    H     0.16300   0.25000   0.48440   0.01267  Uiso   1.00
H71    H     0.56970   0.75000   0.94380   0.01267  Uiso   1.00
H72    H     0.66300   0.75000   0.01560   0.01267  Uiso   1.00
C1     C     0.94909   0.66323   0.84175   0.01267  Uiso   1.00
C2     C     0.31864   0.66352   0.57004   0.01267  Uiso   1.00
C3     C     0.08617   0.85080   0.53762   0.01267  Uiso   1.00
C4     C     0.96396   0.85030   0.55015   0.01267  Uiso   1.00
C5     C     0.93718   0.85130   0.64973   0.01267  Uiso   1.00
C6     C     0.44909   0.33677   0.65825   0.01267  Uiso   1.00
C7     C     0.81864   0.33648   0.92996   0.01267  Uiso   1.00
C8     C     0.58617   0.14920   0.96238   0.01267  Uiso   1.00
C9     C     0.46396   0.14970   0.94985   0.01267  Uiso   1.00
C10    C     0.43718   0.14870   0.85027   0.01267  Uiso   1.00
C11    C     0.05091   0.16323   0.15825   0.01267  Uiso   1.00
C12    C     0.68136   0.16352   0.42996   0.01267  Uiso   1.00
C13    C     0.91383   0.35080   0.46238   0.01267  Uiso   1.00
C14    C     0.03604   0.35030   0.44985   0.01267  Uiso   1.00
C15    C     0.06282   0.35130   0.35027   0.01267  Uiso   1.00
C16    C     0.55091   0.83677   0.34175   0.01267  Uiso   1.00
C17    C     0.18136   0.83648   0.07004   0.01267  Uiso   1.00
C18    C     0.41383   0.64920   0.03762   0.01267  Uiso   1.00
C19    C     0.53604   0.64970   0.05015   0.01267  Uiso   1.00
C20    C     0.56282   0.64870   0.14973   0.01267  Uiso   1.00
C21    C     0.05091   0.33677   0.15825   0.01267  Uiso   1.00
C22    C     0.68136   0.33648   0.42996   0.01267  Uiso   1.00
C23    C     0.91383   0.14920   0.46238   0.01267  Uiso   1.00
C24    C     0.03604   0.14970   0.44985   0.01267  Uiso   1.00
C25    C     0.06282   0.14870   0.35027   0.01267  Uiso   1.00
C26    C     0.55091   0.66323   0.34175   0.01267  Uiso   1.00
C27    C     0.18136   0.66352   0.07004   0.01267  Uiso   1.00
C28    C     0.41383   0.85080   0.03762   0.01267  Uiso   1.00
C29    C     0.53604   0.85030   0.05015   0.01267  Uiso   1.00
C30    C     0.56282   0.85130   0.14973   0.01267  Uiso   1.00
C31    C     0.94909   0.83677   0.84175   0.01267  Uiso   1.00
C32    C     0.31864   0.83648   0.57004   0.01267  Uiso   1.00
C33    C     0.08617   0.64920   0.53762   0.01267  Uiso   1.00
C34    C     0.96396   0.64970   0.55015   0.01267  Uiso   1.00
C35    C     0.93718   0.64870   0.64973   0.01267  Uiso   1.00
C36    C     0.44909   0.16323   0.65825   0.01267  Uiso   1.00
C37    C     0.81864   0.16352   0.92996   0.01267  Uiso   1.00
C38    C     0.58617   0.35080   0.96238   0.01267  Uiso   1.00
C39    C     0.46396   0.35030   0.94985   0.01267  Uiso   1.00
C40    C     0.43718   0.35130   0.85027   0.01267  Uiso   1.00
C41    C     0.98550   0.75000   0.69177   0.01267  Uiso   1.00
C42    C     0.10790   0.75000   0.68050   0.01267  Uiso   1.00
C43    C     0.13350   0.75000   0.58120   0.01267  Uiso   1.00
C44    C     0.91520   0.75000   0.50740   0.01267  Uiso   1.00
C45    C     0.48550   0.25000   0.80823   0.01267  Uiso   1.00
C46    C     0.60790   0.25000   0.81950   0.01267  Uiso   1.00
C47    C     0.63350   0.25000   0.91880   0.01267  Uiso   1.00
C48    C     0.41520   0.25000   0.99260   0.01267  Uiso   1.00
C49    C     0.01450   0.25000   0.30823   0.01267  Uiso   1.00
C50    C     0.89210   0.25000   0.31950   0.01267  Uiso   1.00
C51    C     0.86650   0.25000   0.41880   0.01267  Uiso   1.00
C52    C     0.08480   0.25000   0.49260   0.01267  Uiso   1.00
C53    C     0.51450   0.75000   0.19177   0.01267  Uiso   1.00
C54    C     0.39210   0.75000   0.18050   0.01267  Uiso   1.00
C55    C     0.36650   0.75000   0.08120   0.01267  Uiso   1.00
C56    C     0.58480   0.75000   0.00740   0.01267  Uiso   1.00
N1     N     0.93138   0.69426   0.92356   0.01267  Uiso   1.00
N2     N     0.41946   0.69467   0.56748   0.01267  Uiso   1.00
N3     N     0.43138   0.30574   0.57644   0.01267  Uiso   1.00
N4     N     0.91946   0.30533   0.93252   0.01267  Uiso   1.00
N5     N     0.06862   0.19426   0.07644   0.01267  Uiso   1.00
N6     N     0.58054   0.19467   0.43252   0.01267  Uiso   1.00
N7     N     0.56862   0.80574   0.42356   0.01267  Uiso   1.00
N8     N     0.08054   0.80533   0.06748   0.01267  Uiso   1.00
N9     N     0.06862   0.30574   0.07644   0.01267  Uiso   1.00
N10    N     0.58054   0.30533   0.43252   0.01267  Uiso   1.00
N11    N     0.56862   0.69426   0.42356   0.01267  Uiso   1.00
N12    N     0.08054   0.69467   0.06748   0.01267  Uiso   1.00
N13    N     0.93138   0.80574   0.92356   0.01267  Uiso   1.00
N14    N     0.41946   0.80533   0.56748   0.01267  Uiso   1.00
N15    N     0.43138   0.19426   0.57644   0.01267  Uiso   1.00
N16    N     0.91946   0.19467   0.93252   0.01267  Uiso   1.00
N17    N     0.96050   0.75000   0.78835   0.01267  Uiso   1.00
N18    N     0.25300   0.75000   0.57170   0.01267  Uiso   1.00
N19    N     0.46050   0.25000   0.71165   0.01267  Uiso   1.00
N20    N     0.75300   0.25000   0.92830   0.01267  Uiso   1.00
N21    N     0.03950   0.25000   0.21165   0.01267  Uiso   1.00
N22    N     0.74700   0.25000   0.42830   0.01267  Uiso   1.00
N23    N     0.53950   0.75000   0.28835   0.01267  Uiso   1.00
N24    N     0.24700   0.75000   0.07170   0.01267  Uiso   1.00
O1     O     0.87724   0.75000   0.08802   0.01267  Uiso   1.00
O2     O     0.37724   0.25000   0.41198   0.01267  Uiso   1.00
O3     O     0.12276   0.25000   0.91198   0.01267  Uiso   1.00
O4     O     0.62276   0.75000   0.58802   0.01267  Uiso   1.00
O5     O     0.00000   0.50000   0.00000   0.01267  Uiso   1.00
O6     O     0.50000   0.50000   0.50000   0.01267  Uiso   1.00
O7     O     0.00000   0.00000   0.00000   0.01267  Uiso   1.00
O8     O     0.50000   0.00000   0.50000   0.01267  Uiso   1.00
