data_HUTZEB_clean
_audit_creation_date              2014-07-02
_audit_creation_method            'Materials Studio'
_symmetry_space_group_name_H-M    'P1'
_symmetry_Int_Tables_number       1
_symmetry_cell_setting            triclinic
loop_
_symmetry_equiv_pos_as_xyz
  x,y,z
_cell_length_a                    8.7586
_cell_length_b                    10.1560
_cell_length_c                    19.4760
_cell_angle_alpha                 90.0000
_cell_angle_beta                  90.0000
_cell_angle_gamma                 100.2200
loop_
_atom_site_label
_atom_site_type_symbol
_atom_site_fract_x
_atom_site_fract_y
_atom_site_fract_z
_atom_site_U_iso_or_equiv
_atom_site_adp_type
_atom_site_occupancy
Na1    Na    0.89124   0.60987   0.46968   0.01267  Uiso   1.00
Na2    Na    0.10876   0.89013   0.96968   0.01267  Uiso   1.00
Na3    Na    0.10876   0.39013   0.53032   0.01267  Uiso   1.00
Na4    Na    0.89124   0.10987   0.03032   0.01267  Uiso   1.00
Zn1    Zn    0.63730   0.52495   0.60181   0.01267  Uiso   1.00
Zn2    Zn    0.36270   0.97505   0.10181   0.01267  Uiso   1.00
Zn3    Zn    0.36270   0.47505   0.39819   0.01267  Uiso   1.00
Zn4    Zn    0.63730   0.02495   0.89819   0.01267  Uiso   1.00
H1     H     0.75000   0.37100   0.53200   0.01267  Uiso   1.00
H2     H     0.63300   0.40200   0.49200   0.01267  Uiso   1.00
H3     H     0.91520   0.75690   0.74400   0.01267  Uiso   1.00
H4     H     0.08350   0.86280   0.82530   0.01267  Uiso   1.00
H5     H     0.43930   0.74200   0.72900   0.01267  Uiso   1.00
H6     H     0.27080   0.63580   0.64710   0.01267  Uiso   1.00
H7     H     0.37620   0.84770   0.57860   0.01267  Uiso   1.00
H8     H     0.72710   0.96540   0.44850   0.01267  Uiso   1.00
H9     H     0.25000   0.12900   0.03200   0.01267  Uiso   1.00
H10    H     0.36700   0.09800   0.99200   0.01267  Uiso   1.00
H11    H     0.08480   0.74310   0.24400   0.01267  Uiso   1.00
H12    H     0.91650   0.63720   0.32530   0.01267  Uiso   1.00
H13    H     0.56070   0.75800   0.22900   0.01267  Uiso   1.00
H14    H     0.72920   0.86420   0.14710   0.01267  Uiso   1.00
H15    H     0.62380   0.65230   0.07860   0.01267  Uiso   1.00
H16    H     0.27290   0.53460   0.94850   0.01267  Uiso   1.00
H17    H     0.25000   0.62900   0.46800   0.01267  Uiso   1.00
H18    H     0.36700   0.59800   0.50800   0.01267  Uiso   1.00
H19    H     0.08480   0.24310   0.25600   0.01267  Uiso   1.00
H20    H     0.91650   0.13720   0.17470   0.01267  Uiso   1.00
H21    H     0.56070   0.25800   0.27100   0.01267  Uiso   1.00
H22    H     0.72920   0.36420   0.35290   0.01267  Uiso   1.00
H23    H     0.62380   0.15230   0.42140   0.01267  Uiso   1.00
H24    H     0.27290   0.03460   0.55150   0.01267  Uiso   1.00
H25    H     0.75000   0.87100   0.96800   0.01267  Uiso   1.00
H26    H     0.63300   0.90200   0.00800   0.01267  Uiso   1.00
H27    H     0.91520   0.25690   0.75600   0.01267  Uiso   1.00
H28    H     0.08350   0.36280   0.67470   0.01267  Uiso   1.00
H29    H     0.43930   0.24200   0.77100   0.01267  Uiso   1.00
H30    H     0.27080   0.13580   0.85290   0.01267  Uiso   1.00
H31    H     0.37620   0.34770   0.92140   0.01267  Uiso   1.00
H32    H     0.72710   0.46540   0.05150   0.01267  Uiso   1.00
C1     C     0.96260   0.61130   0.63531   0.01267  Uiso   1.00
C2     C     0.07490   0.68330   0.68741   0.01267  Uiso   1.00
C3     C     0.02030   0.75300   0.74115   0.01267  Uiso   1.00
C4     C     0.12090   0.81600   0.78982   0.01267  Uiso   1.00
C5     C     0.27840   0.81050   0.78663   0.01267  Uiso   1.00
C6     C     0.33380   0.74390   0.73232   0.01267  Uiso   1.00
C7     C     0.23290   0.68060   0.68321   0.01267  Uiso   1.00
C8     C     0.38320   0.87870   0.84201   0.01267  Uiso   1.00
C9     C     0.63340   0.76800   0.53496   0.01267  Uiso   1.00
C10    C     0.56200   0.88670   0.51664   0.01267  Uiso   1.00
C11    C     0.42650   0.90890   0.54680   0.01267  Uiso   1.00
C12    C     0.63560   0.97900   0.46940   0.01267  Uiso   1.00
C13    C     0.03740   0.88870   0.13531   0.01267  Uiso   1.00
C14    C     0.92510   0.81670   0.18741   0.01267  Uiso   1.00
C15    C     0.97970   0.74700   0.24115   0.01267  Uiso   1.00
C16    C     0.87910   0.68400   0.28982   0.01267  Uiso   1.00
C17    C     0.72160   0.68950   0.28663   0.01267  Uiso   1.00
C18    C     0.66620   0.75610   0.23232   0.01267  Uiso   1.00
C19    C     0.76710   0.81940   0.18321   0.01267  Uiso   1.00
C20    C     0.61680   0.62130   0.34201   0.01267  Uiso   1.00
C21    C     0.36660   0.73200   0.03496   0.01267  Uiso   1.00
C22    C     0.43800   0.61330   0.01664   0.01267  Uiso   1.00
C23    C     0.57350   0.59110   0.04680   0.01267  Uiso   1.00
C24    C     0.36440   0.52100   0.96940   0.01267  Uiso   1.00
C25    C     0.03740   0.38870   0.36469   0.01267  Uiso   1.00
C26    C     0.92510   0.31670   0.31259   0.01267  Uiso   1.00
C27    C     0.97970   0.24700   0.25885   0.01267  Uiso   1.00
C28    C     0.87910   0.18400   0.21018   0.01267  Uiso   1.00
C29    C     0.72160   0.18950   0.21337   0.01267  Uiso   1.00
C30    C     0.66620   0.25610   0.26768   0.01267  Uiso   1.00
C31    C     0.76710   0.31940   0.31679   0.01267  Uiso   1.00
C32    C     0.61680   0.12130   0.15799   0.01267  Uiso   1.00
C33    C     0.36660   0.23200   0.46504   0.01267  Uiso   1.00
C34    C     0.43800   0.11330   0.48336   0.01267  Uiso   1.00
C35    C     0.57350   0.09110   0.45320   0.01267  Uiso   1.00
C36    C     0.36440   0.02100   0.53060   0.01267  Uiso   1.00
C37    C     0.96260   0.11130   0.86469   0.01267  Uiso   1.00
C38    C     0.07490   0.18330   0.81259   0.01267  Uiso   1.00
C39    C     0.02030   0.25300   0.75885   0.01267  Uiso   1.00
C40    C     0.12090   0.31600   0.71018   0.01267  Uiso   1.00
C41    C     0.27840   0.31050   0.71337   0.01267  Uiso   1.00
C42    C     0.33380   0.24390   0.76768   0.01267  Uiso   1.00
C43    C     0.23290   0.18060   0.81679   0.01267  Uiso   1.00
C44    C     0.38320   0.37870   0.65799   0.01267  Uiso   1.00
C45    C     0.63340   0.26800   0.96504   0.01267  Uiso   1.00
C46    C     0.56200   0.38670   0.98336   0.01267  Uiso   1.00
C47    C     0.42650   0.40890   0.95320   0.01267  Uiso   1.00
C48    C     0.63560   0.47900   0.03060   0.01267  Uiso   1.00
O1     O     0.01010   0.57000   0.58115   0.01267  Uiso   1.00
O2     O     0.82120   0.59920   0.65318   0.01267  Uiso   1.00
O3     O     0.52760   0.90850   0.82753   0.01267  Uiso   1.00
O4     O     0.32910   0.90540   0.89728   0.01267  Uiso   1.00
O5     O     0.77000   0.76740   0.52227   0.01267  Uiso   1.00
O6     O     0.54210   0.67010   0.56490   0.01267  Uiso   1.00
O7     O     0.69880   0.42470   0.52155   0.01267  Uiso   1.00
O8     O     0.98990   0.93000   0.08115   0.01267  Uiso   1.00
O9     O     0.17880   0.90080   0.15318   0.01267  Uiso   1.00
O10    O     0.47240   0.59150   0.32753   0.01267  Uiso   1.00
O11    O     0.67090   0.59460   0.39728   0.01267  Uiso   1.00
O12    O     0.23000   0.73260   0.02227   0.01267  Uiso   1.00
O13    O     0.45790   0.82990   0.06490   0.01267  Uiso   1.00
O14    O     0.30120   0.07530   0.02155   0.01267  Uiso   1.00
O15    O     0.98990   0.43000   0.41885   0.01267  Uiso   1.00
O16    O     0.17880   0.40080   0.34682   0.01267  Uiso   1.00
O17    O     0.47240   0.09150   0.17247   0.01267  Uiso   1.00
O18    O     0.67090   0.09460   0.10272   0.01267  Uiso   1.00
O19    O     0.23000   0.23260   0.47773   0.01267  Uiso   1.00
O20    O     0.45790   0.32990   0.43510   0.01267  Uiso   1.00
O21    O     0.30120   0.57530   0.47845   0.01267  Uiso   1.00
O22    O     0.01010   0.07000   0.91885   0.01267  Uiso   1.00
O23    O     0.82120   0.09920   0.84682   0.01267  Uiso   1.00
O24    O     0.52760   0.40850   0.67247   0.01267  Uiso   1.00
O25    O     0.32910   0.40540   0.60272   0.01267  Uiso   1.00
O26    O     0.77000   0.26740   0.97773   0.01267  Uiso   1.00
O27    O     0.54210   0.17010   0.93510   0.01267  Uiso   1.00
O28    O     0.69880   0.92470   0.97845   0.01267  Uiso   1.00
