data_image0
_cell_length_a       10.137
_cell_length_b       11.802
_cell_length_c       13.768
_cell_angle_alpha    86.899
_cell_angle_beta     89.523
_cell_angle_gamma    88.343

_symmetry_space_group_name_H-M    "P 1"
_symmetry_int_tables_number       1

loop_
  _symmetry_equiv_pos_as_xyz
  'x, y, z'

loop_
  _atom_site_label
  _atom_site_occupancy
  _atom_site_fract_x
  _atom_site_fract_y
  _atom_site_fract_z
  _atom_site_thermal_displace_type
  _atom_site_B_iso_or_equiv
  _atom_site_type_symbol
  Zn1      1.0000 0.15736  0.51598  0.39554  Biso   1.000  Zn
  Zn2      1.0000 0.55467  0.57495  0.37833  Biso   1.000  Zn
  Zn3      1.0000 0.62257  0.11009  0.88746  Biso   1.000  Zn
  P1       1.0000 0.37500  0.34400  0.42563  Biso   1.000  P
  P2       1.0000 0.67070  0.33520  0.77006  Biso   1.000  P
  P3       1.0000 0.84407  0.46155  0.37929  Biso   1.000  P
  O1       1.0000 0.22940  0.36040  0.40490  Biso   1.000  O
  O2       1.0000 0.44430  0.45170  0.39270  Biso   1.000  O
  O3       1.0000 0.40090  0.30700  0.53010  Biso   1.000  O
  O4       1.0000 0.40790  0.03640  0.17300  Biso   1.000  O
  O5       1.0000 0.19310  0.04180  0.17590  Biso   1.000  O
  O6       1.0000 0.78210  0.39010  0.71540  Biso   1.000  O
  O7       1.0000 0.71590  0.21580  0.81030  Biso   1.000  O
  O8       1.0000 0.54480  0.32490  0.71550  Biso   1.000  O
  O9       1.0000 0.44050  0.14510  0.91500  Biso   1.000  O
  O10      1.0000 0.24320  0.21620  0.94550  Biso   1.000  O
  O11      1.0000 0.73010  0.53430  0.33700  Biso   1.000  O
  O12      1.0000 0.96790  0.53150  0.37210  Biso   1.000  O
  O13      1.0000 0.81820  0.41310  0.48160  Biso   1.000  O
  O14      1.0000 0.10330  0.36730  0.02670  Biso   1.000  O
  H1       1.0000 0.14620  0.31640  0.00180  Biso   1.000  H
  O15      1.0000 0.98550  0.22500  0.08470  Biso   1.000  O
  N1       1.0000 0.41660  0.24620  0.25280  Biso   1.000  N
  N2       1.0000 0.83940  0.36300  0.20320  Biso   1.000  N
  N3       1.0000 0.55160  0.35910  0.94530  Biso   1.000  N
  N4       1.0000 0.48350  0.29980  0.09820  Biso   1.000  N
  N5       1.0000 0.62970  0.30310  0.23100  Biso   1.000  N
  N6       1.0000 0.70140  0.36460  0.07100  Biso   1.000  N
  C1       1.0000 0.51430  0.28310  0.19300  Biso   1.000  C
  C2       1.0000 0.58110  0.34210  0.04190  Biso   1.000  C
  C3       1.0000 0.71910  0.34320  0.16750  Biso   1.000  C
  C4       1.0000 0.43940  0.22750  0.35760  Biso   1.000  C
  H2       1.0000 0.53340  0.21800  0.36910  Biso   1.000  H
  H3       1.0000 0.39760  0.15810  0.38080  Biso   1.000  H
  C5       1.0000 0.29410  0.20680  0.21480  Biso   1.000  C
  H4       1.0000 0.26940  0.25550  0.15850  Biso   1.000  H
  H5       1.0000 0.22560  0.21530  0.26370  Biso   1.000  H
  C6       1.0000 0.29780  0.08530  0.18560  Biso   1.000  C
  C7       1.0000 0.64050  0.41650  0.87580  Biso   1.000  C
  H6       1.0000 0.72370  0.42880  0.90730  Biso   1.000  H
  H7       1.0000 0.60210  0.49010  0.85540  Biso   1.000  H
  C8       1.0000 0.41220  0.34860  0.91880  Biso   1.000  C
  H8       1.0000 0.40040  0.37750  0.85210  Biso   1.000  H
  H9       1.0000 0.35810  0.39570  0.95990  Biso   1.000  H
  C9       1.0000 0.36370  0.22930  0.92840  Biso   1.000  C
  C10      1.0000 0.86880  0.34030  0.30610  Biso   1.000  C
  H10      1.0000 0.95990  0.31360  0.31210  Biso   1.000  H
  H11      1.0000 0.81340  0.27980  0.33160  Biso   1.000  H
  C11      1.0000 0.94160  0.41320  0.14000  Biso   1.000  C
  H12      1.0000 0.00550  0.44930  0.17930  Biso   1.000  H
  H13      1.0000 0.90170  0.47100  0.09590  Biso   1.000  H
  C12      1.0000 0.01120  0.32340  0.08170  Biso   1.000  C
  Zn4      1.0000 0.84264  0.48402  0.60446  Biso   1.000  Zn
  Zn5      1.0000 0.44533  0.42505  0.62167  Biso   1.000  Zn
  Zn6      1.0000 0.37743  0.88991  0.11254  Biso   1.000  Zn
  P4       1.0000 0.62500  0.65600  0.57437  Biso   1.000  P
  P5       1.0000 0.32930  0.66480  0.22994  Biso   1.000  P
  P6       1.0000 0.15593  0.53845  0.62071  Biso   1.000  P
  O16      1.0000 0.77060  0.63960  0.59510  Biso   1.000  O
  O17      1.0000 0.55570  0.54830  0.60730  Biso   1.000  O
  O18      1.0000 0.59910  0.69300  0.46990  Biso   1.000  O
  O19      1.0000 0.59210  0.96360  0.82700  Biso   1.000  O
  O20      1.0000 0.80690  0.95820  0.82410  Biso   1.000  O
  O21      1.0000 0.21790  0.60990  0.28460  Biso   1.000  O
  O22      1.0000 0.28410  0.78420  0.18970  Biso   1.000  O
  O23      1.0000 0.45520  0.67510  0.28450  Biso   1.000  O
  O24      1.0000 0.55950  0.85490  0.08500  Biso   1.000  O
  O25      1.0000 0.75680  0.78380  0.05450  Biso   1.000  O
  O26      1.0000 0.26990  0.46570  0.66300  Biso   1.000  O
  O27      1.0000 0.03210  0.46850  0.62790  Biso   1.000  O
  O28      1.0000 0.18180  0.58690  0.51840  Biso   1.000  O
  O29      1.0000 0.89670  0.63270  0.97330  Biso   1.000  O
  H14      1.0000 0.85380  0.68360  0.99820  Biso   1.000  H
  O30      1.0000 0.01450  0.77500  0.91530  Biso   1.000  O
  N7       1.0000 0.58340  0.75380  0.74720  Biso   1.000  N
  N8       1.0000 0.16060  0.63700  0.79680  Biso   1.000  N
  N9       1.0000 0.44840  0.64090  0.05470  Biso   1.000  N
  N10      1.0000 0.51650  0.70020  0.90180  Biso   1.000  N
  N11      1.0000 0.37030  0.69690  0.76900  Biso   1.000  N
  N12      1.0000 0.29860  0.63540  0.92900  Biso   1.000  N
  C13      1.0000 0.48570  0.71690  0.80700  Biso   1.000  C
  C14      1.0000 0.41890  0.65790  0.95810  Biso   1.000  C
  C15      1.0000 0.28090  0.65680  0.83250  Biso   1.000  C
  C16      1.0000 0.56060  0.77250  0.64240  Biso   1.000  C
  H15      1.0000 0.46660  0.78200  0.63090  Biso   1.000  H
  H16      1.0000 0.60240  0.84190  0.61920  Biso   1.000  H
  C17      1.0000 0.70590  0.79320  0.78520  Biso   1.000  C
  H17      1.0000 0.73060  0.74450  0.84150  Biso   1.000  H
  H18      1.0000 0.77440  0.78470  0.73630  Biso   1.000  H
  C18      1.0000 0.70220  0.91470  0.81440  Biso   1.000  C
  C19      1.0000 0.35950  0.58350  0.12420  Biso   1.000  C
  H19      1.0000 0.27630  0.57120  0.09270  Biso   1.000  H
  H20      1.0000 0.39790  0.50990  0.14460  Biso   1.000  H
  C20      1.0000 0.58780  0.65140  0.08120  Biso   1.000  C
  H21      1.0000 0.59960  0.62250  0.14790  Biso   1.000  H
  H22      1.0000 0.64190  0.60430  0.04010  Biso   1.000  H
  C21      1.0000 0.63630  0.77070  0.07160  Biso   1.000  C
  C22      1.0000 0.13120  0.65970  0.69390  Biso   1.000  C
  H23      1.0000 0.04010  0.68640  0.68790  Biso   1.000  H
  H24      1.0000 0.18660  0.72020  0.66840  Biso   1.000  H
  C23      1.0000 0.05840  0.58680  0.86000  Biso   1.000  C
  H25      1.0000 0.99450  0.55070  0.82070  Biso   1.000  H
  H26      1.0000 0.09830  0.52900  0.90410  Biso   1.000  H
  C24      1.0000 0.98880  0.67660  0.91830  Biso   1.000  C
