data_image0
_cell_length_a       15.444
_cell_length_b       17.895
_cell_length_c       8.979
_cell_angle_alpha    90
_cell_angle_beta     90
_cell_angle_gamma    90

_symmetry_space_group_name_H-M    "P 1"
_symmetry_int_tables_number       1

loop_
  _symmetry_equiv_pos_as_xyz
  'x, y, z'

loop_
  _atom_site_label
  _atom_site_occupancy
  _atom_site_fract_x
  _atom_site_fract_y
  _atom_site_fract_z
  _atom_site_thermal_displace_type
  _atom_site_B_iso_or_equiv
  _atom_site_type_symbol
  Zn1      1.0000 0.08578  0.39508  0.05717  Biso   1.000  Zn
  P1       1.0000 0.98674  0.51468  0.23076  Biso   1.000  P
  O1       1.0000 0.07380  0.48000  0.19540  Biso   1.000  O
  O2       1.0000 0.96450  0.58070  0.13510  Biso   1.000  O
  O3       1.0000 0.98090  0.53750  0.39340  Biso   1.000  O
  O4       1.0000 0.70870  0.39210  0.49700  Biso   1.000  O
  O5       1.0000 0.72820  0.35950  0.26270  Biso   1.000  O
  N1       1.0000 0.90810  0.37810  0.29010  Biso   1.000  N
  N2       1.0000 0.00410  0.31630  0.13680  Biso   1.000  N
  C1       1.0000 0.90510  0.44400  0.19320  Biso   1.000  C
  H1       1.0000 0.84850  0.46690  0.20240  Biso   1.000  H
  H2       1.0000 0.91150  0.42760  0.09080  Biso   1.000  H
  C2       1.0000 0.85210  0.38010  0.41890  Biso   1.000  C
  H3       1.0000 0.86350  0.42590  0.47330  Biso   1.000  H
  H4       1.0000 0.86720  0.33870  0.48360  Biso   1.000  H
  C3       1.0000 0.75660  0.37600  0.38600  Biso   1.000  C
  C4       1.0000 0.94370  0.31290  0.24470  Biso   1.000  C
  Zn2      1.0000 0.41422  0.60492  0.55717  Biso   1.000  Zn
  P2       1.0000 0.51326  0.48532  0.73076  Biso   1.000  P
  O6       1.0000 0.42620  0.52000  0.69540  Biso   1.000  O
  O7       1.0000 0.53550  0.41930  0.63510  Biso   1.000  O
  O8       1.0000 0.51910  0.46250  0.89340  Biso   1.000  O
  O9       1.0000 0.79130  0.60790  0.99700  Biso   1.000  O
  O10      1.0000 0.77180  0.64050  0.76270  Biso   1.000  O
  N3       1.0000 0.59190  0.62190  0.79010  Biso   1.000  N
  N4       1.0000 0.49590  0.68370  0.63680  Biso   1.000  N
  C5       1.0000 0.59490  0.55600  0.69320  Biso   1.000  C
  H5       1.0000 0.65150  0.53310  0.70240  Biso   1.000  H
  H6       1.0000 0.58850  0.57240  0.59080  Biso   1.000  H
  C6       1.0000 0.64790  0.61990  0.91890  Biso   1.000  C
  H7       1.0000 0.63650  0.57410  0.97330  Biso   1.000  H
  H8       1.0000 0.63280  0.66130  0.98360  Biso   1.000  H
  C7       1.0000 0.74340  0.62400  0.88600  Biso   1.000  C
  C8       1.0000 0.55630  0.68710  0.74470  Biso   1.000  C
  Zn3      1.0000 0.91422  0.89508  0.94283  Biso   1.000  Zn
  P3       1.0000 0.01326  0.01468  0.76924  Biso   1.000  P
  O11      1.0000 0.92620  0.98000  0.80460  Biso   1.000  O
  O12      1.0000 0.03550  0.08070  0.86490  Biso   1.000  O
  O13      1.0000 0.01910  0.03750  0.60660  Biso   1.000  O
  O14      1.0000 0.29130  0.89210  0.50300  Biso   1.000  O
  O15      1.0000 0.27180  0.85950  0.73730  Biso   1.000  O
  N5       1.0000 0.09190  0.87810  0.70990  Biso   1.000  N
  N6       1.0000 0.99590  0.81630  0.86320  Biso   1.000  N
  C9       1.0000 0.09490  0.94400  0.80680  Biso   1.000  C
  H9       1.0000 0.15150  0.96690  0.79760  Biso   1.000  H
  H10      1.0000 0.08850  0.92760  0.90920  Biso   1.000  H
  C10      1.0000 0.14790  0.88010  0.58110  Biso   1.000  C
  H11      1.0000 0.13650  0.92590  0.52670  Biso   1.000  H
  H12      1.0000 0.13280  0.83870  0.51640  Biso   1.000  H
  C11      1.0000 0.24340  0.87600  0.61400  Biso   1.000  C
  C12      1.0000 0.05630  0.81290  0.75530  Biso   1.000  C
  Zn4      1.0000 0.58578  0.10492  0.44283  Biso   1.000  Zn
  P4       1.0000 0.48674  0.98532  0.26924  Biso   1.000  P
  O16      1.0000 0.57380  0.02000  0.30460  Biso   1.000  O
  O17      1.0000 0.46450  0.91930  0.36490  Biso   1.000  O
  O18      1.0000 0.48090  0.96250  0.10660  Biso   1.000  O
  O19      1.0000 0.20870  0.10790  0.00300  Biso   1.000  O
  O20      1.0000 0.22820  0.14050  0.23730  Biso   1.000  O
  N7       1.0000 0.40810  0.12190  0.20990  Biso   1.000  N
  N8       1.0000 0.50410  0.18370  0.36320  Biso   1.000  N
  C13      1.0000 0.40510  0.05600  0.30680  Biso   1.000  C
  H13      1.0000 0.34850  0.03310  0.29760  Biso   1.000  H
  H14      1.0000 0.41150  0.07240  0.40920  Biso   1.000  H
  C14      1.0000 0.35210  0.11990  0.08110  Biso   1.000  C
  H15      1.0000 0.36350  0.07410  0.02670  Biso   1.000  H
  H16      1.0000 0.36720  0.16130  0.01640  Biso   1.000  H
  C15      1.0000 0.25660  0.12400  0.11400  Biso   1.000  C
  C16      1.0000 0.44370  0.18710  0.25530  Biso   1.000  C
  Zn5      1.0000 0.91422  0.60492  0.94283  Biso   1.000  Zn
  P5       1.0000 0.01326  0.48532  0.76924  Biso   1.000  P
  O21      1.0000 0.92620  0.52000  0.80460  Biso   1.000  O
  O22      1.0000 0.03550  0.41930  0.86490  Biso   1.000  O
  O23      1.0000 0.01910  0.46250  0.60660  Biso   1.000  O
  O24      1.0000 0.29130  0.60790  0.50300  Biso   1.000  O
  O25      1.0000 0.27180  0.64050  0.73730  Biso   1.000  O
  N9       1.0000 0.09190  0.62190  0.70990  Biso   1.000  N
  N10      1.0000 0.99590  0.68370  0.86320  Biso   1.000  N
  C17      1.0000 0.09490  0.55600  0.80680  Biso   1.000  C
  H17      1.0000 0.15150  0.53310  0.79760  Biso   1.000  H
  H18      1.0000 0.08850  0.57240  0.90920  Biso   1.000  H
  C18      1.0000 0.14790  0.61990  0.58110  Biso   1.000  C
  H19      1.0000 0.13650  0.57410  0.52670  Biso   1.000  H
  H20      1.0000 0.13280  0.66130  0.51640  Biso   1.000  H
  C19      1.0000 0.24340  0.62400  0.61400  Biso   1.000  C
  C20      1.0000 0.05630  0.68710  0.75530  Biso   1.000  C
  Zn6      1.0000 0.58578  0.39508  0.44283  Biso   1.000  Zn
  P6       1.0000 0.48674  0.51468  0.26924  Biso   1.000  P
  O26      1.0000 0.57380  0.48000  0.30460  Biso   1.000  O
  O27      1.0000 0.46450  0.58070  0.36490  Biso   1.000  O
  O28      1.0000 0.48090  0.53750  0.10660  Biso   1.000  O
  O29      1.0000 0.20870  0.39210  0.00300  Biso   1.000  O
  O30      1.0000 0.22820  0.35950  0.23730  Biso   1.000  O
  N11      1.0000 0.40810  0.37810  0.20990  Biso   1.000  N
  N12      1.0000 0.50410  0.31630  0.36320  Biso   1.000  N
  C21      1.0000 0.40510  0.44400  0.30680  Biso   1.000  C
  H21      1.0000 0.34850  0.46690  0.29760  Biso   1.000  H
  H22      1.0000 0.41150  0.42760  0.40920  Biso   1.000  H
  C22      1.0000 0.35210  0.38010  0.08110  Biso   1.000  C
  H23      1.0000 0.36350  0.42590  0.02670  Biso   1.000  H
  H24      1.0000 0.36720  0.33870  0.01640  Biso   1.000  H
  C23      1.0000 0.25660  0.37600  0.11400  Biso   1.000  C
  C24      1.0000 0.44370  0.31290  0.25530  Biso   1.000  C
  Zn7      1.0000 0.08578  0.10492  0.05717  Biso   1.000  Zn
  P7       1.0000 0.98674  0.98532  0.23076  Biso   1.000  P
  O31      1.0000 0.07380  0.02000  0.19540  Biso   1.000  O
  O32      1.0000 0.96450  0.91930  0.13510  Biso   1.000  O
  O33      1.0000 0.98090  0.96250  0.39340  Biso   1.000  O
  O34      1.0000 0.70870  0.10790  0.49700  Biso   1.000  O
  O35      1.0000 0.72820  0.14050  0.26270  Biso   1.000  O
  N13      1.0000 0.90810  0.12190  0.29010  Biso   1.000  N
  N14      1.0000 0.00410  0.18370  0.13680  Biso   1.000  N
  C25      1.0000 0.90510  0.05600  0.19320  Biso   1.000  C
  H25      1.0000 0.84850  0.03310  0.20240  Biso   1.000  H
  H26      1.0000 0.91150  0.07240  0.09080  Biso   1.000  H
  C26      1.0000 0.85210  0.11990  0.41890  Biso   1.000  C
  H27      1.0000 0.86350  0.07410  0.47330  Biso   1.000  H
  H28      1.0000 0.86720  0.16130  0.48360  Biso   1.000  H
  C27      1.0000 0.75660  0.12400  0.38600  Biso   1.000  C
  C28      1.0000 0.94370  0.18710  0.24470  Biso   1.000  C
  Zn8      1.0000 0.41422  0.89508  0.55717  Biso   1.000  Zn
  P8       1.0000 0.51326  0.01468  0.73076  Biso   1.000  P
  O36      1.0000 0.42620  0.98000  0.69540  Biso   1.000  O
  O37      1.0000 0.53550  0.08070  0.63510  Biso   1.000  O
  O38      1.0000 0.51910  0.03750  0.89340  Biso   1.000  O
  O39      1.0000 0.79130  0.89210  0.99700  Biso   1.000  O
  O40      1.0000 0.77180  0.85950  0.76270  Biso   1.000  O
  N15      1.0000 0.59190  0.87810  0.79010  Biso   1.000  N
  N16      1.0000 0.49590  0.81630  0.63680  Biso   1.000  N
  C29      1.0000 0.59490  0.94400  0.69320  Biso   1.000  C
  H29      1.0000 0.65150  0.96690  0.70240  Biso   1.000  H
  H30      1.0000 0.58850  0.92760  0.59080  Biso   1.000  H
  C30      1.0000 0.64790  0.88010  0.91890  Biso   1.000  C
  H31      1.0000 0.63650  0.92590  0.97330  Biso   1.000  H
  H32      1.0000 0.63280  0.83870  0.98360  Biso   1.000  H
  C31      1.0000 0.74340  0.87600  0.88600  Biso   1.000  C
  C32      1.0000 0.55630  0.81290  0.74470  Biso   1.000  C
  O41      1.0000 0.09540  0.25000  0.99510  Biso   1.000  O
  N17      1.0000 0.91520  0.25000  0.30500  Biso   1.000  N
  C33      1.0000 0.03660  0.25000  0.08710  Biso   1.000  C
  O42      1.0000 0.40460  0.75000  0.49510  Biso   1.000  O
  N18      1.0000 0.58480  0.75000  0.80500  Biso   1.000  N
  C34      1.0000 0.46340  0.75000  0.58710  Biso   1.000  C
  O43      1.0000 0.90460  0.75000  0.00490  Biso   1.000  O
  N19      1.0000 0.08480  0.75000  0.69500  Biso   1.000  N
  C35      1.0000 0.96340  0.75000  0.91290  Biso   1.000  C
  O44      1.0000 0.59540  0.25000  0.50490  Biso   1.000  O
  N20      1.0000 0.41520  0.25000  0.19500  Biso   1.000  N
  C36      1.0000 0.53660  0.25000  0.41290  Biso   1.000  C
