data_image0
_cell_length_a       6.3716
_cell_length_b       13.1646
_cell_length_c       14.8622
_cell_angle_alpha    90
_cell_angle_beta     90
_cell_angle_gamma    90

_symmetry_space_group_name_H-M    "P 1"
_symmetry_int_tables_number       1

loop_
  _symmetry_equiv_pos_as_xyz
  'x, y, z'

loop_
  _atom_site_label
  _atom_site_occupancy
  _atom_site_fract_x
  _atom_site_fract_y
  _atom_site_fract_z
  _atom_site_thermal_displace_type
  _atom_site_B_iso_or_equiv
  _atom_site_type_symbol
  N1       1.0000 0.44820  0.64470  0.65860  Biso   1.000  N
  C1       1.0000 0.52030  0.55350  0.68570  Biso   1.000  C
  H1       1.0000 0.47380  0.52750  0.74040  Biso   1.000  H
  C2       1.0000 0.66100  0.49710  0.63540  Biso   1.000  C
  H2       1.0000 0.70570  0.43420  0.65640  Biso   1.000  H
  C3       1.0000 0.73430  0.53320  0.55440  Biso   1.000  C
  C4       1.0000 0.65430  0.62590  0.52730  Biso   1.000  C
  H3       1.0000 0.69530  0.65330  0.47230  Biso   1.000  H
  C5       1.0000 0.51660  0.67760  0.57990  Biso   1.000  C
  H4       1.0000 0.46750  0.73990  0.55940  Biso   1.000  H
  C6       1.0000 0.89150  0.47620  0.49960  Biso   1.000  C
  H5       1.0000 0.92400  0.40800  0.51400  Biso   1.000  H
  H6       1.0000 0.83000  0.46500  0.44600  Biso   1.000  H
  N2       1.0000 0.05180  0.85530  0.65860  Biso   1.000  N
  C7       1.0000 0.97970  0.94650  0.68570  Biso   1.000  C
  H7       1.0000 0.02620  0.97250  0.74040  Biso   1.000  H
  C8       1.0000 0.83900  0.00290  0.63540  Biso   1.000  C
  H8       1.0000 0.79430  0.06580  0.65640  Biso   1.000  H
  C9       1.0000 0.76570  0.96680  0.55440  Biso   1.000  C
  C10      1.0000 0.84570  0.87410  0.52730  Biso   1.000  C
  H9       1.0000 0.80470  0.84670  0.47230  Biso   1.000  H
  C11      1.0000 0.98340  0.82240  0.57990  Biso   1.000  C
  H10      1.0000 0.03250  0.76010  0.55940  Biso   1.000  H
  C12      1.0000 0.60850  0.02380  0.49960  Biso   1.000  C
  H11      1.0000 0.57600  0.09200  0.51400  Biso   1.000  H
  H12      1.0000 0.67000  0.03500  0.44600  Biso   1.000  H
  N3       1.0000 0.05180  0.64470  0.84140  Biso   1.000  N
  C13      1.0000 0.97970  0.55350  0.81430  Biso   1.000  C
  H13      1.0000 0.02620  0.52750  0.75960  Biso   1.000  H
  C14      1.0000 0.83900  0.49710  0.86460  Biso   1.000  C
  H14      1.0000 0.79430  0.43420  0.84360  Biso   1.000  H
  C15      1.0000 0.76570  0.53320  0.94560  Biso   1.000  C
  C16      1.0000 0.84570  0.62590  0.97270  Biso   1.000  C
  H15      1.0000 0.80470  0.65330  0.02770  Biso   1.000  H
  C17      1.0000 0.98340  0.67760  0.92010  Biso   1.000  C
  H16      1.0000 0.03250  0.73990  0.94060  Biso   1.000  H
  C18      1.0000 0.60850  0.47620  0.00040  Biso   1.000  C
  H17      1.0000 0.57600  0.40800  0.98600  Biso   1.000  H
  H18      1.0000 0.67000  0.46500  0.05400  Biso   1.000  H
  N4       1.0000 0.44820  0.85530  0.84140  Biso   1.000  N
  C19      1.0000 0.52030  0.94650  0.81430  Biso   1.000  C
  H19      1.0000 0.47380  0.97250  0.75960  Biso   1.000  H
  C20      1.0000 0.66100  0.00290  0.86460  Biso   1.000  C
  H20      1.0000 0.70570  0.06580  0.84360  Biso   1.000  H
  C21      1.0000 0.73430  0.96680  0.94560  Biso   1.000  C
  C22      1.0000 0.65430  0.87410  0.97270  Biso   1.000  C
  H21      1.0000 0.69530  0.84670  0.02770  Biso   1.000  H
  C23      1.0000 0.51660  0.82240  0.92010  Biso   1.000  C
  H22      1.0000 0.46750  0.76010  0.94060  Biso   1.000  H
  C24      1.0000 0.89150  0.02380  0.00040  Biso   1.000  C
  H23      1.0000 0.92400  0.09200  0.98600  Biso   1.000  H
  H24      1.0000 0.83000  0.03500  0.05400  Biso   1.000  H
  N5       1.0000 0.55180  0.35530  0.34140  Biso   1.000  N
  C25      1.0000 0.47970  0.44650  0.31430  Biso   1.000  C
  H25      1.0000 0.52620  0.47250  0.25960  Biso   1.000  H
  C26      1.0000 0.33900  0.50290  0.36460  Biso   1.000  C
  H26      1.0000 0.29430  0.56580  0.34360  Biso   1.000  H
  C27      1.0000 0.26570  0.46680  0.44560  Biso   1.000  C
  C28      1.0000 0.34570  0.37410  0.47270  Biso   1.000  C
  H27      1.0000 0.30470  0.34670  0.52770  Biso   1.000  H
  C29      1.0000 0.48340  0.32240  0.42010  Biso   1.000  C
  H28      1.0000 0.53250  0.26010  0.44060  Biso   1.000  H
  C30      1.0000 0.10850  0.52380  0.50040  Biso   1.000  C
  H29      1.0000 0.07600  0.59200  0.48600  Biso   1.000  H
  H30      1.0000 0.17000  0.53500  0.55400  Biso   1.000  H
  N6       1.0000 0.94820  0.14470  0.34140  Biso   1.000  N
  C31      1.0000 0.02030  0.05350  0.31430  Biso   1.000  C
  H31      1.0000 0.97380  0.02750  0.25960  Biso   1.000  H
  C32      1.0000 0.16100  0.99710  0.36460  Biso   1.000  C
  H32      1.0000 0.20570  0.93420  0.34360  Biso   1.000  H
  C33      1.0000 0.23430  0.03320  0.44560  Biso   1.000  C
  C34      1.0000 0.15430  0.12590  0.47270  Biso   1.000  C
  H33      1.0000 0.19530  0.15330  0.52770  Biso   1.000  H
  C35      1.0000 0.01660  0.17760  0.42010  Biso   1.000  C
  H34      1.0000 0.96750  0.23990  0.44060  Biso   1.000  H
  C36      1.0000 0.39150  0.97620  0.50040  Biso   1.000  C
  H35      1.0000 0.42400  0.90800  0.48600  Biso   1.000  H
  H36      1.0000 0.33000  0.96500  0.55400  Biso   1.000  H
  N7       1.0000 0.94820  0.35530  0.15860  Biso   1.000  N
  C37      1.0000 0.02030  0.44650  0.18570  Biso   1.000  C
  H37      1.0000 0.97380  0.47250  0.24040  Biso   1.000  H
  C38      1.0000 0.16100  0.50290  0.13540  Biso   1.000  C
  H38      1.0000 0.20570  0.56580  0.15640  Biso   1.000  H
  C39      1.0000 0.23430  0.46680  0.05440  Biso   1.000  C
  C40      1.0000 0.15430  0.37410  0.02730  Biso   1.000  C
  H39      1.0000 0.19530  0.34670  0.97230  Biso   1.000  H
  C41      1.0000 0.01660  0.32240  0.07990  Biso   1.000  C
  H40      1.0000 0.96750  0.26010  0.05940  Biso   1.000  H
  C42      1.0000 0.39150  0.52380  0.99960  Biso   1.000  C
  H41      1.0000 0.42400  0.59200  0.01400  Biso   1.000  H
  H42      1.0000 0.33000  0.53500  0.94600  Biso   1.000  H
  N8       1.0000 0.55180  0.14470  0.15860  Biso   1.000  N
  C43      1.0000 0.47970  0.05350  0.18570  Biso   1.000  C
  H43      1.0000 0.52620  0.02750  0.24040  Biso   1.000  H
  C44      1.0000 0.33900  0.99710  0.13540  Biso   1.000  C
  H44      1.0000 0.29430  0.93420  0.15640  Biso   1.000  H
  C45      1.0000 0.26570  0.03320  0.05440  Biso   1.000  C
  C46      1.0000 0.34570  0.12590  0.02730  Biso   1.000  C
  H45      1.0000 0.30470  0.15330  0.97230  Biso   1.000  H
  C47      1.0000 0.48340  0.17760  0.07990  Biso   1.000  C
  H46      1.0000 0.53250  0.23990  0.05940  Biso   1.000  H
  C48      1.0000 0.10850  0.97620  0.99960  Biso   1.000  C
  H47      1.0000 0.07600  0.90800  0.01400  Biso   1.000  H
  H48      1.0000 0.17000  0.96500  0.94600  Biso   1.000  H
  Ag1      1.0000 0.25000  0.75000  0.75000  Biso   1.000  Ag
  Ag2      1.0000 0.75000  0.25000  0.25000  Biso   1.000  Ag
