data_image0
_cell_length_a       15.081
_cell_length_b       14.538
_cell_length_c       17.935
_cell_angle_alpha    90
_cell_angle_beta     95.951
_cell_angle_gamma    90

_symmetry_space_group_name_H-M    "P 1"
_symmetry_int_tables_number       1

loop_
  _symmetry_equiv_pos_as_xyz
  'x, y, z'

loop_
  _atom_site_label
  _atom_site_occupancy
  _atom_site_fract_x
  _atom_site_fract_y
  _atom_site_fract_z
  _atom_site_thermal_displace_type
  _atom_site_B_iso_or_equiv
  _atom_site_type_symbol
  Cd1      1.0000 0.46582  0.10405  0.47998  Biso   1.000  Cd
  Cd2      1.0000 0.09343  0.13285  0.83500  Biso   1.000  Cd
  O1       1.0000 0.51880  0.82310  0.52510  Biso   1.000  O
  C1       1.0000 0.69350  0.03390  0.59610  Biso   1.000  C
  O2       1.0000 0.36770  0.98920  0.43780  Biso   1.000  O
  C2       1.0000 0.63470  0.96390  0.57130  Biso   1.000  C
  H1       1.0000 0.57940  0.97970  0.54680  Biso   1.000  H
  O3       1.0000 0.62130  0.71710  0.56100  Biso   1.000  O
  O4       1.0000 0.72270  0.19440  0.60660  Biso   1.000  O
  C3       1.0000 0.24360  0.06490  0.36670  Biso   1.000  C
  H2       1.0000 0.28670  0.11300  0.35760  Biso   1.000  H
  N1       1.0000 0.41800  0.07430  0.59280  Biso   1.000  N
  C4       1.0000 0.80360  0.92040  0.63170  Biso   1.000  C
  O5       1.0000 0.59300  0.15200  0.54650  Biso   1.000  O
  C5       1.0000 0.59250  0.79950  0.55310  Biso   1.000  C
  O6       1.0000 0.26000  0.90200  0.38390  Biso   1.000  O
  C6       1.0000 0.74530  0.85090  0.61450  Biso   1.000  C
  H3       1.0000 0.76220  0.79010  0.62360  Biso   1.000  H
  N2       1.0000 0.54410  0.06620  0.38350  Biso   1.000  N
  O7       1.0000 0.91340  0.85690  0.72570  Biso   1.000  O
  N3       1.0000 0.41050  0.05930  0.71470  Biso   1.000  N
  O8       1.0000 0.17550  0.08570  0.95220  Biso   1.000  O
  C7       1.0000 0.66880  0.13370  0.58210  Biso   1.000  C
  N4       1.0000 0.18650  0.04500  0.29770  Biso   1.000  N
  C8       1.0000 0.89750  0.89920  0.66530  Biso   1.000  C
  C9       1.0000 0.17960  0.09990  0.41900  Biso   1.000  C
  H4       1.0000 0.20490  0.15210  0.44750  Biso   1.000  H
  H5       1.0000 0.16570  0.05210  0.45360  Biso   1.000  H
  C10      1.0000 0.36920  0.06090  0.84200  Biso   1.000  C
  H6       1.0000 0.30950  0.06710  0.82380  Biso   1.000  H
  C11      1.0000 0.46140  0.08020  0.65930  Biso   1.000  C
  H7       1.0000 0.52110  0.09700  0.66770  Biso   1.000  H
  C12      1.0000 0.05790  0.87140  0.12030  Biso   1.000  C
  O9       1.0000 0.04120  0.02470  0.91990  Biso   1.000  O
  C13      1.0000 0.32530  0.03740  0.67880  Biso   1.000  C
  H8       1.0000 0.27460  0.02000  0.70080  Biso   1.000  H
  C14      1.0000 0.50540  0.06190  0.31570  Biso   1.000  C
  H9       1.0000 0.44400  0.06210  0.30300  Biso   1.000  H
  C15      1.0000 0.48220  0.04960  0.94780  Biso   1.000  C
  C16      1.0000 0.39420  0.05710  0.91750  Biso   1.000  C
  H10      1.0000 0.35010  0.05960  0.94990  Biso   1.000  H
  C17      1.0000 0.16640  0.98100  0.17210  Biso   1.000  C
  C18      1.0000 0.54610  0.04140  0.89720  Biso   1.000  C
  H11      1.0000 0.60550  0.03410  0.91590  Biso   1.000  H
  C19      1.0000 0.63160  0.06810  0.37740  Biso   1.000  C
  H12      1.0000 0.67450  0.07340  0.41830  Biso   1.000  H
  O10      1.0000 0.30690  0.01350  0.23700  Biso   1.000  O
  N5       1.0000 0.56650  0.05710  0.26570  Biso   1.000  N
  C20      1.0000 0.52500  0.04360  0.82190  Biso   1.000  C
  H13      1.0000 0.56950  0.03740  0.79010  Biso   1.000  H
  C21      1.0000 0.29270  0.97820  0.39770  Biso   1.000  C
  C22      1.0000 0.65130  0.06140  0.30590  Biso   1.000  C
  H14      1.0000 0.70690  0.06000  0.28780  Biso   1.000  H
  O11      1.0000 0.14270  0.00830  0.75850  Biso   1.000  O
  O12      1.0000 0.00910  0.06320  0.73200  Biso   1.000  O
  C23      1.0000 0.11140  0.03900  0.96340  Biso   1.000  C
  C24      1.0000 0.22450  0.01390  0.23680  Biso   1.000  C
  N6       1.0000 0.96040  0.93370  0.62430  Biso   1.000  N
  C25      1.0000 0.09460  0.05800  0.30790  Biso   1.000  C
  H15      1.0000 0.06830  0.00100  0.32320  Biso   1.000  H
  H16      1.0000 0.06150  0.07910  0.26180  Biso   1.000  H
  C26      1.0000 0.05870  0.93930  0.65560  Biso   1.000  C
  H17      1.0000 0.07850  0.87820  0.67350  Biso   1.000  H
  C27      1.0000 0.06990  0.00690  0.72170  Biso   1.000  C
  C28      1.0000 0.33430  0.04760  0.60570  Biso   1.000  C
  H18      1.0000 0.28840  0.03740  0.56790  Biso   1.000  H
  C29      1.0000 0.05710  0.91810  0.05050  Biso   1.000  C
  H19      1.0000 0.01710  0.89900  0.01050  Biso   1.000  H
  C30      1.0000 0.77940  0.01170  0.62430  Biso   1.000  C
  H20      1.0000 0.82060  0.05780  0.63810  Biso   1.000  H
  C31      1.0000 0.10850  0.90760  0.18130  Biso   1.000  C
  H21      1.0000 0.10430  0.88340  0.22880  Biso   1.000  H
  C32      1.0000 0.43580  0.05530  0.79180  Biso   1.000  C
  C33      1.0000 0.54790  0.05190  0.18630  Biso   1.000  C
  C34      1.0000 0.50710  0.04770  0.03100  Biso   1.000  C
  C35      1.0000 0.17090  0.02080  0.10180  Biso   1.000  C
  H22      1.0000 0.21180  0.06740  0.09550  Biso   1.000  H
  C36      1.0000 0.65500  0.87330  0.58140  Biso   1.000  C
  C37      1.0000 0.46480  0.08900  0.15340  Biso   1.000  C
  H23      1.0000 0.42450  0.11770  0.18170  Biso   1.000  H
  C38      1.0000 0.60600  0.02130  0.14130  Biso   1.000  C
  H24      1.0000 0.66180  0.00180  0.16240  Biso   1.000  H
  O13      1.0000 0.00770  0.74560  0.18960  Biso   1.000  O
  C39      1.0000 0.09400  0.12930  0.36800  Biso   1.000  C
  H25      1.0000 0.04100  0.12520  0.39410  Biso   1.000  H
  H26      1.0000 0.09920  0.19100  0.34830  Biso   1.000  H
  C40      1.0000 0.58610  0.01740  0.06320  Biso   1.000  C
  H27      1.0000 0.62780  0.99370  0.03360  Biso   1.000  H
  C41      1.0000 0.11260  0.98940  0.04030  Biso   1.000  C
  C42      1.0000 0.10520  0.96350  0.59120  Biso   1.000  C
  H28      1.0000 0.16270  0.93310  0.59400  Biso   1.000  H
  H29      1.0000 0.11450  0.02940  0.58930  Biso   1.000  H
  C43      1.0000 0.44890  0.07930  0.07700  Biso   1.000  C
  H30      1.0000 0.39270  0.09620  0.05500  Biso   1.000  H
  C44      1.0000 0.00130  0.79150  0.13140  Biso   1.000  C
  O14      1.0000 0.94230  0.76250  0.08150  Biso   1.000  O
  C45      1.0000 0.94940  0.96790  0.55090  Biso   1.000  C
  H31      1.0000 0.94460  0.03440  0.54970  Biso   1.000  H
  H32      1.0000 0.89820  0.94100  0.52170  Biso   1.000  H
  C46      1.0000 0.04600  0.93150  0.52210  Biso   1.000  C
  H33      1.0000 0.04750  0.86530  0.51550  Biso   1.000  H
  H34      1.0000 0.05990  0.96210  0.47670  Biso   1.000  H
  Cd3      1.0000 0.53418  0.60405  0.52002  Biso   1.000  Cd
  Cd4      1.0000 0.90657  0.63285  0.16500  Biso   1.000  Cd
  O15      1.0000 0.48120  0.32310  0.47490  Biso   1.000  O
  C47      1.0000 0.30650  0.53390  0.40390  Biso   1.000  C
  O16      1.0000 0.63230  0.48920  0.56220  Biso   1.000  O
  C48      1.0000 0.36530  0.46390  0.42870  Biso   1.000  C
  H35      1.0000 0.42060  0.47970  0.45320  Biso   1.000  H
  O17      1.0000 0.37870  0.21710  0.43900  Biso   1.000  O
  O18      1.0000 0.27730  0.69440  0.39340  Biso   1.000  O
  C49      1.0000 0.75640  0.56490  0.63330  Biso   1.000  C
  H36      1.0000 0.71330  0.61300  0.64240  Biso   1.000  H
  N7       1.0000 0.58200  0.57430  0.40720  Biso   1.000  N
  C50      1.0000 0.19640  0.42040  0.36830  Biso   1.000  C
  O19      1.0000 0.40700  0.65200  0.45350  Biso   1.000  O
  C51      1.0000 0.40750  0.29950  0.44690  Biso   1.000  C
  O20      1.0000 0.74000  0.40200  0.61610  Biso   1.000  O
  C52      1.0000 0.25470  0.35090  0.38550  Biso   1.000  C
  H37      1.0000 0.23780  0.29010  0.37640  Biso   1.000  H
  N8       1.0000 0.45590  0.56620  0.61650  Biso   1.000  N
  O21      1.0000 0.08660  0.35690  0.27430  Biso   1.000  O
  N9       1.0000 0.58950  0.55930  0.28530  Biso   1.000  N
  O22      1.0000 0.82450  0.58570  0.04780  Biso   1.000  O
  C53      1.0000 0.33120  0.63370  0.41790  Biso   1.000  C
  N10      1.0000 0.81350  0.54500  0.70230  Biso   1.000  N
  C54      1.0000 0.10250  0.39920  0.33470  Biso   1.000  C
  C55      1.0000 0.82040  0.59990  0.58100  Biso   1.000  C
  H38      1.0000 0.79510  0.65210  0.55250  Biso   1.000  H
  H39      1.0000 0.83430  0.55210  0.54640  Biso   1.000  H
  C56      1.0000 0.63080  0.56090  0.15800  Biso   1.000  C
  H40      1.0000 0.69050  0.56710  0.17620  Biso   1.000  H
  C57      1.0000 0.53860  0.58020  0.34070  Biso   1.000  C
  H41      1.0000 0.47890  0.59700  0.33230  Biso   1.000  H
  C58      1.0000 0.94210  0.37140  0.87970  Biso   1.000  C
  O23      1.0000 0.95880  0.52470  0.08010  Biso   1.000  O
  C59      1.0000 0.67470  0.53740  0.32120  Biso   1.000  C
  H42      1.0000 0.72540  0.52000  0.29920  Biso   1.000  H
  C60      1.0000 0.49460  0.56190  0.68430  Biso   1.000  C
  H43      1.0000 0.55600  0.56210  0.69700  Biso   1.000  H
  C61      1.0000 0.51780  0.54960  0.05220  Biso   1.000  C
  C62      1.0000 0.60580  0.55710  0.08250  Biso   1.000  C
  H44      1.0000 0.64990  0.55960  0.05010  Biso   1.000  H
  C63      1.0000 0.83360  0.48100  0.82790  Biso   1.000  C
  C64      1.0000 0.45390  0.54140  0.10280  Biso   1.000  C
  H45      1.0000 0.39450  0.53410  0.08410  Biso   1.000  H
  C65      1.0000 0.36840  0.56810  0.62260  Biso   1.000  C
  H46      1.0000 0.32550  0.57340  0.58170  Biso   1.000  H
  O24      1.0000 0.69310  0.51350  0.76300  Biso   1.000  O
  N11      1.0000 0.43350  0.55710  0.73430  Biso   1.000  N
  C66      1.0000 0.47500  0.54360  0.17810  Biso   1.000  C
  H47      1.0000 0.43050  0.53740  0.20990  Biso   1.000  H
  C67      1.0000 0.70730  0.47820  0.60230  Biso   1.000  C
  C68      1.0000 0.34870  0.56140  0.69410  Biso   1.000  C
  H48      1.0000 0.29310  0.56000  0.71220  Biso   1.000  H
  O25      1.0000 0.85730  0.50830  0.24150  Biso   1.000  O
  O26      1.0000 0.99090  0.56320  0.26800  Biso   1.000  O
  C69      1.0000 0.88860  0.53900  0.03660  Biso   1.000  C
  C70      1.0000 0.77550  0.51390  0.76320  Biso   1.000  C
  N12      1.0000 0.03960  0.43370  0.37570  Biso   1.000  N
  C71      1.0000 0.90540  0.55800  0.69210  Biso   1.000  C
  H49      1.0000 0.93170  0.50100  0.67680  Biso   1.000  H
  H50      1.0000 0.93850  0.57910  0.73820  Biso   1.000  H
  C72      1.0000 0.94130  0.43930  0.34440  Biso   1.000  C
  H51      1.0000 0.92150  0.37820  0.32650  Biso   1.000  H
  C73      1.0000 0.93010  0.50690  0.27830  Biso   1.000  C
  C74      1.0000 0.66570  0.54760  0.39430  Biso   1.000  C
  H52      1.0000 0.71160  0.53740  0.43210  Biso   1.000  H
  C75      1.0000 0.94290  0.41810  0.94950  Biso   1.000  C
  H53      1.0000 0.98290  0.39900  0.98950  Biso   1.000  H
  C76      1.0000 0.22060  0.51170  0.37570  Biso   1.000  C
  H54      1.0000 0.17940  0.55780  0.36190  Biso   1.000  H
  C77      1.0000 0.89150  0.40760  0.81870  Biso   1.000  C
  H55      1.0000 0.89570  0.38340  0.77120  Biso   1.000  H
  C78      1.0000 0.56420  0.55530  0.20820  Biso   1.000  C
  C79      1.0000 0.45210  0.55190  0.81370  Biso   1.000  C
  C80      1.0000 0.49290  0.54770  0.96900  Biso   1.000  C
  C81      1.0000 0.82910  0.52080  0.89820  Biso   1.000  C
  H56      1.0000 0.78820  0.56740  0.90450  Biso   1.000  H
  C82      1.0000 0.34500  0.37330  0.41860  Biso   1.000  C
  C83      1.0000 0.53520  0.58900  0.84660  Biso   1.000  C
  H57      1.0000 0.57550  0.61770  0.81830  Biso   1.000  H
  C84      1.0000 0.39400  0.52130  0.85870  Biso   1.000  C
  H58      1.0000 0.33820  0.50180  0.83760  Biso   1.000  H
  O27      1.0000 0.99230  0.24560  0.81040  Biso   1.000  O
  C85      1.0000 0.90600  0.62930  0.63200  Biso   1.000  C
  H59      1.0000 0.95900  0.62520  0.60590  Biso   1.000  H
  H60      1.0000 0.90080  0.69100  0.65170  Biso   1.000  H
  C86      1.0000 0.41390  0.51740  0.93680  Biso   1.000  C
  H61      1.0000 0.37220  0.49370  0.96640  Biso   1.000  H
  C87      1.0000 0.88740  0.48940  0.95970  Biso   1.000  C
  C88      1.0000 0.89480  0.46350  0.40880  Biso   1.000  C
  H62      1.0000 0.83730  0.43310  0.40600  Biso   1.000  H
  H63      1.0000 0.88550  0.52940  0.41070  Biso   1.000  H
  C89      1.0000 0.55110  0.57930  0.92300  Biso   1.000  C
  H64      1.0000 0.60730  0.59620  0.94500  Biso   1.000  H
  C90      1.0000 0.99870  0.29150  0.86860  Biso   1.000  C
  O28      1.0000 0.05770  0.26250  0.91850  Biso   1.000  O
  C91      1.0000 0.05060  0.46790  0.44910  Biso   1.000  C
  H65      1.0000 0.05540  0.53440  0.45030  Biso   1.000  H
  H66      1.0000 0.10180  0.44100  0.47830  Biso   1.000  H
  C92      1.0000 0.95400  0.43150  0.47790  Biso   1.000  C
  H67      1.0000 0.95250  0.36530  0.48450  Biso   1.000  H
  H68      1.0000 0.94010  0.46210  0.52330  Biso   1.000  H
