data_image0
_cell_length_a       18.352
_cell_length_b       18.352
_cell_length_c       18.352
_cell_angle_alpha    90
_cell_angle_beta     90
_cell_angle_gamma    90

_symmetry_space_group_name_H-M    "P 1"
_symmetry_int_tables_number       1

loop_
  _symmetry_equiv_pos_as_xyz
  'x, y, z'

loop_
  _atom_site_label
  _atom_site_occupancy
  _atom_site_fract_x
  _atom_site_fract_y
  _atom_site_fract_z
  _atom_site_thermal_displace_type
  _atom_site_B_iso_or_equiv
  _atom_site_type_symbol
  N1       1.0000 0.56420  0.50770  0.30620  Biso   1.000  N
  C1       1.0000 0.51250  0.45730  0.29660  Biso   1.000  C
  H1       1.0000 0.49750  0.42980  0.33640  Biso   1.000  H
  C2       1.0000 0.48080  0.44480  0.23050  Biso   1.000  C
  H2       1.0000 0.44440  0.40980  0.22630  Biso   1.000  H
  O1       1.0000 0.47200  0.47480  0.10660  Biso   1.000  O
  C3       1.0000 0.50280  0.48460  0.16810  Biso   1.000  C
  C4       1.0000 0.55930  0.53790  0.17940  Biso   1.000  C
  H3       1.0000 0.57660  0.56560  0.14070  Biso   1.000  H
  C5       1.0000 0.58670  0.54710  0.24660  Biso   1.000  C
  H4       1.0000 0.62290  0.58200  0.25310  Biso   1.000  H
  C6       1.0000 0.60050  0.51870  0.37730  Biso   1.000  C
  H5       1.0000 0.62110  0.56730  0.37890  Biso   1.000  H
  H6       1.0000 0.64010  0.48410  0.38210  Biso   1.000  H
  C7       1.0000 0.54760  0.50910  0.44180  Biso   1.000  C
  N2       1.0000 0.93580  0.49230  0.80620  Biso   1.000  N
  C8       1.0000 0.98750  0.54270  0.79660  Biso   1.000  C
  H7       1.0000 0.00250  0.57020  0.83640  Biso   1.000  H
  C9       1.0000 0.01920  0.55520  0.73050  Biso   1.000  C
  H8       1.0000 0.05560  0.59020  0.72630  Biso   1.000  H
  O2       1.0000 0.02800  0.52520  0.60660  Biso   1.000  O
  C10      1.0000 0.99720  0.51540  0.66810  Biso   1.000  C
  C11      1.0000 0.94070  0.46210  0.67940  Biso   1.000  C
  H9       1.0000 0.92340  0.43440  0.64070  Biso   1.000  H
  C12      1.0000 0.91330  0.45290  0.74660  Biso   1.000  C
  H10      1.0000 0.87710  0.41800  0.75310  Biso   1.000  H
  C13      1.0000 0.89950  0.48130  0.87730  Biso   1.000  C
  H11      1.0000 0.87890  0.43270  0.87890  Biso   1.000  H
  H12      1.0000 0.85990  0.51590  0.88210  Biso   1.000  H
  C14      1.0000 0.95240  0.49090  0.94180  Biso   1.000  C
  N3       1.0000 0.43580  0.00770  0.19380  Biso   1.000  N
  C15      1.0000 0.48750  0.95730  0.20340  Biso   1.000  C
  H13      1.0000 0.50250  0.92980  0.16360  Biso   1.000  H
  C16      1.0000 0.51920  0.94480  0.26950  Biso   1.000  C
  H14      1.0000 0.55560  0.90980  0.27370  Biso   1.000  H
  O3       1.0000 0.52800  0.97480  0.39340  Biso   1.000  O
  C17      1.0000 0.49720  0.98460  0.33190  Biso   1.000  C
  C18      1.0000 0.44070  0.03790  0.32060  Biso   1.000  C
  H15      1.0000 0.42340  0.06560  0.35930  Biso   1.000  H
  C19      1.0000 0.41330  0.04710  0.25340  Biso   1.000  C
  H16      1.0000 0.37710  0.08200  0.24690  Biso   1.000  H
  C20      1.0000 0.39950  0.01870  0.12270  Biso   1.000  C
  H17      1.0000 0.37890  0.06730  0.12110  Biso   1.000  H
  H18      1.0000 0.35990  0.98410  0.11790  Biso   1.000  H
  C21      1.0000 0.45240  0.00910  0.05820  Biso   1.000  C
  N4       1.0000 0.06420  0.99230  0.69380  Biso   1.000  N
  C22      1.0000 0.01250  0.04270  0.70340  Biso   1.000  C
  H19      1.0000 0.99750  0.07020  0.66360  Biso   1.000  H
  C23      1.0000 0.98080  0.05520  0.76950  Biso   1.000  C
  H20      1.0000 0.94440  0.09020  0.77370  Biso   1.000  H
  O4       1.0000 0.97200  0.02520  0.89340  Biso   1.000  O
  C24      1.0000 0.00280  0.01540  0.83190  Biso   1.000  C
  C25      1.0000 0.05930  0.96210  0.82060  Biso   1.000  C
  H21      1.0000 0.07660  0.93440  0.85930  Biso   1.000  H
  C26      1.0000 0.08670  0.95290  0.75340  Biso   1.000  C
  H22      1.0000 0.12290  0.91800  0.74690  Biso   1.000  H
  C27      1.0000 0.10050  0.98130  0.62270  Biso   1.000  C
  H23      1.0000 0.12110  0.93270  0.62110  Biso   1.000  H
  H24      1.0000 0.14010  0.01590  0.61790  Biso   1.000  H
  C28      1.0000 0.04760  0.99090  0.55820  Biso   1.000  C
  N5       1.0000 0.30620  0.56420  0.50770  Biso   1.000  N
  C29      1.0000 0.29660  0.51250  0.45730  Biso   1.000  C
  H25      1.0000 0.33640  0.49750  0.42980  Biso   1.000  H
  C30      1.0000 0.23050  0.48080  0.44480  Biso   1.000  C
  H26      1.0000 0.22630  0.44440  0.40980  Biso   1.000  H
  O5       1.0000 0.10660  0.47200  0.47480  Biso   1.000  O
  C31      1.0000 0.16810  0.50280  0.48460  Biso   1.000  C
  C32      1.0000 0.17940  0.55930  0.53790  Biso   1.000  C
  H27      1.0000 0.14070  0.57660  0.56560  Biso   1.000  H
  C33      1.0000 0.24660  0.58670  0.54710  Biso   1.000  C
  H28      1.0000 0.25310  0.62290  0.58200  Biso   1.000  H
  C34      1.0000 0.37730  0.60050  0.51870  Biso   1.000  C
  H29      1.0000 0.37890  0.62110  0.56730  Biso   1.000  H
  H30      1.0000 0.38210  0.64010  0.48410  Biso   1.000  H
  C35      1.0000 0.44180  0.54760  0.50910  Biso   1.000  C
  N6       1.0000 0.80620  0.93580  0.49230  Biso   1.000  N
  C36      1.0000 0.79660  0.98750  0.54270  Biso   1.000  C
  H31      1.0000 0.83640  0.00250  0.57020  Biso   1.000  H
  C37      1.0000 0.73050  0.01920  0.55520  Biso   1.000  C
  H32      1.0000 0.72630  0.05560  0.59020  Biso   1.000  H
  O6       1.0000 0.60660  0.02800  0.52520  Biso   1.000  O
  C38      1.0000 0.66810  0.99720  0.51540  Biso   1.000  C
  C39      1.0000 0.67940  0.94070  0.46210  Biso   1.000  C
  H33      1.0000 0.64070  0.92340  0.43440  Biso   1.000  H
  C40      1.0000 0.74660  0.91330  0.45290  Biso   1.000  C
  H34      1.0000 0.75310  0.87710  0.41800  Biso   1.000  H
  C41      1.0000 0.87730  0.89950  0.48130  Biso   1.000  C
  H35      1.0000 0.87890  0.87890  0.43270  Biso   1.000  H
  H36      1.0000 0.88210  0.85990  0.51590  Biso   1.000  H
  C42      1.0000 0.94180  0.95240  0.49090  Biso   1.000  C
  N7       1.0000 0.19380  0.43580  0.00770  Biso   1.000  N
  C43      1.0000 0.20340  0.48750  0.95730  Biso   1.000  C
  H37      1.0000 0.16360  0.50250  0.92980  Biso   1.000  H
  C44      1.0000 0.26950  0.51920  0.94480  Biso   1.000  C
  H38      1.0000 0.27370  0.55560  0.90980  Biso   1.000  H
  O7       1.0000 0.39340  0.52800  0.97480  Biso   1.000  O
  C45      1.0000 0.33190  0.49720  0.98460  Biso   1.000  C
  C46      1.0000 0.32060  0.44070  0.03790  Biso   1.000  C
  H39      1.0000 0.35930  0.42340  0.06560  Biso   1.000  H
  C47      1.0000 0.25340  0.41330  0.04710  Biso   1.000  C
  H40      1.0000 0.24690  0.37710  0.08200  Biso   1.000  H
  C48      1.0000 0.12270  0.39950  0.01870  Biso   1.000  C
  H41      1.0000 0.12110  0.37890  0.06730  Biso   1.000  H
  H42      1.0000 0.11790  0.35990  0.98410  Biso   1.000  H
  C49      1.0000 0.05820  0.45240  0.00910  Biso   1.000  C
  N8       1.0000 0.69380  0.06420  0.99230  Biso   1.000  N
  C50      1.0000 0.70340  0.01250  0.04270  Biso   1.000  C
  H43      1.0000 0.66360  0.99750  0.07020  Biso   1.000  H
  C51      1.0000 0.76950  0.98080  0.05520  Biso   1.000  C
  H44      1.0000 0.77370  0.94440  0.09020  Biso   1.000  H
  O8       1.0000 0.89340  0.97200  0.02520  Biso   1.000  O
  C52      1.0000 0.83190  0.00280  0.01540  Biso   1.000  C
  C53      1.0000 0.82060  0.05930  0.96210  Biso   1.000  C
  H45      1.0000 0.85930  0.07660  0.93440  Biso   1.000  H
  C54      1.0000 0.75340  0.08670  0.95290  Biso   1.000  C
  H46      1.0000 0.74690  0.12290  0.91800  Biso   1.000  H
  C55      1.0000 0.62270  0.10050  0.98130  Biso   1.000  C
  H47      1.0000 0.62110  0.12110  0.93270  Biso   1.000  H
  H48      1.0000 0.61790  0.14010  0.01590  Biso   1.000  H
  C56      1.0000 0.55820  0.04760  0.99090  Biso   1.000  C
  N9       1.0000 0.50770  0.30620  0.56420  Biso   1.000  N
  C57      1.0000 0.45730  0.29660  0.51250  Biso   1.000  C
  H49      1.0000 0.42980  0.33640  0.49750  Biso   1.000  H
  C58      1.0000 0.44480  0.23050  0.48080  Biso   1.000  C
  H50      1.0000 0.40980  0.22630  0.44440  Biso   1.000  H
  O9       1.0000 0.47480  0.10660  0.47200  Biso   1.000  O
  C59      1.0000 0.48460  0.16810  0.50280  Biso   1.000  C
  C60      1.0000 0.53790  0.17940  0.55930  Biso   1.000  C
  H51      1.0000 0.56560  0.14070  0.57660  Biso   1.000  H
  C61      1.0000 0.54710  0.24660  0.58670  Biso   1.000  C
  H52      1.0000 0.58200  0.25310  0.62290  Biso   1.000  H
  C62      1.0000 0.51870  0.37730  0.60050  Biso   1.000  C
  H53      1.0000 0.56730  0.37890  0.62110  Biso   1.000  H
  H54      1.0000 0.48410  0.38210  0.64010  Biso   1.000  H
  C63      1.0000 0.50910  0.44180  0.54760  Biso   1.000  C
  N10      1.0000 0.49230  0.80620  0.93580  Biso   1.000  N
  C64      1.0000 0.54270  0.79660  0.98750  Biso   1.000  C
  H55      1.0000 0.57020  0.83640  0.00250  Biso   1.000  H
  C65      1.0000 0.55520  0.73050  0.01920  Biso   1.000  C
  H56      1.0000 0.59020  0.72630  0.05560  Biso   1.000  H
  O10      1.0000 0.52520  0.60660  0.02800  Biso   1.000  O
  C66      1.0000 0.51540  0.66810  0.99720  Biso   1.000  C
  C67      1.0000 0.46210  0.67940  0.94070  Biso   1.000  C
  H57      1.0000 0.43440  0.64070  0.92340  Biso   1.000  H
  C68      1.0000 0.45290  0.74660  0.91330  Biso   1.000  C
  H58      1.0000 0.41800  0.75310  0.87710  Biso   1.000  H
  C69      1.0000 0.48130  0.87730  0.89950  Biso   1.000  C
  H59      1.0000 0.43270  0.87890  0.87890  Biso   1.000  H
  H60      1.0000 0.51590  0.88210  0.85990  Biso   1.000  H
  C70      1.0000 0.49090  0.94180  0.95240  Biso   1.000  C
  N11      1.0000 0.00770  0.19380  0.43580  Biso   1.000  N
  C71      1.0000 0.95730  0.20340  0.48750  Biso   1.000  C
  H61      1.0000 0.92980  0.16360  0.50250  Biso   1.000  H
  C72      1.0000 0.94480  0.26950  0.51920  Biso   1.000  C
  H62      1.0000 0.90980  0.27370  0.55560  Biso   1.000  H
  O11      1.0000 0.97480  0.39340  0.52800  Biso   1.000  O
  C73      1.0000 0.98460  0.33190  0.49720  Biso   1.000  C
  C74      1.0000 0.03790  0.32060  0.44070  Biso   1.000  C
  H63      1.0000 0.06560  0.35930  0.42340  Biso   1.000  H
  C75      1.0000 0.04710  0.25340  0.41330  Biso   1.000  C
  H64      1.0000 0.08200  0.24690  0.37710  Biso   1.000  H
  C76      1.0000 0.01870  0.12270  0.39950  Biso   1.000  C
  H65      1.0000 0.06730  0.12110  0.37890  Biso   1.000  H
  H66      1.0000 0.98410  0.11790  0.35990  Biso   1.000  H
  C77      1.0000 0.00910  0.05820  0.45240  Biso   1.000  C
  N12      1.0000 0.99230  0.69380  0.06420  Biso   1.000  N
  C78      1.0000 0.04270  0.70340  0.01250  Biso   1.000  C
  H67      1.0000 0.07020  0.66360  0.99750  Biso   1.000  H
  C79      1.0000 0.05520  0.76950  0.98080  Biso   1.000  C
  H68      1.0000 0.09020  0.77370  0.94440  Biso   1.000  H
  O12      1.0000 0.02520  0.89340  0.97200  Biso   1.000  O
  C80      1.0000 0.01540  0.83190  0.00280  Biso   1.000  C
  C81      1.0000 0.96210  0.82060  0.05930  Biso   1.000  C
  H69      1.0000 0.93440  0.85930  0.07660  Biso   1.000  H
  C82      1.0000 0.95290  0.75340  0.08670  Biso   1.000  C
  H70      1.0000 0.91800  0.74690  0.12290  Biso   1.000  H
  C83      1.0000 0.98130  0.62270  0.10050  Biso   1.000  C
  H71      1.0000 0.93270  0.62110  0.12110  Biso   1.000  H
  H72      1.0000 0.01590  0.61790  0.14010  Biso   1.000  H
  C84      1.0000 0.99090  0.55820  0.04760  Biso   1.000  C
  N13      1.0000 0.43580  0.49230  0.69380  Biso   1.000  N
  C85      1.0000 0.48750  0.54270  0.70340  Biso   1.000  C
  H73      1.0000 0.50250  0.57020  0.66360  Biso   1.000  H
  C86      1.0000 0.51920  0.55520  0.76950  Biso   1.000  C
  H74      1.0000 0.55560  0.59020  0.77370  Biso   1.000  H
  O13      1.0000 0.52800  0.52520  0.89340  Biso   1.000  O
  C87      1.0000 0.49720  0.51540  0.83190  Biso   1.000  C
  C88      1.0000 0.44070  0.46210  0.82060  Biso   1.000  C
  H75      1.0000 0.42340  0.43440  0.85930  Biso   1.000  H
  C89      1.0000 0.41330  0.45290  0.75340  Biso   1.000  C
  H76      1.0000 0.37710  0.41800  0.74690  Biso   1.000  H
  C90      1.0000 0.39950  0.48130  0.62270  Biso   1.000  C
  H77      1.0000 0.37890  0.43270  0.62110  Biso   1.000  H
  H78      1.0000 0.35990  0.51590  0.61790  Biso   1.000  H
  C91      1.0000 0.45240  0.49090  0.55820  Biso   1.000  C
  N14      1.0000 0.06420  0.50770  0.19380  Biso   1.000  N
  C92      1.0000 0.01250  0.45730  0.20340  Biso   1.000  C
  H79      1.0000 0.99750  0.42980  0.16360  Biso   1.000  H
  C93      1.0000 0.98080  0.44480  0.26950  Biso   1.000  C
  H80      1.0000 0.94440  0.40980  0.27370  Biso   1.000  H
  O14      1.0000 0.97200  0.47480  0.39340  Biso   1.000  O
  C94      1.0000 0.00280  0.48460  0.33190  Biso   1.000  C
  C95      1.0000 0.05930  0.53790  0.32060  Biso   1.000  C
  H81      1.0000 0.07660  0.56560  0.35930  Biso   1.000  H
  C96      1.0000 0.08670  0.54710  0.25340  Biso   1.000  C
  H82      1.0000 0.12290  0.58200  0.24690  Biso   1.000  H
  C97      1.0000 0.10050  0.51870  0.12270  Biso   1.000  C
  H83      1.0000 0.12110  0.56730  0.12110  Biso   1.000  H
  H84      1.0000 0.14010  0.48410  0.11790  Biso   1.000  H
  C98      1.0000 0.04760  0.50910  0.05820  Biso   1.000  C
  N15      1.0000 0.56420  0.99230  0.80620  Biso   1.000  N
  C99      1.0000 0.51250  0.04270  0.79660  Biso   1.000  C
  H85      1.0000 0.49750  0.07020  0.83640  Biso   1.000  H
  C100     1.0000 0.48080  0.05520  0.73050  Biso   1.000  C
  H86      1.0000 0.44440  0.09020  0.72630  Biso   1.000  H
  O15      1.0000 0.47200  0.02520  0.60660  Biso   1.000  O
  C101     1.0000 0.50280  0.01540  0.66810  Biso   1.000  C
  C102     1.0000 0.55930  0.96210  0.67940  Biso   1.000  C
  H87      1.0000 0.57660  0.93440  0.64070  Biso   1.000  H
  C103     1.0000 0.58670  0.95290  0.74660  Biso   1.000  C
  H88      1.0000 0.62290  0.91800  0.75310  Biso   1.000  H
  C104     1.0000 0.60050  0.98130  0.87730  Biso   1.000  C
  H89      1.0000 0.62110  0.93270  0.87890  Biso   1.000  H
  H90      1.0000 0.64010  0.01590  0.88210  Biso   1.000  H
  C105     1.0000 0.54760  0.99090  0.94180  Biso   1.000  C
  N16      1.0000 0.93580  0.00770  0.30620  Biso   1.000  N
  C106     1.0000 0.98750  0.95730  0.29660  Biso   1.000  C
  H91      1.0000 0.00250  0.92980  0.33640  Biso   1.000  H
  C107     1.0000 0.01920  0.94480  0.23050  Biso   1.000  C
  H92      1.0000 0.05560  0.90980  0.22630  Biso   1.000  H
  O16      1.0000 0.02800  0.97480  0.10660  Biso   1.000  O
  C108     1.0000 0.99720  0.98460  0.16810  Biso   1.000  C
  C109     1.0000 0.94070  0.03790  0.17940  Biso   1.000  C
  H93      1.0000 0.92340  0.06560  0.14070  Biso   1.000  H
  C110     1.0000 0.91330  0.04710  0.24660  Biso   1.000  C
  H94      1.0000 0.87710  0.08200  0.25310  Biso   1.000  H
  C111     1.0000 0.89950  0.01870  0.37730  Biso   1.000  C
  H95      1.0000 0.87890  0.06730  0.37890  Biso   1.000  H
  H96      1.0000 0.85990  0.98410  0.38210  Biso   1.000  H
  C112     1.0000 0.95240  0.00910  0.44180  Biso   1.000  C
  N17      1.0000 0.69380  0.43580  0.49230  Biso   1.000  N
  C113     1.0000 0.70340  0.48750  0.54270  Biso   1.000  C
  H97      1.0000 0.66360  0.50250  0.57020  Biso   1.000  H
  C114     1.0000 0.76950  0.51920  0.55520  Biso   1.000  C
  H98      1.0000 0.77370  0.55560  0.59020  Biso   1.000  H
  O17      1.0000 0.89340  0.52800  0.52520  Biso   1.000  O
  C115     1.0000 0.83190  0.49720  0.51540  Biso   1.000  C
  C116     1.0000 0.82060  0.44070  0.46210  Biso   1.000  C
  H99      1.0000 0.85930  0.42340  0.43440  Biso   1.000  H
  C117     1.0000 0.75340  0.41330  0.45290  Biso   1.000  C
  H100     1.0000 0.74690  0.37710  0.41800  Biso   1.000  H
  C118     1.0000 0.62270  0.39950  0.48130  Biso   1.000  C
  H101     1.0000 0.62110  0.37890  0.43270  Biso   1.000  H
  H102     1.0000 0.61790  0.35990  0.51590  Biso   1.000  H
  C119     1.0000 0.55820  0.45240  0.49090  Biso   1.000  C
  N18      1.0000 0.19380  0.06420  0.50770  Biso   1.000  N
  C120     1.0000 0.20340  0.01250  0.45730  Biso   1.000  C
  H103     1.0000 0.16360  0.99750  0.42980  Biso   1.000  H
  C121     1.0000 0.26950  0.98080  0.44480  Biso   1.000  C
  H104     1.0000 0.27370  0.94440  0.40980  Biso   1.000  H
  O18      1.0000 0.39340  0.97200  0.47480  Biso   1.000  O
  C122     1.0000 0.33190  0.00280  0.48460  Biso   1.000  C
  C123     1.0000 0.32060  0.05930  0.53790  Biso   1.000  C
  H105     1.0000 0.35930  0.07660  0.56560  Biso   1.000  H
  C124     1.0000 0.25340  0.08670  0.54710  Biso   1.000  C
  H106     1.0000 0.24690  0.12290  0.58200  Biso   1.000  H
  C125     1.0000 0.12270  0.10050  0.51870  Biso   1.000  C
  H107     1.0000 0.12110  0.12110  0.56730  Biso   1.000  H
  H108     1.0000 0.11790  0.14010  0.48410  Biso   1.000  H
  C126     1.0000 0.05820  0.04760  0.50910  Biso   1.000  C
  N19      1.0000 0.80620  0.56420  0.99230  Biso   1.000  N
  C127     1.0000 0.79660  0.51250  0.04270  Biso   1.000  C
  H109     1.0000 0.83640  0.49750  0.07020  Biso   1.000  H
  C128     1.0000 0.73050  0.48080  0.05520  Biso   1.000  C
  H110     1.0000 0.72630  0.44440  0.09020  Biso   1.000  H
  O19      1.0000 0.60660  0.47200  0.02520  Biso   1.000  O
  C129     1.0000 0.66810  0.50280  0.01540  Biso   1.000  C
  C130     1.0000 0.67940  0.55930  0.96210  Biso   1.000  C
  H111     1.0000 0.64070  0.57660  0.93440  Biso   1.000  H
  C131     1.0000 0.74660  0.58670  0.95290  Biso   1.000  C
  H112     1.0000 0.75310  0.62290  0.91800  Biso   1.000  H
  C132     1.0000 0.87730  0.60050  0.98130  Biso   1.000  C
  H113     1.0000 0.87890  0.62110  0.93270  Biso   1.000  H
  H114     1.0000 0.88210  0.64010  0.01590  Biso   1.000  H
  C133     1.0000 0.94180  0.54760  0.99090  Biso   1.000  C
  N20      1.0000 0.30620  0.93580  0.00770  Biso   1.000  N
  C134     1.0000 0.29660  0.98750  0.95730  Biso   1.000  C
  H115     1.0000 0.33640  0.00250  0.92980  Biso   1.000  H
  C135     1.0000 0.23050  0.01920  0.94480  Biso   1.000  C
  H116     1.0000 0.22630  0.05560  0.90980  Biso   1.000  H
  O20      1.0000 0.10660  0.02800  0.97480  Biso   1.000  O
  C136     1.0000 0.16810  0.99720  0.98460  Biso   1.000  C
  C137     1.0000 0.17940  0.94070  0.03790  Biso   1.000  C
  H117     1.0000 0.14070  0.92340  0.06560  Biso   1.000  H
  C138     1.0000 0.24660  0.91330  0.04710  Biso   1.000  C
  H118     1.0000 0.25310  0.87710  0.08200  Biso   1.000  H
  C139     1.0000 0.37730  0.89950  0.01870  Biso   1.000  C
  H119     1.0000 0.37890  0.87890  0.06730  Biso   1.000  H
  H120     1.0000 0.38210  0.85990  0.98410  Biso   1.000  H
  C140     1.0000 0.44180  0.95240  0.00910  Biso   1.000  C
  N21      1.0000 0.49230  0.69380  0.43580  Biso   1.000  N
  C141     1.0000 0.54270  0.70340  0.48750  Biso   1.000  C
  H121     1.0000 0.57020  0.66360  0.50250  Biso   1.000  H
  C142     1.0000 0.55520  0.76950  0.51920  Biso   1.000  C
  H122     1.0000 0.59020  0.77370  0.55560  Biso   1.000  H
  O21      1.0000 0.52520  0.89340  0.52800  Biso   1.000  O
  C143     1.0000 0.51540  0.83190  0.49720  Biso   1.000  C
  C144     1.0000 0.46210  0.82060  0.44070  Biso   1.000  C
  H123     1.0000 0.43440  0.85930  0.42340  Biso   1.000  H
  C145     1.0000 0.45290  0.75340  0.41330  Biso   1.000  C
  H124     1.0000 0.41800  0.74690  0.37710  Biso   1.000  H
  C146     1.0000 0.48130  0.62270  0.39950  Biso   1.000  C
  H125     1.0000 0.43270  0.62110  0.37890  Biso   1.000  H
  H126     1.0000 0.51590  0.61790  0.35990  Biso   1.000  H
  C147     1.0000 0.49090  0.55820  0.45240  Biso   1.000  C
  N22      1.0000 0.50770  0.19380  0.06420  Biso   1.000  N
  C148     1.0000 0.45730  0.20340  0.01250  Biso   1.000  C
  H127     1.0000 0.42980  0.16360  0.99750  Biso   1.000  H
  C149     1.0000 0.44480  0.26950  0.98080  Biso   1.000  C
  H128     1.0000 0.40980  0.27370  0.94440  Biso   1.000  H
  O22      1.0000 0.47480  0.39340  0.97200  Biso   1.000  O
  C150     1.0000 0.48460  0.33190  0.00280  Biso   1.000  C
  C151     1.0000 0.53790  0.32060  0.05930  Biso   1.000  C
  H129     1.0000 0.56560  0.35930  0.07660  Biso   1.000  H
  C152     1.0000 0.54710  0.25340  0.08670  Biso   1.000  C
  H130     1.0000 0.58200  0.24690  0.12290  Biso   1.000  H
  C153     1.0000 0.51870  0.12270  0.10050  Biso   1.000  C
  H131     1.0000 0.56730  0.12110  0.12110  Biso   1.000  H
  H132     1.0000 0.48410  0.11790  0.14010  Biso   1.000  H
  C154     1.0000 0.50910  0.05820  0.04760  Biso   1.000  C
  N23      1.0000 0.99230  0.80620  0.56420  Biso   1.000  N
  C155     1.0000 0.04270  0.79660  0.51250  Biso   1.000  C
  H133     1.0000 0.07020  0.83640  0.49750  Biso   1.000  H
  C156     1.0000 0.05520  0.73050  0.48080  Biso   1.000  C
  H134     1.0000 0.09020  0.72630  0.44440  Biso   1.000  H
  O23      1.0000 0.02520  0.60660  0.47200  Biso   1.000  O
  C157     1.0000 0.01540  0.66810  0.50280  Biso   1.000  C
  C158     1.0000 0.96210  0.67940  0.55930  Biso   1.000  C
  H135     1.0000 0.93440  0.64070  0.57660  Biso   1.000  H
  C159     1.0000 0.95290  0.74660  0.58670  Biso   1.000  C
  H136     1.0000 0.91800  0.75310  0.62290  Biso   1.000  H
  C160     1.0000 0.98130  0.87730  0.60050  Biso   1.000  C
  H137     1.0000 0.93270  0.87890  0.62110  Biso   1.000  H
  H138     1.0000 0.01590  0.88210  0.64010  Biso   1.000  H
  C161     1.0000 0.99090  0.94180  0.54760  Biso   1.000  C
  N24      1.0000 0.00770  0.30620  0.93580  Biso   1.000  N
  C162     1.0000 0.95730  0.29660  0.98750  Biso   1.000  C
  H139     1.0000 0.92980  0.33640  0.00250  Biso   1.000  H
  C163     1.0000 0.94480  0.23050  0.01920  Biso   1.000  C
  H140     1.0000 0.90980  0.22630  0.05560  Biso   1.000  H
  O24      1.0000 0.97480  0.10660  0.02800  Biso   1.000  O
  C164     1.0000 0.98460  0.16810  0.99720  Biso   1.000  C
  C165     1.0000 0.03790  0.17940  0.94070  Biso   1.000  C
  H141     1.0000 0.06560  0.14070  0.92340  Biso   1.000  H
  C166     1.0000 0.04710  0.24660  0.91330  Biso   1.000  C
  H142     1.0000 0.08200  0.25310  0.87710  Biso   1.000  H
  C167     1.0000 0.01870  0.37730  0.89950  Biso   1.000  C
  H143     1.0000 0.06730  0.37890  0.87890  Biso   1.000  H
  H144     1.0000 0.98410  0.38210  0.85990  Biso   1.000  H
  C168     1.0000 0.00910  0.44180  0.95240  Biso   1.000  C
  Co1      1.0000 0.50000  0.50000  0.00000  Biso   1.000  Co
  Co2      1.0000 0.00000  0.50000  0.50000  Biso   1.000  Co
  Co3      1.0000 0.50000  0.00000  0.50000  Biso   1.000  Co
  Co4      1.0000 0.00000  0.00000  0.00000  Biso   1.000  Co
