data_image0
_cell_length_a       7.788
_cell_length_b       14.259
_cell_length_c       36.544
_cell_angle_alpha    90
_cell_angle_beta     90
_cell_angle_gamma    90

_symmetry_space_group_name_H-M    "P 1"
_symmetry_int_tables_number       1

loop_
  _symmetry_equiv_pos_as_xyz
  'x, y, z'

loop_
  _atom_site_label
  _atom_site_occupancy
  _atom_site_fract_x
  _atom_site_fract_y
  _atom_site_fract_z
  _atom_site_thermal_displace_type
  _atom_site_B_iso_or_equiv
  _atom_site_type_symbol
  Ag1      1.0000 0.58710  0.39392  0.55853  Biso   1.000  Ag
  Ag2      1.0000 0.92016  0.11557  0.64808  Biso   1.000  Ag
  Ag3      1.0000 0.45180  0.68627  0.31906  Biso   1.000  Ag
  N1       1.0000 0.95900  0.09070  0.80510  Biso   1.000  N
  N2       1.0000 0.89200  0.16530  0.80600  Biso   1.000  N
  N3       1.0000 0.77540  0.29530  0.59710  Biso   1.000  N
  N4       1.0000 0.72910  0.21110  0.60480  Biso   1.000  N
  N5       1.0000 0.57200  0.38180  0.40740  Biso   1.000  N
  N6       1.0000 0.60700  0.34150  0.37710  Biso   1.000  N
  N7       1.0000 0.09920  0.91580  0.87080  Biso   1.000  N
  N8       1.0000 0.03300  0.10600  0.86770  Biso   1.000  N
  N9       1.0000 0.85400  0.18080  0.70380  Biso   1.000  N
  N10      1.0000 0.74400  0.27110  0.76850  Biso   1.000  N
  N11      1.0000 0.07430  0.46480  0.63630  Biso   1.000  N
  N12      1.0000 0.03210  0.26650  0.63030  Biso   1.000  N
  N13      1.0000 0.42690  0.04650  0.56640  Biso   1.000  N
  N14      1.0000 0.47810  0.24710  0.56970  Biso   1.000  N
  N15      1.0000 0.66800  0.32740  0.50170  Biso   1.000  N
  N16      1.0000 0.79200  0.27980  0.43300  Biso   1.000  N
  N17      1.0000 0.42300  0.52910  0.32030  Biso   1.000  N
  N18      1.0000 0.47300  0.34160  0.31980  Biso   1.000  N
  C1       1.0000 0.00400  0.05620  0.84000  Biso   1.000  C
  C2       1.0000 0.03800  0.95260  0.84150  Biso   1.000  C
  H1       1.0000 0.01420  0.91520  0.82120  Biso   1.000  H
  C3       1.0000 0.13100  0.97180  0.90150  Biso   1.000  C
  H2       1.0000 0.17560  0.94760  0.92320  Biso   1.000  H
  C4       1.0000 0.09300  0.06540  0.89720  Biso   1.000  C
  H3       1.0000 0.11080  0.10380  0.91740  Biso   1.000  H
  C5       1.0000 0.84200  0.19390  0.76890  Biso   1.000  C
  C6       1.0000 0.90000  0.14990  0.74070  Biso   1.000  C
  H4       1.0000 0.97130  0.09820  0.74380  Biso   1.000  H
  C7       1.0000 0.74400  0.25520  0.70320  Biso   1.000  C
  H5       1.0000 0.69740  0.27410  0.68100  Biso   1.000  H
  C8       1.0000 0.69900  0.30370  0.73490  Biso   1.000  C
  H6       1.0000 0.63790  0.35940  0.73300  Biso   1.000  H
  C9       1.0000 0.92640  0.32750  0.61670  Biso   1.000  C
  C10      1.0000 0.94940  0.42420  0.61700  Biso   1.000  C
  H7       1.0000 0.87560  0.46170  0.60340  Biso   1.000  H
  C11      1.0000 0.19700  0.39990  0.65130  Biso   1.000  C
  H8       1.0000 0.29350  0.42220  0.66350  Biso   1.000  H
  C12      1.0000 0.17300  0.30900  0.64770  Biso   1.000  C
  H9       1.0000 0.25620  0.26960  0.65750  Biso   1.000  H
  C13      1.0000 0.58320  0.18250  0.58670  Biso   1.000  C
  C14      1.0000 0.55300  0.08860  0.58490  Biso   1.000  C
  H10      1.0000 0.62680  0.05000  0.59800  Biso   1.000  H
  C15      1.0000 0.32100  0.10740  0.55110  Biso   1.000  C
  H11      1.0000 0.22330  0.08480  0.53940  Biso   1.000  H
  C16      1.0000 0.34900  0.20620  0.55180  Biso   1.000  C
  H12      1.0000 0.27310  0.24430  0.53900  Biso   1.000  H
  C17      1.0000 0.66500  0.34190  0.43610  Biso   1.000  C
  C18      1.0000 0.60300  0.36670  0.47250  Biso   1.000  C
  H13      1.0000 0.51600  0.41110  0.47500  Biso   1.000  H
  C19      1.0000 0.78800  0.27280  0.49760  Biso   1.000  C
  H14      1.0000 0.83530  0.24720  0.51870  Biso   1.000  H
  C20      1.0000 0.86000  0.24530  0.46420  Biso   1.000  C
  H15      1.0000 0.95340  0.20450  0.46360  Biso   1.000  H
  C21      1.0000 0.52800  0.39220  0.34520  Biso   1.000  C
  C22      1.0000 0.50600  0.48750  0.34930  Biso   1.000  C
  H16      1.0000 0.54450  0.52060  0.36970  Biso   1.000  H
  C23      1.0000 0.38100  0.47860  0.29110  Biso   1.000  C
  H17      1.0000 0.33760  0.50850  0.27040  Biso   1.000  H
  C24      1.0000 0.40200  0.37400  0.29090  Biso   1.000  C
  H18      1.0000 0.36720  0.33630  0.27150  Biso   1.000  H
  Ag4      1.0000 0.12140  0.75637  0.86938  Biso   1.000  Ag
  Ag5      1.0000 0.41290  0.89392  0.55853  Biso   1.000  Ag
  Ag6      1.0000 0.07984  0.61557  0.64808  Biso   1.000  Ag
  Ag7      1.0000 0.54820  0.18627  0.31906  Biso   1.000  Ag
  N19      1.0000 0.04100  0.59070  0.80510  Biso   1.000  N
  N20      1.0000 0.10800  0.66530  0.80600  Biso   1.000  N
  N21      1.0000 0.22460  0.79530  0.59710  Biso   1.000  N
  N22      1.0000 0.27090  0.71110  0.60480  Biso   1.000  N
  N23      1.0000 0.42800  0.88180  0.40740  Biso   1.000  N
  N24      1.0000 0.39300  0.84150  0.37710  Biso   1.000  N
  N25      1.0000 0.90080  0.41580  0.87080  Biso   1.000  N
  N26      1.0000 0.96700  0.60600  0.86770  Biso   1.000  N
  N27      1.0000 0.14600  0.68080  0.70380  Biso   1.000  N
  N28      1.0000 0.25600  0.77110  0.76850  Biso   1.000  N
  N29      1.0000 0.92570  0.96480  0.63630  Biso   1.000  N
  N30      1.0000 0.96790  0.76650  0.63030  Biso   1.000  N
  N31      1.0000 0.57310  0.54650  0.56640  Biso   1.000  N
  N32      1.0000 0.52190  0.74710  0.56970  Biso   1.000  N
  N33      1.0000 0.33200  0.82740  0.50170  Biso   1.000  N
  N34      1.0000 0.20800  0.77980  0.43300  Biso   1.000  N
  N35      1.0000 0.57700  0.02910  0.32030  Biso   1.000  N
  N36      1.0000 0.52700  0.84160  0.31980  Biso   1.000  N
  C25      1.0000 0.99600  0.55620  0.84000  Biso   1.000  C
  C26      1.0000 0.96200  0.45260  0.84150  Biso   1.000  C
  H19      1.0000 0.98580  0.41520  0.82120  Biso   1.000  H
  C27      1.0000 0.86900  0.47180  0.90150  Biso   1.000  C
  H20      1.0000 0.82440  0.44760  0.92320  Biso   1.000  H
  C28      1.0000 0.90700  0.56540  0.89720  Biso   1.000  C
  H21      1.0000 0.88920  0.60380  0.91740  Biso   1.000  H
  C29      1.0000 0.15800  0.69390  0.76890  Biso   1.000  C
  C30      1.0000 0.10000  0.64990  0.74070  Biso   1.000  C
  H22      1.0000 0.02870  0.59820  0.74380  Biso   1.000  H
  C31      1.0000 0.25600  0.75520  0.70320  Biso   1.000  C
  H23      1.0000 0.30260  0.77410  0.68100  Biso   1.000  H
  C32      1.0000 0.30100  0.80370  0.73490  Biso   1.000  C
  H24      1.0000 0.36210  0.85940  0.73300  Biso   1.000  H
  C33      1.0000 0.07360  0.82750  0.61670  Biso   1.000  C
  C34      1.0000 0.05060  0.92420  0.61700  Biso   1.000  C
  H25      1.0000 0.12440  0.96170  0.60340  Biso   1.000  H
  C35      1.0000 0.80300  0.89990  0.65130  Biso   1.000  C
  H26      1.0000 0.70650  0.92220  0.66350  Biso   1.000  H
  C36      1.0000 0.82700  0.80900  0.64770  Biso   1.000  C
  H27      1.0000 0.74380  0.76960  0.65750  Biso   1.000  H
  C37      1.0000 0.41680  0.68250  0.58670  Biso   1.000  C
  C38      1.0000 0.44700  0.58860  0.58490  Biso   1.000  C
  H28      1.0000 0.37320  0.55000  0.59800  Biso   1.000  H
  C39      1.0000 0.67900  0.60740  0.55110  Biso   1.000  C
  H29      1.0000 0.77670  0.58480  0.53940  Biso   1.000  H
  C40      1.0000 0.65100  0.70620  0.55180  Biso   1.000  C
  H30      1.0000 0.72690  0.74430  0.53900  Biso   1.000  H
  C41      1.0000 0.33500  0.84190  0.43610  Biso   1.000  C
  C42      1.0000 0.39700  0.86670  0.47250  Biso   1.000  C
  H31      1.0000 0.48400  0.91110  0.47500  Biso   1.000  H
  C43      1.0000 0.21200  0.77280  0.49760  Biso   1.000  C
  H32      1.0000 0.16470  0.74720  0.51870  Biso   1.000  H
  C44      1.0000 0.14000  0.74530  0.46420  Biso   1.000  C
  H33      1.0000 0.04660  0.70450  0.46360  Biso   1.000  H
  C45      1.0000 0.47200  0.89220  0.34520  Biso   1.000  C
  C46      1.0000 0.49400  0.98750  0.34930  Biso   1.000  C
  H34      1.0000 0.45550  0.02060  0.36970  Biso   1.000  H
  C47      1.0000 0.61900  0.97860  0.29110  Biso   1.000  C
  H35      1.0000 0.66240  0.00850  0.27040  Biso   1.000  H
  C48      1.0000 0.59800  0.87400  0.29090  Biso   1.000  C
  H36      1.0000 0.63280  0.83630  0.27150  Biso   1.000  H
  Ag8      1.0000 0.87860  0.25637  0.86938  Biso   1.000  Ag
  Ag9      1.0000 0.87860  0.24363  0.36938  Biso   1.000  Ag
  Ag10     1.0000 0.41290  0.60608  0.05853  Biso   1.000  Ag
  Ag11     1.0000 0.07984  0.88443  0.14808  Biso   1.000  Ag
  Ag12     1.0000 0.54820  0.31373  0.81906  Biso   1.000  Ag
  N37      1.0000 0.04100  0.90930  0.30510  Biso   1.000  N
  N38      1.0000 0.10800  0.83470  0.30600  Biso   1.000  N
  N39      1.0000 0.22460  0.70470  0.09710  Biso   1.000  N
  N40      1.0000 0.27090  0.78890  0.10480  Biso   1.000  N
  N41      1.0000 0.42800  0.61820  0.90740  Biso   1.000  N
  N42      1.0000 0.39300  0.65850  0.87710  Biso   1.000  N
  N43      1.0000 0.90080  0.08420  0.37080  Biso   1.000  N
  N44      1.0000 0.96700  0.89400  0.36770  Biso   1.000  N
  N45      1.0000 0.14600  0.81920  0.20380  Biso   1.000  N
  N46      1.0000 0.25600  0.72890  0.26850  Biso   1.000  N
  N47      1.0000 0.92570  0.53520  0.13630  Biso   1.000  N
  N48      1.0000 0.96790  0.73350  0.13030  Biso   1.000  N
  N49      1.0000 0.57310  0.95350  0.06640  Biso   1.000  N
  N50      1.0000 0.52190  0.75290  0.06970  Biso   1.000  N
  N51      1.0000 0.33200  0.67260  0.00170  Biso   1.000  N
  N52      1.0000 0.20800  0.72020  0.93300  Biso   1.000  N
  N53      1.0000 0.57700  0.47090  0.82030  Biso   1.000  N
  N54      1.0000 0.52700  0.65840  0.81980  Biso   1.000  N
  C49      1.0000 0.99600  0.94380  0.34000  Biso   1.000  C
  C50      1.0000 0.96200  0.04740  0.34150  Biso   1.000  C
  H37      1.0000 0.98580  0.08480  0.32120  Biso   1.000  H
  C51      1.0000 0.86900  0.02820  0.40150  Biso   1.000  C
  H38      1.0000 0.82440  0.05240  0.42320  Biso   1.000  H
  C52      1.0000 0.90700  0.93460  0.39720  Biso   1.000  C
  H39      1.0000 0.88920  0.89620  0.41740  Biso   1.000  H
  C53      1.0000 0.15800  0.80610  0.26890  Biso   1.000  C
  C54      1.0000 0.10000  0.85010  0.24070  Biso   1.000  C
  H40      1.0000 0.02870  0.90180  0.24380  Biso   1.000  H
  C55      1.0000 0.25600  0.74480  0.20320  Biso   1.000  C
  H41      1.0000 0.30260  0.72590  0.18100  Biso   1.000  H
  C56      1.0000 0.30100  0.69630  0.23490  Biso   1.000  C
  H42      1.0000 0.36210  0.64060  0.23300  Biso   1.000  H
  C57      1.0000 0.07360  0.67250  0.11670  Biso   1.000  C
  C58      1.0000 0.05060  0.57580  0.11700  Biso   1.000  C
  H43      1.0000 0.12440  0.53830  0.10340  Biso   1.000  H
  C59      1.0000 0.80300  0.60010  0.15130  Biso   1.000  C
  H44      1.0000 0.70650  0.57780  0.16350  Biso   1.000  H
  C60      1.0000 0.82700  0.69100  0.14770  Biso   1.000  C
  H45      1.0000 0.74380  0.73040  0.15750  Biso   1.000  H
  C61      1.0000 0.41680  0.81750  0.08670  Biso   1.000  C
  C62      1.0000 0.44700  0.91140  0.08490  Biso   1.000  C
  H46      1.0000 0.37320  0.95000  0.09800  Biso   1.000  H
  C63      1.0000 0.67900  0.89260  0.05110  Biso   1.000  C
  H47      1.0000 0.77670  0.91520  0.03940  Biso   1.000  H
  C64      1.0000 0.65100  0.79380  0.05180  Biso   1.000  C
  H48      1.0000 0.72690  0.75570  0.03900  Biso   1.000  H
  C65      1.0000 0.33500  0.65810  0.93610  Biso   1.000  C
  C66      1.0000 0.39700  0.63330  0.97250  Biso   1.000  C
  H49      1.0000 0.48400  0.58890  0.97500  Biso   1.000  H
  C67      1.0000 0.21200  0.72720  0.99760  Biso   1.000  C
  H50      1.0000 0.16470  0.75280  0.01870  Biso   1.000  H
  C68      1.0000 0.14000  0.75470  0.96420  Biso   1.000  C
  H51      1.0000 0.04660  0.79550  0.96360  Biso   1.000  H
  C69      1.0000 0.47200  0.60780  0.84520  Biso   1.000  C
  C70      1.0000 0.49400  0.51250  0.84930  Biso   1.000  C
  H52      1.0000 0.45550  0.47940  0.86970  Biso   1.000  H
  C71      1.0000 0.61900  0.52140  0.79110  Biso   1.000  C
  H53      1.0000 0.66240  0.49150  0.77040  Biso   1.000  H
  C72      1.0000 0.59800  0.62600  0.79090  Biso   1.000  C
  H54      1.0000 0.63280  0.66370  0.77150  Biso   1.000  H
  Ag13     1.0000 0.12140  0.74363  0.36938  Biso   1.000  Ag
  Ag14     1.0000 0.58710  0.10608  0.05853  Biso   1.000  Ag
  Ag15     1.0000 0.92016  0.38443  0.14808  Biso   1.000  Ag
  Ag16     1.0000 0.45180  0.81373  0.81906  Biso   1.000  Ag
  N55      1.0000 0.95900  0.40930  0.30510  Biso   1.000  N
  N56      1.0000 0.89200  0.33470  0.30600  Biso   1.000  N
  N57      1.0000 0.77540  0.20470  0.09710  Biso   1.000  N
  N58      1.0000 0.72910  0.28890  0.10480  Biso   1.000  N
  N59      1.0000 0.57200  0.11820  0.90740  Biso   1.000  N
  N60      1.0000 0.60700  0.15850  0.87710  Biso   1.000  N
  N61      1.0000 0.09920  0.58420  0.37080  Biso   1.000  N
  N62      1.0000 0.03300  0.39400  0.36770  Biso   1.000  N
  N63      1.0000 0.85400  0.31920  0.20380  Biso   1.000  N
  N64      1.0000 0.74400  0.22890  0.26850  Biso   1.000  N
  N65      1.0000 0.07430  0.03520  0.13630  Biso   1.000  N
  N66      1.0000 0.03210  0.23350  0.13030  Biso   1.000  N
  N67      1.0000 0.42690  0.45350  0.06640  Biso   1.000  N
  N68      1.0000 0.47810  0.25290  0.06970  Biso   1.000  N
  N69      1.0000 0.66800  0.17260  0.00170  Biso   1.000  N
  N70      1.0000 0.79200  0.22020  0.93300  Biso   1.000  N
  N71      1.0000 0.42300  0.97090  0.82030  Biso   1.000  N
  N72      1.0000 0.47300  0.15840  0.81980  Biso   1.000  N
  C73      1.0000 0.00400  0.44380  0.34000  Biso   1.000  C
  C74      1.0000 0.03800  0.54740  0.34150  Biso   1.000  C
  H55      1.0000 0.01420  0.58480  0.32120  Biso   1.000  H
  C75      1.0000 0.13100  0.52820  0.40150  Biso   1.000  C
  H56      1.0000 0.17560  0.55240  0.42320  Biso   1.000  H
  C76      1.0000 0.09300  0.43460  0.39720  Biso   1.000  C
  H57      1.0000 0.11080  0.39620  0.41740  Biso   1.000  H
  C77      1.0000 0.84200  0.30610  0.26890  Biso   1.000  C
  C78      1.0000 0.90000  0.35010  0.24070  Biso   1.000  C
  H58      1.0000 0.97130  0.40180  0.24380  Biso   1.000  H
  C79      1.0000 0.74400  0.24480  0.20320  Biso   1.000  C
  H59      1.0000 0.69740  0.22590  0.18100  Biso   1.000  H
  C80      1.0000 0.69900  0.19630  0.23490  Biso   1.000  C
  H60      1.0000 0.63790  0.14060  0.23300  Biso   1.000  H
  C81      1.0000 0.92640  0.17250  0.11670  Biso   1.000  C
  C82      1.0000 0.94940  0.07580  0.11700  Biso   1.000  C
  H61      1.0000 0.87560  0.03830  0.10340  Biso   1.000  H
  C83      1.0000 0.19700  0.10010  0.15130  Biso   1.000  C
  H62      1.0000 0.29350  0.07780  0.16350  Biso   1.000  H
  C84      1.0000 0.17300  0.19100  0.14770  Biso   1.000  C
  H63      1.0000 0.25620  0.23040  0.15750  Biso   1.000  H
  C85      1.0000 0.58320  0.31750  0.08670  Biso   1.000  C
  C86      1.0000 0.55300  0.41140  0.08490  Biso   1.000  C
  H64      1.0000 0.62680  0.45000  0.09800  Biso   1.000  H
  C87      1.0000 0.32100  0.39260  0.05110  Biso   1.000  C
  H65      1.0000 0.22330  0.41520  0.03940  Biso   1.000  H
  C88      1.0000 0.34900  0.29380  0.05180  Biso   1.000  C
  H66      1.0000 0.27310  0.25570  0.03900  Biso   1.000  H
  C89      1.0000 0.66500  0.15810  0.93610  Biso   1.000  C
  C90      1.0000 0.60300  0.13330  0.97250  Biso   1.000  C
  H67      1.0000 0.51600  0.08890  0.97500  Biso   1.000  H
  C91      1.0000 0.78800  0.22720  0.99760  Biso   1.000  C
  H68      1.0000 0.83530  0.25280  0.01870  Biso   1.000  H
  C92      1.0000 0.86000  0.25470  0.96420  Biso   1.000  C
  H69      1.0000 0.95340  0.29550  0.96360  Biso   1.000  H
  C93      1.0000 0.52800  0.10780  0.84520  Biso   1.000  C
  C94      1.0000 0.50600  0.01250  0.84930  Biso   1.000  C
  H70      1.0000 0.54450  0.97940  0.86970  Biso   1.000  H
  C95      1.0000 0.38100  0.02140  0.79110  Biso   1.000  C
  H71      1.0000 0.33760  0.99150  0.77040  Biso   1.000  H
  C96      1.0000 0.40200  0.12600  0.79090  Biso   1.000  C
  H72      1.0000 0.36720  0.16370  0.77150  Biso   1.000  H
