data_image0
_cell_length_a       22.9097
_cell_length_b       6.891
_cell_length_c       14.4132
_cell_angle_alpha    90
_cell_angle_beta     106.62
_cell_angle_gamma    90

_symmetry_space_group_name_H-M    "P 1"
_symmetry_int_tables_number       1

loop_
  _symmetry_equiv_pos_as_xyz
  'x, y, z'

loop_
  _atom_site_label
  _atom_site_occupancy
  _atom_site_fract_x
  _atom_site_fract_y
  _atom_site_fract_z
  _atom_site_thermal_displace_type
  _atom_site_B_iso_or_equiv
  _atom_site_type_symbol
  Cd1      1.0000 0.41300  0.15570  0.69339  Biso   1.000  Cd
  C1       1.0000 0.68010  0.99510  0.65920  Biso   1.000  C
  H1       1.0000 0.70900  0.96390  0.62760  Biso   1.000  H
  O1       1.0000 0.56340  0.11380  0.89750  Biso   1.000  O
  C2       1.0000 0.61160  0.11850  0.50140  Biso   1.000  C
  C3       1.0000 0.81070  0.60030  0.89880  Biso   1.000  C
  H2       1.0000 0.83000  0.66800  0.95970  Biso   1.000  H
  O2       1.0000 0.56970  0.23300  0.45820  Biso   1.000  O
  C4       1.0000 0.58250  0.14010  0.65670  Biso   1.000  C
  H3       1.0000 0.54680  0.20380  0.62360  Biso   1.000  H
  O3       1.0000 0.90844  0.63280  0.87020  Biso   1.000  O
  N1       1.0000 0.49300  0.81300  0.94250  Biso   1.000  N
  O4       1.0000 0.83020  0.57060  0.74430  Biso   1.000  O
  C5       1.0000 0.69170  0.95650  0.75660  Biso   1.000  C
  N2       1.0000 0.75190  0.69260  0.84870  Biso   1.000  N
  C6       1.0000 0.64940  0.00740  0.80500  Biso   1.000  C
  H4       1.0000 0.65710  0.97950  0.87050  Biso   1.000  H
  C7       1.0000 0.72390  0.42390  0.92180  Biso   1.000  C
  H5       1.0000 0.70170  0.30230  0.91160  Biso   1.000  H
  H6       1.0000 0.72240  0.48000  0.98270  Biso   1.000  H
  C8       1.0000 0.75200  0.87090  0.80970  Biso   1.000  C
  C9       1.0000 0.69910  0.56220  0.83890  Biso   1.000  C
  H7       1.0000 0.68810  0.49520  0.77710  Biso   1.000  H
  H8       1.0000 0.66400  0.63250  0.84620  Biso   1.000  H
  C10      1.0000 0.55180  0.16130  0.81150  Biso   1.000  C
  O5       1.0000 0.64330  0.02820  0.45640  Biso   1.000  O
  O6       1.0000 0.80010  0.96060  0.81780  Biso   1.000  O
  C11      1.0000 0.62470  0.08170  0.60710  Biso   1.000  C
  O7       1.0000 0.50638  0.26870  0.76790  Biso   1.000  O
  C12      1.0000 0.79090  0.39450  0.91940  Biso   1.000  C
  H9       1.0000 0.81620  0.34610  0.98100  Biso   1.000  H
  H10      1.0000 0.79290  0.30470  0.86860  Biso   1.000  H
  C13      1.0000 0.85280  0.60030  0.83380  Biso   1.000  C
  C14      1.0000 0.59460  0.10170  0.75470  Biso   1.000  C
  C15      1.0000 0.44920  0.56100  0.01780  Biso   1.000  C
  H11      1.0000 0.41150  0.48850  0.00560  Biso   1.000  H
  H12      1.0000 0.46060  0.60640  0.08420  Biso   1.000  H
  C16      1.0000 0.44260  0.70400  0.95950  Biso   1.000  C
  H13      1.0000 0.41730  0.79810  0.98030  Biso   1.000  H
  H14      1.0000 0.41870  0.65710  0.89680  Biso   1.000  H
  Cd2      1.0000 0.91300  0.65570  0.69339  Biso   1.000  Cd
  C17      1.0000 0.18010  0.49510  0.65920  Biso   1.000  C
  H15      1.0000 0.20900  0.46390  0.62760  Biso   1.000  H
  O8       1.0000 0.06340  0.61380  0.89750  Biso   1.000  O
  C18      1.0000 0.11160  0.61850  0.50140  Biso   1.000  C
  C19      1.0000 0.31070  0.10030  0.89880  Biso   1.000  C
  H16      1.0000 0.33000  0.16800  0.95970  Biso   1.000  H
  O9       1.0000 0.06970  0.73300  0.45820  Biso   1.000  O
  C20      1.0000 0.08250  0.64010  0.65670  Biso   1.000  C
  H17      1.0000 0.04680  0.70380  0.62360  Biso   1.000  H
  O10      1.0000 0.40844  0.13280  0.87020  Biso   1.000  O
  N3       1.0000 0.99300  0.31300  0.94250  Biso   1.000  N
  O11      1.0000 0.33020  0.07060  0.74430  Biso   1.000  O
  C21      1.0000 0.19170  0.45650  0.75660  Biso   1.000  C
  N4       1.0000 0.25190  0.19260  0.84870  Biso   1.000  N
  C22      1.0000 0.14940  0.50740  0.80500  Biso   1.000  C
  H18      1.0000 0.15710  0.47950  0.87050  Biso   1.000  H
  C23      1.0000 0.22390  0.92390  0.92180  Biso   1.000  C
  H19      1.0000 0.20170  0.80230  0.91160  Biso   1.000  H
  H20      1.0000 0.22240  0.98000  0.98270  Biso   1.000  H
  C24      1.0000 0.25200  0.37090  0.80970  Biso   1.000  C
  C25      1.0000 0.19910  0.06220  0.83890  Biso   1.000  C
  H21      1.0000 0.18810  0.99520  0.77710  Biso   1.000  H
  H22      1.0000 0.16400  0.13250  0.84620  Biso   1.000  H
  C26      1.0000 0.05180  0.66130  0.81150  Biso   1.000  C
  O12      1.0000 0.14330  0.52820  0.45640  Biso   1.000  O
  O13      1.0000 0.30010  0.46060  0.81780  Biso   1.000  O
  C27      1.0000 0.12470  0.58170  0.60710  Biso   1.000  C
  O14      1.0000 0.00638  0.76870  0.76790  Biso   1.000  O
  C28      1.0000 0.29090  0.89450  0.91940  Biso   1.000  C
  H23      1.0000 0.31620  0.84610  0.98100  Biso   1.000  H
  H24      1.0000 0.29290  0.80470  0.86860  Biso   1.000  H
  C29      1.0000 0.35280  0.10030  0.83380  Biso   1.000  C
  C30      1.0000 0.09460  0.60170  0.75470  Biso   1.000  C
  C31      1.0000 0.94920  0.06100  0.01780  Biso   1.000  C
  H25      1.0000 0.91150  0.98850  0.00560  Biso   1.000  H
  H26      1.0000 0.96060  0.10640  0.08420  Biso   1.000  H
  C32      1.0000 0.94260  0.20400  0.95950  Biso   1.000  C
  H27      1.0000 0.91730  0.29810  0.98030  Biso   1.000  H
  H28      1.0000 0.91870  0.15710  0.89680  Biso   1.000  H
  Cd3      1.0000 0.58700  0.15570  0.30661  Biso   1.000  Cd
  C33      1.0000 0.31990  0.99510  0.34080  Biso   1.000  C
  H29      1.0000 0.29100  0.96390  0.37240  Biso   1.000  H
  O15      1.0000 0.43660  0.11380  0.10250  Biso   1.000  O
  C34      1.0000 0.38840  0.11850  0.49860  Biso   1.000  C
  C35      1.0000 0.18930  0.60030  0.10120  Biso   1.000  C
  H30      1.0000 0.17000  0.66800  0.04030  Biso   1.000  H
  O16      1.0000 0.43030  0.23300  0.54180  Biso   1.000  O
  C36      1.0000 0.41750  0.14010  0.34330  Biso   1.000  C
  H31      1.0000 0.45320  0.20380  0.37640  Biso   1.000  H
  O17      1.0000 0.09156  0.63280  0.12980  Biso   1.000  O
  N5       1.0000 0.50700  0.81300  0.05750  Biso   1.000  N
  O18      1.0000 0.16980  0.57060  0.25570  Biso   1.000  O
  C37      1.0000 0.30830  0.95650  0.24340  Biso   1.000  C
  N6       1.0000 0.24810  0.69260  0.15130  Biso   1.000  N
  C38      1.0000 0.35060  0.00740  0.19500  Biso   1.000  C
  H32      1.0000 0.34290  0.97950  0.12950  Biso   1.000  H
  C39      1.0000 0.27610  0.42390  0.07820  Biso   1.000  C
  H33      1.0000 0.29830  0.30230  0.08840  Biso   1.000  H
  H34      1.0000 0.27760  0.48000  0.01730  Biso   1.000  H
  C40      1.0000 0.24800  0.87090  0.19030  Biso   1.000  C
  C41      1.0000 0.30090  0.56220  0.16110  Biso   1.000  C
  H35      1.0000 0.31190  0.49520  0.22290  Biso   1.000  H
  H36      1.0000 0.33600  0.63250  0.15380  Biso   1.000  H
  C42      1.0000 0.44820  0.16130  0.18850  Biso   1.000  C
  O19      1.0000 0.35670  0.02820  0.54360  Biso   1.000  O
  O20      1.0000 0.19990  0.96060  0.18220  Biso   1.000  O
  C43      1.0000 0.37530  0.08170  0.39290  Biso   1.000  C
  O21      1.0000 0.49362  0.26870  0.23210  Biso   1.000  O
  C44      1.0000 0.20910  0.39450  0.08060  Biso   1.000  C
  H37      1.0000 0.18380  0.34610  0.01900  Biso   1.000  H
  H38      1.0000 0.20710  0.30470  0.13140  Biso   1.000  H
  C45      1.0000 0.14720  0.60030  0.16620  Biso   1.000  C
  C46      1.0000 0.40540  0.10170  0.24530  Biso   1.000  C
  C47      1.0000 0.55080  0.56100  0.98220  Biso   1.000  C
  H39      1.0000 0.58850  0.48850  0.99440  Biso   1.000  H
  H40      1.0000 0.53940  0.60640  0.91580  Biso   1.000  H
  C48      1.0000 0.55740  0.70400  0.04050  Biso   1.000  C
  H41      1.0000 0.58270  0.79810  0.01970  Biso   1.000  H
  H42      1.0000 0.58130  0.65710  0.10320  Biso   1.000  H
  Cd4      1.0000 0.08700  0.65570  0.30661  Biso   1.000  Cd
  C49      1.0000 0.81990  0.49510  0.34080  Biso   1.000  C
  H43      1.0000 0.79100  0.46390  0.37240  Biso   1.000  H
  O22      1.0000 0.93660  0.61380  0.10250  Biso   1.000  O
  C50      1.0000 0.88840  0.61850  0.49860  Biso   1.000  C
  C51      1.0000 0.68930  0.10030  0.10120  Biso   1.000  C
  H44      1.0000 0.67000  0.16800  0.04030  Biso   1.000  H
  O23      1.0000 0.93030  0.73300  0.54180  Biso   1.000  O
  C52      1.0000 0.91750  0.64010  0.34330  Biso   1.000  C
  H45      1.0000 0.95320  0.70380  0.37640  Biso   1.000  H
  O24      1.0000 0.59156  0.13280  0.12980  Biso   1.000  O
  N7       1.0000 0.00700  0.31300  0.05750  Biso   1.000  N
  O25      1.0000 0.66980  0.07060  0.25570  Biso   1.000  O
  C53      1.0000 0.80830  0.45650  0.24340  Biso   1.000  C
  N8       1.0000 0.74810  0.19260  0.15130  Biso   1.000  N
  C54      1.0000 0.85060  0.50740  0.19500  Biso   1.000  C
  H46      1.0000 0.84290  0.47950  0.12950  Biso   1.000  H
  C55      1.0000 0.77610  0.92390  0.07820  Biso   1.000  C
  H47      1.0000 0.79830  0.80230  0.08840  Biso   1.000  H
  H48      1.0000 0.77760  0.98000  0.01730  Biso   1.000  H
  C56      1.0000 0.74800  0.37090  0.19030  Biso   1.000  C
  C57      1.0000 0.80090  0.06220  0.16110  Biso   1.000  C
  H49      1.0000 0.81190  0.99520  0.22290  Biso   1.000  H
  H50      1.0000 0.83600  0.13250  0.15380  Biso   1.000  H
  C58      1.0000 0.94820  0.66130  0.18850  Biso   1.000  C
  O26      1.0000 0.85670  0.52820  0.54360  Biso   1.000  O
  O27      1.0000 0.69990  0.46060  0.18220  Biso   1.000  O
  C59      1.0000 0.87530  0.58170  0.39290  Biso   1.000  C
  O28      1.0000 0.99362  0.76870  0.23210  Biso   1.000  O
  C60      1.0000 0.70910  0.89450  0.08060  Biso   1.000  C
  H51      1.0000 0.68380  0.84610  0.01900  Biso   1.000  H
  H52      1.0000 0.70710  0.80470  0.13140  Biso   1.000  H
  C61      1.0000 0.64720  0.10030  0.16620  Biso   1.000  C
  C62      1.0000 0.90540  0.60170  0.24530  Biso   1.000  C
  C63      1.0000 0.05080  0.06100  0.98220  Biso   1.000  C
  H53      1.0000 0.08850  0.98850  0.99440  Biso   1.000  H
  H54      1.0000 0.03940  0.10640  0.91580  Biso   1.000  H
  C64      1.0000 0.05740  0.20400  0.04050  Biso   1.000  C
  H55      1.0000 0.08270  0.29810  0.01970  Biso   1.000  H
  H56      1.0000 0.08130  0.15710  0.10320  Biso   1.000  H
  Cd5      1.0000 0.50000  0.12810  0.00000  Biso   1.000  Cd
  N9       1.0000 0.50000  0.43200  0.00000  Biso   1.000  N
  Cd6      1.0000 0.00000  0.62810  0.00000  Biso   1.000  Cd
  N10      1.0000 0.00000  0.93200  0.00000  Biso   1.000  N
