data_image0
_cell_length_a       28.718
_cell_length_b       28.718
_cell_length_c       28.718
_cell_angle_alpha    90
_cell_angle_beta     90
_cell_angle_gamma    90

_symmetry_space_group_name_H-M    "P 1"
_symmetry_int_tables_number       1

loop_
  _symmetry_equiv_pos_as_xyz
  'x, y, z'

loop_
  _atom_site_label
  _atom_site_occupancy
  _atom_site_fract_x
  _atom_site_fract_y
  _atom_site_fract_z
  _atom_site_thermal_displace_type
  _atom_site_B_iso_or_equiv
  _atom_site_type_symbol
  C1       1.0000 0.46520  0.42510  0.90130  Biso   1.000  C
  C2       1.0000 0.50660  0.44120  0.92950  Biso   1.000  C
  C3       1.0000 0.52000  0.41620  0.96730  Biso   1.000  C
  H1       1.0000 0.50300  0.39000  0.97590  Biso   1.000  H
  N1       1.0000 0.41930  0.29410  0.92390  Biso   1.000  N
  C4       1.0000 0.42410  0.30760  0.97020  Biso   1.000  C
  C5       1.0000 0.43480  0.27460  0.00400  Biso   1.000  C
  C6       1.0000 0.44060  0.22820  0.99160  Biso   1.000  C
  C7       1.0000 0.43570  0.21470  0.94530  Biso   1.000  C
  C8       1.0000 0.42510  0.24760  0.91150  Biso   1.000  C
  O1       1.0000 0.44830  0.38640  0.91170  Biso   1.000  O
  O2       1.0000 0.44980  0.45220  0.86990  Biso   1.000  O
  C9       1.0000 0.03480  0.57490  0.40130  Biso   1.000  C
  C10      1.0000 0.99340  0.55880  0.42950  Biso   1.000  C
  C11      1.0000 0.98000  0.58380  0.46730  Biso   1.000  C
  H2       1.0000 0.99700  0.61000  0.47590  Biso   1.000  H
  N2       1.0000 0.08070  0.70590  0.42390  Biso   1.000  N
  C12      1.0000 0.07590  0.69240  0.47020  Biso   1.000  C
  C13      1.0000 0.06520  0.72540  0.50400  Biso   1.000  C
  C14      1.0000 0.05940  0.77180  0.49160  Biso   1.000  C
  C15      1.0000 0.06430  0.78530  0.44530  Biso   1.000  C
  C16      1.0000 0.07490  0.75240  0.41150  Biso   1.000  C
  O3       1.0000 0.05170  0.61360  0.41170  Biso   1.000  O
  O4       1.0000 0.05020  0.54780  0.36990  Biso   1.000  O
  C17      1.0000 0.53480  0.92510  0.59870  Biso   1.000  C
  C18      1.0000 0.49340  0.94120  0.57050  Biso   1.000  C
  C19      1.0000 0.48000  0.91620  0.53270  Biso   1.000  C
  H3       1.0000 0.49700  0.89000  0.52410  Biso   1.000  H
  N3       1.0000 0.58070  0.79410  0.57610  Biso   1.000  N
  C20      1.0000 0.57590  0.80760  0.52980  Biso   1.000  C
  C21      1.0000 0.56520  0.77460  0.49600  Biso   1.000  C
  C22      1.0000 0.55940  0.72820  0.50840  Biso   1.000  C
  C23      1.0000 0.56430  0.71470  0.55470  Biso   1.000  C
  C24      1.0000 0.57490  0.74760  0.58850  Biso   1.000  C
  O5       1.0000 0.55170  0.88640  0.58830  Biso   1.000  O
  O6       1.0000 0.55020  0.95220  0.63010  Biso   1.000  O
  C25      1.0000 0.96520  0.07490  0.09870  Biso   1.000  C
  C26      1.0000 0.00660  0.05880  0.07050  Biso   1.000  C
  C27      1.0000 0.02000  0.08380  0.03270  Biso   1.000  C
  H4       1.0000 0.00300  0.11000  0.02410  Biso   1.000  H
  N4       1.0000 0.91930  0.20590  0.07610  Biso   1.000  N
  C28      1.0000 0.92410  0.19240  0.02980  Biso   1.000  C
  C29      1.0000 0.93480  0.22540  0.99600  Biso   1.000  C
  C30      1.0000 0.94060  0.27180  0.00840  Biso   1.000  C
  C31      1.0000 0.93570  0.28530  0.05470  Biso   1.000  C
  C32      1.0000 0.92510  0.25240  0.08850  Biso   1.000  C
  O7       1.0000 0.94830  0.11360  0.08830  Biso   1.000  O
  O8       1.0000 0.94980  0.04780  0.13010  Biso   1.000  O
  C33      1.0000 0.90130  0.46520  0.42510  Biso   1.000  C
  C34      1.0000 0.92950  0.50660  0.44120  Biso   1.000  C
  C35      1.0000 0.96730  0.52000  0.41620  Biso   1.000  C
  H5       1.0000 0.97590  0.50300  0.39000  Biso   1.000  H
  N5       1.0000 0.92390  0.41930  0.29410  Biso   1.000  N
  C36      1.0000 0.97020  0.42410  0.30760  Biso   1.000  C
  C37      1.0000 0.00400  0.43480  0.27460  Biso   1.000  C
  C38      1.0000 0.99160  0.44060  0.22820  Biso   1.000  C
  C39      1.0000 0.94530  0.43570  0.21470  Biso   1.000  C
  C40      1.0000 0.91150  0.42510  0.24760  Biso   1.000  C
  O9       1.0000 0.91170  0.44830  0.38640  Biso   1.000  O
  O10      1.0000 0.86990  0.44980  0.45220  Biso   1.000  O
  C41      1.0000 0.40130  0.03480  0.57490  Biso   1.000  C
  C42      1.0000 0.42950  0.99340  0.55880  Biso   1.000  C
  C43      1.0000 0.46730  0.98000  0.58380  Biso   1.000  C
  H6       1.0000 0.47590  0.99700  0.61000  Biso   1.000  H
  N6       1.0000 0.42390  0.08070  0.70590  Biso   1.000  N
  C44      1.0000 0.47020  0.07590  0.69240  Biso   1.000  C
  C45      1.0000 0.50400  0.06520  0.72540  Biso   1.000  C
  C46      1.0000 0.49160  0.05940  0.77180  Biso   1.000  C
  C47      1.0000 0.44530  0.06430  0.78530  Biso   1.000  C
  C48      1.0000 0.41150  0.07490  0.75240  Biso   1.000  C
  O11      1.0000 0.41170  0.05170  0.61360  Biso   1.000  O
  O12      1.0000 0.36990  0.05020  0.54780  Biso   1.000  O
  C49      1.0000 0.59870  0.53480  0.92510  Biso   1.000  C
  C50      1.0000 0.57050  0.49340  0.94120  Biso   1.000  C
  C51      1.0000 0.53270  0.48000  0.91620  Biso   1.000  C
  H7       1.0000 0.52410  0.49700  0.89000  Biso   1.000  H
  N7       1.0000 0.57610  0.58070  0.79410  Biso   1.000  N
  C52      1.0000 0.52980  0.57590  0.80760  Biso   1.000  C
  C53      1.0000 0.49600  0.56520  0.77460  Biso   1.000  C
  C54      1.0000 0.50840  0.55940  0.72820  Biso   1.000  C
  C55      1.0000 0.55470  0.56430  0.71470  Biso   1.000  C
  C56      1.0000 0.58850  0.57490  0.74760  Biso   1.000  C
  O13      1.0000 0.58830  0.55170  0.88640  Biso   1.000  O
  O14      1.0000 0.63010  0.55020  0.95220  Biso   1.000  O
  C57      1.0000 0.09870  0.96520  0.07490  Biso   1.000  C
  C58      1.0000 0.07050  0.00660  0.05880  Biso   1.000  C
  C59      1.0000 0.03270  0.02000  0.08380  Biso   1.000  C
  H8       1.0000 0.02410  0.00300  0.11000  Biso   1.000  H
  N8       1.0000 0.07610  0.91930  0.20590  Biso   1.000  N
  C60      1.0000 0.02980  0.92410  0.19240  Biso   1.000  C
  C61      1.0000 0.99600  0.93480  0.22540  Biso   1.000  C
  C62      1.0000 0.00840  0.94060  0.27180  Biso   1.000  C
  C63      1.0000 0.05470  0.93570  0.28530  Biso   1.000  C
  C64      1.0000 0.08850  0.92510  0.25240  Biso   1.000  C
  O15      1.0000 0.08830  0.94830  0.11360  Biso   1.000  O
  O16      1.0000 0.13010  0.94980  0.04780  Biso   1.000  O
  C65      1.0000 0.42510  0.90130  0.46520  Biso   1.000  C
  C66      1.0000 0.44120  0.92950  0.50660  Biso   1.000  C
  C67      1.0000 0.41620  0.96730  0.52000  Biso   1.000  C
  H9       1.0000 0.39000  0.97590  0.50300  Biso   1.000  H
  N9       1.0000 0.29410  0.92390  0.41930  Biso   1.000  N
  C68      1.0000 0.30760  0.97020  0.42410  Biso   1.000  C
  C69      1.0000 0.27460  0.00400  0.43480  Biso   1.000  C
  C70      1.0000 0.22820  0.99160  0.44060  Biso   1.000  C
  C71      1.0000 0.21470  0.94530  0.43570  Biso   1.000  C
  C72      1.0000 0.24760  0.91150  0.42510  Biso   1.000  C
  O17      1.0000 0.38640  0.91170  0.44830  Biso   1.000  O
  O18      1.0000 0.45220  0.86990  0.44980  Biso   1.000  O
  C73      1.0000 0.57490  0.40130  0.03480  Biso   1.000  C
  C74      1.0000 0.55880  0.42950  0.99340  Biso   1.000  C
  C75      1.0000 0.58380  0.46730  0.98000  Biso   1.000  C
  H10      1.0000 0.61000  0.47590  0.99700  Biso   1.000  H
  N10      1.0000 0.70590  0.42390  0.08070  Biso   1.000  N
  C76      1.0000 0.69240  0.47020  0.07590  Biso   1.000  C
  C77      1.0000 0.72540  0.50400  0.06520  Biso   1.000  C
  C78      1.0000 0.77180  0.49160  0.05940  Biso   1.000  C
  C79      1.0000 0.78530  0.44530  0.06430  Biso   1.000  C
  C80      1.0000 0.75240  0.41150  0.07490  Biso   1.000  C
  O19      1.0000 0.61360  0.41170  0.05170  Biso   1.000  O
  O20      1.0000 0.54780  0.36990  0.05020  Biso   1.000  O
  C81      1.0000 0.92510  0.59870  0.53480  Biso   1.000  C
  C82      1.0000 0.94120  0.57050  0.49340  Biso   1.000  C
  C83      1.0000 0.91620  0.53270  0.48000  Biso   1.000  C
  H11      1.0000 0.89000  0.52410  0.49700  Biso   1.000  H
  N11      1.0000 0.79410  0.57610  0.58070  Biso   1.000  N
  C84      1.0000 0.80760  0.52980  0.57590  Biso   1.000  C
  C85      1.0000 0.77460  0.49600  0.56520  Biso   1.000  C
  C86      1.0000 0.72820  0.50840  0.55940  Biso   1.000  C
  C87      1.0000 0.71470  0.55470  0.56430  Biso   1.000  C
  C88      1.0000 0.74760  0.58850  0.57490  Biso   1.000  C
  O21      1.0000 0.88640  0.58830  0.55170  Biso   1.000  O
  O22      1.0000 0.95220  0.63010  0.55020  Biso   1.000  O
  C89      1.0000 0.07490  0.09870  0.96520  Biso   1.000  C
  C90      1.0000 0.05880  0.07050  0.00660  Biso   1.000  C
  C91      1.0000 0.08380  0.03270  0.02000  Biso   1.000  C
  H12      1.0000 0.11000  0.02410  0.00300  Biso   1.000  H
  N12      1.0000 0.20590  0.07610  0.91930  Biso   1.000  N
  C92      1.0000 0.19240  0.02980  0.92410  Biso   1.000  C
  C93      1.0000 0.22540  0.99600  0.93480  Biso   1.000  C
  C94      1.0000 0.27180  0.00840  0.94060  Biso   1.000  C
  C95      1.0000 0.28530  0.05470  0.93570  Biso   1.000  C
  C96      1.0000 0.25240  0.08850  0.92510  Biso   1.000  C
  O23      1.0000 0.11360  0.08830  0.94830  Biso   1.000  O
  O24      1.0000 0.04780  0.13010  0.94980  Biso   1.000  O
  C97      1.0000 0.17510  0.71520  0.34870  Biso   1.000  C
  C98      1.0000 0.19120  0.75660  0.32050  Biso   1.000  C
  C99      1.0000 0.16620  0.77000  0.28270  Biso   1.000  C
  H13      1.0000 0.14000  0.75300  0.27410  Biso   1.000  H
  N13      1.0000 0.04410  0.66930  0.32610  Biso   1.000  N
  C100     1.0000 0.05760  0.67410  0.27980  Biso   1.000  C
  C101     1.0000 0.02460  0.68480  0.24600  Biso   1.000  C
  C102     1.0000 0.97820  0.69060  0.25840  Biso   1.000  C
  C103     1.0000 0.96470  0.68570  0.30470  Biso   1.000  C
  C104     1.0000 0.99760  0.67510  0.33850  Biso   1.000  C
  O25      1.0000 0.13640  0.69830  0.33830  Biso   1.000  O
  O26      1.0000 0.20220  0.69980  0.38010  Biso   1.000  O
  C105     1.0000 0.32490  0.28480  0.84870  Biso   1.000  C
  C106     1.0000 0.30880  0.24340  0.82050  Biso   1.000  C
  C107     1.0000 0.33380  0.23000  0.78270  Biso   1.000  C
  H14      1.0000 0.36000  0.24700  0.77410  Biso   1.000  H
  N14      1.0000 0.45590  0.33070  0.82610  Biso   1.000  N
  C108     1.0000 0.44240  0.32590  0.77980  Biso   1.000  C
  C109     1.0000 0.47540  0.31520  0.74600  Biso   1.000  C
  C110     1.0000 0.52180  0.30940  0.75840  Biso   1.000  C
  C111     1.0000 0.53530  0.31430  0.80470  Biso   1.000  C
  C112     1.0000 0.50240  0.32490  0.83850  Biso   1.000  C
  O27      1.0000 0.36360  0.30170  0.83830  Biso   1.000  O
  O28      1.0000 0.29780  0.30020  0.88010  Biso   1.000  O
  C113     1.0000 0.67510  0.78480  0.65130  Biso   1.000  C
  C114     1.0000 0.69120  0.74340  0.67950  Biso   1.000  C
  C115     1.0000 0.66620  0.73000  0.71730  Biso   1.000  C
  H15      1.0000 0.64000  0.74700  0.72590  Biso   1.000  H
  N15      1.0000 0.54410  0.83070  0.67390  Biso   1.000  N
  C116     1.0000 0.55760  0.82590  0.72020  Biso   1.000  C
  C117     1.0000 0.52460  0.81520  0.75400  Biso   1.000  C
  C118     1.0000 0.47820  0.80940  0.74160  Biso   1.000  C
  C119     1.0000 0.46470  0.81430  0.69530  Biso   1.000  C
  C120     1.0000 0.49760  0.82490  0.66150  Biso   1.000  C
  O29      1.0000 0.63640  0.80170  0.66170  Biso   1.000  O
  O30      1.0000 0.70220  0.80020  0.61990  Biso   1.000  O
  C121     1.0000 0.82490  0.21520  0.15130  Biso   1.000  C
  C122     1.0000 0.80880  0.25660  0.17950  Biso   1.000  C
  C123     1.0000 0.83380  0.27000  0.21730  Biso   1.000  C
  H16      1.0000 0.86000  0.25300  0.22590  Biso   1.000  H
  N16      1.0000 0.95590  0.16930  0.17390  Biso   1.000  N
  C124     1.0000 0.94240  0.17410  0.22020  Biso   1.000  C
  C125     1.0000 0.97540  0.18480  0.25400  Biso   1.000  C
  C126     1.0000 0.02180  0.19060  0.24160  Biso   1.000  C
  C127     1.0000 0.03530  0.18570  0.19530  Biso   1.000  C
  C128     1.0000 0.00240  0.17510  0.16150  Biso   1.000  C
  O31      1.0000 0.86360  0.19830  0.16170  Biso   1.000  O
  O32      1.0000 0.79780  0.19980  0.11990  Biso   1.000  O
  C129     1.0000 0.21520  0.15130  0.82490  Biso   1.000  C
  C130     1.0000 0.25660  0.17950  0.80880  Biso   1.000  C
  C131     1.0000 0.27000  0.21730  0.83380  Biso   1.000  C
  H17      1.0000 0.25300  0.22590  0.86000  Biso   1.000  H
  N17      1.0000 0.16930  0.17390  0.95590  Biso   1.000  N
  C132     1.0000 0.17410  0.22020  0.94240  Biso   1.000  C
  C133     1.0000 0.18480  0.25400  0.97540  Biso   1.000  C
  C134     1.0000 0.19060  0.24160  0.02180  Biso   1.000  C
  C135     1.0000 0.18570  0.19530  0.03530  Biso   1.000  C
  C136     1.0000 0.17510  0.16150  0.00240  Biso   1.000  C
  O33      1.0000 0.19830  0.16170  0.86360  Biso   1.000  O
  O34      1.0000 0.19980  0.11990  0.79780  Biso   1.000  O
  C137     1.0000 0.78480  0.65130  0.67510  Biso   1.000  C
  C138     1.0000 0.74340  0.67950  0.69120  Biso   1.000  C
  C139     1.0000 0.73000  0.71730  0.66620  Biso   1.000  C
  H18      1.0000 0.74700  0.72590  0.64000  Biso   1.000  H
  N18      1.0000 0.83070  0.67390  0.54410  Biso   1.000  N
  C140     1.0000 0.82590  0.72020  0.55760  Biso   1.000  C
  C141     1.0000 0.81520  0.75400  0.52460  Biso   1.000  C
  C142     1.0000 0.80940  0.74160  0.47820  Biso   1.000  C
  C143     1.0000 0.81430  0.69530  0.46470  Biso   1.000  C
  C144     1.0000 0.82490  0.66150  0.49760  Biso   1.000  C
  O35      1.0000 0.80170  0.66170  0.63640  Biso   1.000  O
  O36      1.0000 0.80020  0.61990  0.70220  Biso   1.000  O
  C145     1.0000 0.28480  0.84870  0.32490  Biso   1.000  C
  C146     1.0000 0.24340  0.82050  0.30880  Biso   1.000  C
  C147     1.0000 0.23000  0.78270  0.33380  Biso   1.000  C
  H19      1.0000 0.24700  0.77410  0.36000  Biso   1.000  H
  N19      1.0000 0.33070  0.82610  0.45590  Biso   1.000  N
  C148     1.0000 0.32590  0.77980  0.44240  Biso   1.000  C
  C149     1.0000 0.31520  0.74600  0.47540  Biso   1.000  C
  C150     1.0000 0.30940  0.75840  0.52180  Biso   1.000  C
  C151     1.0000 0.31430  0.80470  0.53530  Biso   1.000  C
  C152     1.0000 0.32490  0.83850  0.50240  Biso   1.000  C
  O37      1.0000 0.30170  0.83830  0.36360  Biso   1.000  O
  O38      1.0000 0.30020  0.88010  0.29780  Biso   1.000  O
  C153     1.0000 0.71520  0.34870  0.17510  Biso   1.000  C
  C154     1.0000 0.75660  0.32050  0.19120  Biso   1.000  C
  C155     1.0000 0.77000  0.28270  0.16620  Biso   1.000  C
  H20      1.0000 0.75300  0.27410  0.14000  Biso   1.000  H
  N20      1.0000 0.66930  0.32610  0.04410  Biso   1.000  N
  C156     1.0000 0.67410  0.27980  0.05760  Biso   1.000  C
  C157     1.0000 0.68480  0.24600  0.02460  Biso   1.000  C
  C158     1.0000 0.69060  0.25840  0.97820  Biso   1.000  C
  C159     1.0000 0.68570  0.30470  0.96470  Biso   1.000  C
  C160     1.0000 0.67510  0.33850  0.99760  Biso   1.000  C
  O39      1.0000 0.69830  0.33830  0.13640  Biso   1.000  O
  O40      1.0000 0.69980  0.38010  0.20220  Biso   1.000  O
  C161     1.0000 0.65130  0.67510  0.78480  Biso   1.000  C
  C162     1.0000 0.67950  0.69120  0.74340  Biso   1.000  C
  C163     1.0000 0.71730  0.66620  0.73000  Biso   1.000  C
  H21      1.0000 0.72590  0.64000  0.74700  Biso   1.000  H
  N21      1.0000 0.67390  0.54410  0.83070  Biso   1.000  N
  C164     1.0000 0.72020  0.55760  0.82590  Biso   1.000  C
  C165     1.0000 0.75400  0.52460  0.81520  Biso   1.000  C
  C166     1.0000 0.74160  0.47820  0.80940  Biso   1.000  C
  C167     1.0000 0.69530  0.46470  0.81430  Biso   1.000  C
  C168     1.0000 0.66150  0.49760  0.82490  Biso   1.000  C
  O41      1.0000 0.66170  0.63640  0.80170  Biso   1.000  O
  O42      1.0000 0.61990  0.70220  0.80020  Biso   1.000  O
  C169     1.0000 0.15130  0.82490  0.21520  Biso   1.000  C
  C170     1.0000 0.17950  0.80880  0.25660  Biso   1.000  C
  C171     1.0000 0.21730  0.83380  0.27000  Biso   1.000  C
  H22      1.0000 0.22590  0.86000  0.25300  Biso   1.000  H
  N22      1.0000 0.17390  0.95590  0.16930  Biso   1.000  N
  C172     1.0000 0.22020  0.94240  0.17410  Biso   1.000  C
  C173     1.0000 0.25400  0.97540  0.18480  Biso   1.000  C
  C174     1.0000 0.24160  0.02180  0.19060  Biso   1.000  C
  C175     1.0000 0.19530  0.03530  0.18570  Biso   1.000  C
  C176     1.0000 0.16150  0.00240  0.17510  Biso   1.000  C
  O43      1.0000 0.16170  0.86360  0.19830  Biso   1.000  O
  O44      1.0000 0.11990  0.79780  0.19980  Biso   1.000  O
  C177     1.0000 0.34870  0.17510  0.71520  Biso   1.000  C
  C178     1.0000 0.32050  0.19120  0.75660  Biso   1.000  C
  C179     1.0000 0.28270  0.16620  0.77000  Biso   1.000  C
  H23      1.0000 0.27410  0.14000  0.75300  Biso   1.000  H
  N23      1.0000 0.32610  0.04410  0.66930  Biso   1.000  N
  C180     1.0000 0.27980  0.05760  0.67410  Biso   1.000  C
  C181     1.0000 0.24600  0.02460  0.68480  Biso   1.000  C
  C182     1.0000 0.25840  0.97820  0.69060  Biso   1.000  C
  C183     1.0000 0.30470  0.96470  0.68570  Biso   1.000  C
  C184     1.0000 0.33850  0.99760  0.67510  Biso   1.000  C
  O45      1.0000 0.33830  0.13640  0.69830  Biso   1.000  O
  O46      1.0000 0.38010  0.20220  0.69980  Biso   1.000  O
  C185     1.0000 0.84870  0.32490  0.28480  Biso   1.000  C
  C186     1.0000 0.82050  0.30880  0.24340  Biso   1.000  C
  C187     1.0000 0.78270  0.33380  0.23000  Biso   1.000  C
  H24      1.0000 0.77410  0.36000  0.24700  Biso   1.000  H
  N24      1.0000 0.82610  0.45590  0.33070  Biso   1.000  N
  C188     1.0000 0.77980  0.44240  0.32590  Biso   1.000  C
  C189     1.0000 0.74600  0.47540  0.31520  Biso   1.000  C
  C190     1.0000 0.75840  0.52180  0.30940  Biso   1.000  C
  C191     1.0000 0.80470  0.53530  0.31430  Biso   1.000  C
  C192     1.0000 0.83850  0.50240  0.32490  Biso   1.000  C
  O47      1.0000 0.83830  0.36360  0.30170  Biso   1.000  O
  O48      1.0000 0.88010  0.29780  0.30020  Biso   1.000  O
  Ni1      1.0000 0.40420  0.34580  0.87500  Biso   1.000  Ni
  Ni2      1.0000 0.09580  0.65420  0.37500  Biso   1.000  Ni
  Ni3      1.0000 0.59580  0.84580  0.62500  Biso   1.000  Ni
  Ni4      1.0000 0.90420  0.15420  0.12500  Biso   1.000  Ni
  Ni5      1.0000 0.87500  0.40420  0.34580  Biso   1.000  Ni
  Ni6      1.0000 0.37500  0.09580  0.65420  Biso   1.000  Ni
  Ni7      1.0000 0.62500  0.59580  0.84580  Biso   1.000  Ni
  Ni8      1.0000 0.12500  0.90420  0.15420  Biso   1.000  Ni
  Ni9      1.0000 0.34580  0.87500  0.40420  Biso   1.000  Ni
  Ni10     1.0000 0.65420  0.37500  0.09580  Biso   1.000  Ni
  Ni11     1.0000 0.84580  0.62500  0.59580  Biso   1.000  Ni
  Ni12     1.0000 0.15420  0.12500  0.90420  Biso   1.000  Ni
  C193     1.0000 0.96520  0.92510  0.40130  Biso   1.000  C
  C194     1.0000 0.00660  0.94120  0.42950  Biso   1.000  C
  C195     1.0000 0.02000  0.91620  0.46730  Biso   1.000  C
  H25      1.0000 0.00300  0.89000  0.47590  Biso   1.000  H
  N25      1.0000 0.91930  0.79410  0.42390  Biso   1.000  N
  C196     1.0000 0.92410  0.80760  0.47020  Biso   1.000  C
  C197     1.0000 0.93480  0.77460  0.50400  Biso   1.000  C
  C198     1.0000 0.94060  0.72820  0.49160  Biso   1.000  C
  C199     1.0000 0.93570  0.71470  0.44530  Biso   1.000  C
  C200     1.0000 0.92510  0.74760  0.41150  Biso   1.000  C
  O49      1.0000 0.94830  0.88640  0.41170  Biso   1.000  O
  O50      1.0000 0.94980  0.95220  0.36990  Biso   1.000  O
  C201     1.0000 0.53480  0.07490  0.90130  Biso   1.000  C
  C202     1.0000 0.49340  0.05880  0.92950  Biso   1.000  C
  C203     1.0000 0.48000  0.08380  0.96730  Biso   1.000  C
  H26      1.0000 0.49700  0.11000  0.97590  Biso   1.000  H
  N26      1.0000 0.58070  0.20590  0.92390  Biso   1.000  N
  C204     1.0000 0.57590  0.19240  0.97020  Biso   1.000  C
  C205     1.0000 0.56520  0.22540  0.00400  Biso   1.000  C
  C206     1.0000 0.55940  0.27180  0.99160  Biso   1.000  C
  C207     1.0000 0.56430  0.28530  0.94530  Biso   1.000  C
  C208     1.0000 0.57490  0.25240  0.91150  Biso   1.000  C
  O51      1.0000 0.55170  0.11360  0.91170  Biso   1.000  O
  O52      1.0000 0.55020  0.04780  0.86990  Biso   1.000  O
  C209     1.0000 0.03480  0.42510  0.09870  Biso   1.000  C
  C210     1.0000 0.99340  0.44120  0.07050  Biso   1.000  C
  C211     1.0000 0.98000  0.41620  0.03270  Biso   1.000  C
  H27      1.0000 0.99700  0.39000  0.02410  Biso   1.000  H
  N27      1.0000 0.08070  0.29410  0.07610  Biso   1.000  N
  C212     1.0000 0.07590  0.30760  0.02980  Biso   1.000  C
  C213     1.0000 0.06520  0.27460  0.99600  Biso   1.000  C
  C214     1.0000 0.05940  0.22820  0.00840  Biso   1.000  C
  C215     1.0000 0.06430  0.21470  0.05470  Biso   1.000  C
  C216     1.0000 0.07490  0.24760  0.08850  Biso   1.000  C
  O53      1.0000 0.05170  0.38640  0.08830  Biso   1.000  O
  O54      1.0000 0.05020  0.45220  0.13010  Biso   1.000  O
  C217     1.0000 0.46520  0.57490  0.59870  Biso   1.000  C
  C218     1.0000 0.50660  0.55880  0.57050  Biso   1.000  C
  C219     1.0000 0.52000  0.58380  0.53270  Biso   1.000  C
  H28      1.0000 0.50300  0.61000  0.52410  Biso   1.000  H
  N28      1.0000 0.41930  0.70590  0.57610  Biso   1.000  N
  C220     1.0000 0.42410  0.69240  0.52980  Biso   1.000  C
  C221     1.0000 0.43480  0.72540  0.49600  Biso   1.000  C
  C222     1.0000 0.44060  0.77180  0.50840  Biso   1.000  C
  C223     1.0000 0.43570  0.78530  0.55470  Biso   1.000  C
  C224     1.0000 0.42510  0.75240  0.58850  Biso   1.000  C
  O55      1.0000 0.44830  0.61360  0.58830  Biso   1.000  O
  O56      1.0000 0.44980  0.54780  0.63010  Biso   1.000  O
  C225     1.0000 0.40130  0.96520  0.92510  Biso   1.000  C
  C226     1.0000 0.42950  0.00660  0.94120  Biso   1.000  C
  C227     1.0000 0.46730  0.02000  0.91620  Biso   1.000  C
  H29      1.0000 0.47590  0.00300  0.89000  Biso   1.000  H
  N29      1.0000 0.42390  0.91930  0.79410  Biso   1.000  N
  C228     1.0000 0.47020  0.92410  0.80760  Biso   1.000  C
  C229     1.0000 0.50400  0.93480  0.77460  Biso   1.000  C
  C230     1.0000 0.49160  0.94060  0.72820  Biso   1.000  C
  C231     1.0000 0.44530  0.93570  0.71470  Biso   1.000  C
  C232     1.0000 0.41150  0.92510  0.74760  Biso   1.000  C
  O57      1.0000 0.41170  0.94830  0.88640  Biso   1.000  O
  O58      1.0000 0.36990  0.94980  0.95220  Biso   1.000  O
  C233     1.0000 0.90130  0.53480  0.07490  Biso   1.000  C
  C234     1.0000 0.92950  0.49340  0.05880  Biso   1.000  C
  C235     1.0000 0.96730  0.48000  0.08380  Biso   1.000  C
  H30      1.0000 0.97590  0.49700  0.11000  Biso   1.000  H
  N30      1.0000 0.92390  0.58070  0.20590  Biso   1.000  N
  C236     1.0000 0.97020  0.57590  0.19240  Biso   1.000  C
  C237     1.0000 0.00400  0.56520  0.22540  Biso   1.000  C
  C238     1.0000 0.99160  0.55940  0.27180  Biso   1.000  C
  C239     1.0000 0.94530  0.56430  0.28530  Biso   1.000  C
  C240     1.0000 0.91150  0.57490  0.25240  Biso   1.000  C
  O59      1.0000 0.91170  0.55170  0.11360  Biso   1.000  O
  O60      1.0000 0.86990  0.55020  0.04780  Biso   1.000  O
  C241     1.0000 0.09870  0.03480  0.42510  Biso   1.000  C
  C242     1.0000 0.07050  0.99340  0.44120  Biso   1.000  C
  C243     1.0000 0.03270  0.98000  0.41620  Biso   1.000  C
  H31      1.0000 0.02410  0.99700  0.39000  Biso   1.000  H
  N31      1.0000 0.07610  0.08070  0.29410  Biso   1.000  N
  C244     1.0000 0.02980  0.07590  0.30760  Biso   1.000  C
  C245     1.0000 0.99600  0.06520  0.27460  Biso   1.000  C
  C246     1.0000 0.00840  0.05940  0.22820  Biso   1.000  C
  C247     1.0000 0.05470  0.06430  0.21470  Biso   1.000  C
  C248     1.0000 0.08850  0.07490  0.24760  Biso   1.000  C
  O61      1.0000 0.08830  0.05170  0.38640  Biso   1.000  O
  O62      1.0000 0.13010  0.05020  0.45220  Biso   1.000  O
  C249     1.0000 0.59870  0.46520  0.57490  Biso   1.000  C
  C250     1.0000 0.57050  0.50660  0.55880  Biso   1.000  C
  C251     1.0000 0.53270  0.52000  0.58380  Biso   1.000  C
  H32      1.0000 0.52410  0.50300  0.61000  Biso   1.000  H
  N32      1.0000 0.57610  0.41930  0.70590  Biso   1.000  N
  C252     1.0000 0.52980  0.42410  0.69240  Biso   1.000  C
  C253     1.0000 0.49600  0.43480  0.72540  Biso   1.000  C
  C254     1.0000 0.50840  0.44060  0.77180  Biso   1.000  C
  C255     1.0000 0.55470  0.43570  0.78530  Biso   1.000  C
  C256     1.0000 0.58850  0.42510  0.75240  Biso   1.000  C
  O63      1.0000 0.58830  0.44830  0.61360  Biso   1.000  O
  O64      1.0000 0.63010  0.44980  0.54780  Biso   1.000  O
  C257     1.0000 0.92510  0.40130  0.96520  Biso   1.000  C
  C258     1.0000 0.94120  0.42950  0.00660  Biso   1.000  C
  C259     1.0000 0.91620  0.46730  0.02000  Biso   1.000  C
  H33      1.0000 0.89000  0.47590  0.00300  Biso   1.000  H
  N33      1.0000 0.79410  0.42390  0.91930  Biso   1.000  N
  C260     1.0000 0.80760  0.47020  0.92410  Biso   1.000  C
  C261     1.0000 0.77460  0.50400  0.93480  Biso   1.000  C
  C262     1.0000 0.72820  0.49160  0.94060  Biso   1.000  C
  C263     1.0000 0.71470  0.44530  0.93570  Biso   1.000  C
  C264     1.0000 0.74760  0.41150  0.92510  Biso   1.000  C
  O65      1.0000 0.88640  0.41170  0.94830  Biso   1.000  O
  O66      1.0000 0.95220  0.36990  0.94980  Biso   1.000  O
  C265     1.0000 0.07490  0.90130  0.53480  Biso   1.000  C
  C266     1.0000 0.05880  0.92950  0.49340  Biso   1.000  C
  C267     1.0000 0.08380  0.96730  0.48000  Biso   1.000  C
  H34      1.0000 0.11000  0.97590  0.49700  Biso   1.000  H
  N34      1.0000 0.20590  0.92390  0.58070  Biso   1.000  N
  C268     1.0000 0.19240  0.97020  0.57590  Biso   1.000  C
  C269     1.0000 0.22540  0.00400  0.56520  Biso   1.000  C
  C270     1.0000 0.27180  0.99160  0.55940  Biso   1.000  C
  C271     1.0000 0.28530  0.94530  0.56430  Biso   1.000  C
  C272     1.0000 0.25240  0.91150  0.57490  Biso   1.000  C
  O67      1.0000 0.11360  0.91170  0.55170  Biso   1.000  O
  O68      1.0000 0.04780  0.86990  0.55020  Biso   1.000  O
  C273     1.0000 0.42510  0.09870  0.03480  Biso   1.000  C
  C274     1.0000 0.44120  0.07050  0.99340  Biso   1.000  C
  C275     1.0000 0.41620  0.03270  0.98000  Biso   1.000  C
  H35      1.0000 0.39000  0.02410  0.99700  Biso   1.000  H
  N35      1.0000 0.29410  0.07610  0.08070  Biso   1.000  N
  C276     1.0000 0.30760  0.02980  0.07590  Biso   1.000  C
  C277     1.0000 0.27460  0.99600  0.06520  Biso   1.000  C
  C278     1.0000 0.22820  0.00840  0.05940  Biso   1.000  C
  C279     1.0000 0.21470  0.05470  0.06430  Biso   1.000  C
  C280     1.0000 0.24760  0.08850  0.07490  Biso   1.000  C
  O69      1.0000 0.38640  0.08830  0.05170  Biso   1.000  O
  O70      1.0000 0.45220  0.13010  0.05020  Biso   1.000  O
  C281     1.0000 0.57490  0.59870  0.46520  Biso   1.000  C
  C282     1.0000 0.55880  0.57050  0.50660  Biso   1.000  C
  C283     1.0000 0.58380  0.53270  0.52000  Biso   1.000  C
  H36      1.0000 0.61000  0.52410  0.50300  Biso   1.000  H
  N36      1.0000 0.70590  0.57610  0.41930  Biso   1.000  N
  C284     1.0000 0.69240  0.52980  0.42410  Biso   1.000  C
  C285     1.0000 0.72540  0.49600  0.43480  Biso   1.000  C
  C286     1.0000 0.77180  0.50840  0.44060  Biso   1.000  C
  C287     1.0000 0.78530  0.55470  0.43570  Biso   1.000  C
  C288     1.0000 0.75240  0.58850  0.42510  Biso   1.000  C
  O71      1.0000 0.61360  0.58830  0.44830  Biso   1.000  O
  O72      1.0000 0.54780  0.63010  0.44980  Biso   1.000  O
  C289     1.0000 0.67510  0.21520  0.84870  Biso   1.000  C
  C290     1.0000 0.69120  0.25660  0.82050  Biso   1.000  C
  C291     1.0000 0.66620  0.27000  0.78270  Biso   1.000  C
  H37      1.0000 0.64000  0.25300  0.77410  Biso   1.000  H
  N37      1.0000 0.54410  0.16930  0.82610  Biso   1.000  N
  C292     1.0000 0.55760  0.17410  0.77980  Biso   1.000  C
  C293     1.0000 0.52460  0.18480  0.74600  Biso   1.000  C
  C294     1.0000 0.47820  0.19060  0.75840  Biso   1.000  C
  C295     1.0000 0.46470  0.18570  0.80470  Biso   1.000  C
  C296     1.0000 0.49760  0.17510  0.83850  Biso   1.000  C
  O73      1.0000 0.63640  0.19830  0.83830  Biso   1.000  O
  O74      1.0000 0.70220  0.19980  0.88010  Biso   1.000  O
  C297     1.0000 0.82490  0.78480  0.34870  Biso   1.000  C
  C298     1.0000 0.80880  0.74340  0.32050  Biso   1.000  C
  C299     1.0000 0.83380  0.73000  0.28270  Biso   1.000  C
  H38      1.0000 0.86000  0.74700  0.27410  Biso   1.000  H
  N38      1.0000 0.95590  0.83070  0.32610  Biso   1.000  N
  C300     1.0000 0.94240  0.82590  0.27980  Biso   1.000  C
  C301     1.0000 0.97540  0.81520  0.24600  Biso   1.000  C
  C302     1.0000 0.02180  0.80940  0.25840  Biso   1.000  C
  C303     1.0000 0.03530  0.81430  0.30470  Biso   1.000  C
  C304     1.0000 0.00240  0.82490  0.33850  Biso   1.000  C
  O75      1.0000 0.86360  0.80170  0.33830  Biso   1.000  O
  O76      1.0000 0.79780  0.80020  0.38010  Biso   1.000  O
  C305     1.0000 0.17510  0.28480  0.15130  Biso   1.000  C
  C306     1.0000 0.19120  0.24340  0.17950  Biso   1.000  C
  C307     1.0000 0.16620  0.23000  0.21730  Biso   1.000  C
  H39      1.0000 0.14000  0.24700  0.22590  Biso   1.000  H
  N39      1.0000 0.04410  0.33070  0.17390  Biso   1.000  N
  C308     1.0000 0.05760  0.32590  0.22020  Biso   1.000  C
  C309     1.0000 0.02460  0.31520  0.25400  Biso   1.000  C
  C310     1.0000 0.97820  0.30940  0.24160  Biso   1.000  C
  C311     1.0000 0.96470  0.31430  0.19530  Biso   1.000  C
  C312     1.0000 0.99760  0.32490  0.16150  Biso   1.000  C
  O77      1.0000 0.13640  0.30170  0.16170  Biso   1.000  O
  O78      1.0000 0.20220  0.30020  0.11990  Biso   1.000  O
  C313     1.0000 0.32490  0.71520  0.65130  Biso   1.000  C
  C314     1.0000 0.30880  0.75660  0.67950  Biso   1.000  C
  C315     1.0000 0.33380  0.77000  0.71730  Biso   1.000  C
  H40      1.0000 0.36000  0.75300  0.72590  Biso   1.000  H
  N40      1.0000 0.45590  0.66930  0.67390  Biso   1.000  N
  C316     1.0000 0.44240  0.67410  0.72020  Biso   1.000  C
  C317     1.0000 0.47540  0.68480  0.75400  Biso   1.000  C
  C318     1.0000 0.52180  0.69060  0.74160  Biso   1.000  C
  C319     1.0000 0.53530  0.68570  0.69530  Biso   1.000  C
  C320     1.0000 0.50240  0.67510  0.66150  Biso   1.000  C
  O79      1.0000 0.36360  0.69830  0.66170  Biso   1.000  O
  O80      1.0000 0.29780  0.69980  0.61990  Biso   1.000  O
  C321     1.0000 0.71520  0.65130  0.32490  Biso   1.000  C
  C322     1.0000 0.75660  0.67950  0.30880  Biso   1.000  C
  C323     1.0000 0.77000  0.71730  0.33380  Biso   1.000  C
  H41      1.0000 0.75300  0.72590  0.36000  Biso   1.000  H
  N41      1.0000 0.66930  0.67390  0.45590  Biso   1.000  N
  C324     1.0000 0.67410  0.72020  0.44240  Biso   1.000  C
  C325     1.0000 0.68480  0.75400  0.47540  Biso   1.000  C
  C326     1.0000 0.69060  0.74160  0.52180  Biso   1.000  C
  C327     1.0000 0.68570  0.69530  0.53530  Biso   1.000  C
  C328     1.0000 0.67510  0.66150  0.50240  Biso   1.000  C
  O81      1.0000 0.69830  0.66170  0.36360  Biso   1.000  O
  O82      1.0000 0.69980  0.61990  0.29780  Biso   1.000  O
  C329     1.0000 0.28480  0.15130  0.17510  Biso   1.000  C
  C330     1.0000 0.24340  0.17950  0.19120  Biso   1.000  C
  C331     1.0000 0.23000  0.21730  0.16620  Biso   1.000  C
  H42      1.0000 0.24700  0.22590  0.14000  Biso   1.000  H
  N42      1.0000 0.33070  0.17390  0.04410  Biso   1.000  N
  C332     1.0000 0.32590  0.22020  0.05760  Biso   1.000  C
  C333     1.0000 0.31520  0.25400  0.02460  Biso   1.000  C
  C334     1.0000 0.30940  0.24160  0.97820  Biso   1.000  C
  C335     1.0000 0.31430  0.19530  0.96470  Biso   1.000  C
  C336     1.0000 0.32490  0.16150  0.99760  Biso   1.000  C
  O83      1.0000 0.30170  0.16170  0.13640  Biso   1.000  O
  O84      1.0000 0.30020  0.11990  0.20220  Biso   1.000  O
  C337     1.0000 0.78480  0.34870  0.82490  Biso   1.000  C
  C338     1.0000 0.74340  0.32050  0.80880  Biso   1.000  C
  C339     1.0000 0.73000  0.28270  0.83380  Biso   1.000  C
  H43      1.0000 0.74700  0.27410  0.86000  Biso   1.000  H
  N43      1.0000 0.83070  0.32610  0.95590  Biso   1.000  N
  C340     1.0000 0.82590  0.27980  0.94240  Biso   1.000  C
  C341     1.0000 0.81520  0.24600  0.97540  Biso   1.000  C
  C342     1.0000 0.80940  0.25840  0.02180  Biso   1.000  C
  C343     1.0000 0.81430  0.30470  0.03530  Biso   1.000  C
  C344     1.0000 0.82490  0.33850  0.00240  Biso   1.000  C
  O85      1.0000 0.80170  0.33830  0.86360  Biso   1.000  O
  O86      1.0000 0.80020  0.38010  0.79780  Biso   1.000  O
  C345     1.0000 0.21520  0.84870  0.67510  Biso   1.000  C
  C346     1.0000 0.25660  0.82050  0.69120  Biso   1.000  C
  C347     1.0000 0.27000  0.78270  0.66620  Biso   1.000  C
  H44      1.0000 0.25300  0.77410  0.64000  Biso   1.000  H
  N44      1.0000 0.16930  0.82610  0.54410  Biso   1.000  N
  C348     1.0000 0.17410  0.77980  0.55760  Biso   1.000  C
  C349     1.0000 0.18480  0.74600  0.52460  Biso   1.000  C
  C350     1.0000 0.19060  0.75840  0.47820  Biso   1.000  C
  C351     1.0000 0.18570  0.80470  0.46470  Biso   1.000  C
  C352     1.0000 0.17510  0.83850  0.49760  Biso   1.000  C
  O87      1.0000 0.19830  0.83830  0.63640  Biso   1.000  O
  O88      1.0000 0.19980  0.88010  0.70220  Biso   1.000  O
  C353     1.0000 0.15130  0.17510  0.28480  Biso   1.000  C
  C354     1.0000 0.17950  0.19120  0.24340  Biso   1.000  C
  C355     1.0000 0.21730  0.16620  0.23000  Biso   1.000  C
  H45      1.0000 0.22590  0.14000  0.24700  Biso   1.000  H
  N45      1.0000 0.17390  0.04410  0.33070  Biso   1.000  N
  C356     1.0000 0.22020  0.05760  0.32590  Biso   1.000  C
  C357     1.0000 0.25400  0.02460  0.31520  Biso   1.000  C
  C358     1.0000 0.24160  0.97820  0.30940  Biso   1.000  C
  C359     1.0000 0.19530  0.96470  0.31430  Biso   1.000  C
  C360     1.0000 0.16150  0.99760  0.32490  Biso   1.000  C
  O89      1.0000 0.16170  0.13640  0.30170  Biso   1.000  O
  O90      1.0000 0.11990  0.20220  0.30020  Biso   1.000  O
  C361     1.0000 0.65130  0.32490  0.71520  Biso   1.000  C
  C362     1.0000 0.67950  0.30880  0.75660  Biso   1.000  C
  C363     1.0000 0.71730  0.33380  0.77000  Biso   1.000  C
  H46      1.0000 0.72590  0.36000  0.75300  Biso   1.000  H
  N46      1.0000 0.67390  0.45590  0.66930  Biso   1.000  N
  C364     1.0000 0.72020  0.44240  0.67410  Biso   1.000  C
  C365     1.0000 0.75400  0.47540  0.68480  Biso   1.000  C
  C366     1.0000 0.74160  0.52180  0.69060  Biso   1.000  C
  C367     1.0000 0.69530  0.53530  0.68570  Biso   1.000  C
  C368     1.0000 0.66150  0.50240  0.67510  Biso   1.000  C
  O91      1.0000 0.66170  0.36360  0.69830  Biso   1.000  O
  O92      1.0000 0.61990  0.29780  0.69980  Biso   1.000  O
  C369     1.0000 0.84870  0.67510  0.21520  Biso   1.000  C
  C370     1.0000 0.82050  0.69120  0.25660  Biso   1.000  C
  C371     1.0000 0.78270  0.66620  0.27000  Biso   1.000  C
  H47      1.0000 0.77410  0.64000  0.25300  Biso   1.000  H
  N47      1.0000 0.82610  0.54410  0.16930  Biso   1.000  N
  C372     1.0000 0.77980  0.55760  0.17410  Biso   1.000  C
  C373     1.0000 0.74600  0.52460  0.18480  Biso   1.000  C
  C374     1.0000 0.75840  0.47820  0.19060  Biso   1.000  C
  C375     1.0000 0.80470  0.46470  0.18570  Biso   1.000  C
  C376     1.0000 0.83850  0.49760  0.17510  Biso   1.000  C
  O93      1.0000 0.83830  0.63640  0.19830  Biso   1.000  O
  O94      1.0000 0.88010  0.70220  0.19980  Biso   1.000  O
  C377     1.0000 0.34870  0.82490  0.78480  Biso   1.000  C
  C378     1.0000 0.32050  0.80880  0.74340  Biso   1.000  C
  C379     1.0000 0.28270  0.83380  0.73000  Biso   1.000  C
  H48      1.0000 0.27410  0.86000  0.74700  Biso   1.000  H
  N48      1.0000 0.32610  0.95590  0.83070  Biso   1.000  N
  C380     1.0000 0.27980  0.94240  0.82590  Biso   1.000  C
  C381     1.0000 0.24600  0.97540  0.81520  Biso   1.000  C
  C382     1.0000 0.25840  0.02180  0.80940  Biso   1.000  C
  C383     1.0000 0.30470  0.03530  0.81430  Biso   1.000  C
  C384     1.0000 0.33850  0.00240  0.82490  Biso   1.000  C
  O95      1.0000 0.33830  0.86360  0.80170  Biso   1.000  O
  O96      1.0000 0.38010  0.79780  0.80020  Biso   1.000  O
  Ni13     1.0000 0.90420  0.84580  0.37500  Biso   1.000  Ni
  Ni14     1.0000 0.59580  0.15420  0.87500  Biso   1.000  Ni
  Ni15     1.0000 0.09580  0.34580  0.12500  Biso   1.000  Ni
  Ni16     1.0000 0.40420  0.65420  0.62500  Biso   1.000  Ni
  Ni17     1.0000 0.37500  0.90420  0.84580  Biso   1.000  Ni
  Ni18     1.0000 0.87500  0.59580  0.15420  Biso   1.000  Ni
  Ni19     1.0000 0.12500  0.09580  0.34580  Biso   1.000  Ni
  Ni20     1.0000 0.62500  0.40420  0.65420  Biso   1.000  Ni
  Ni21     1.0000 0.84580  0.37500  0.90420  Biso   1.000  Ni
  Ni22     1.0000 0.15420  0.87500  0.59580  Biso   1.000  Ni
  Ni23     1.0000 0.34580  0.12500  0.09580  Biso   1.000  Ni
  Ni24     1.0000 0.65420  0.62500  0.40420  Biso   1.000  Ni
