data_image0
_cell_length_a       17.98
_cell_length_b       11.711
_cell_length_c       19.921
_cell_angle_alpha    90
_cell_angle_beta     110.97
_cell_angle_gamma    90

_symmetry_space_group_name_H-M    "P 1"
_symmetry_int_tables_number       1

loop_
  _symmetry_equiv_pos_as_xyz
  'x, y, z'

loop_
  _atom_site_label
  _atom_site_occupancy
  _atom_site_fract_x
  _atom_site_fract_y
  _atom_site_fract_z
  _atom_site_thermal_displace_type
  _atom_site_B_iso_or_equiv
  _atom_site_type_symbol
  C1       1.0000 0.02740  0.21930  0.24870  Biso   1.000  C
  C2       1.0000 0.03230  0.28800  0.19210  Biso   1.000  C
  H1       1.0000 0.98900  0.33370  0.16680  Biso   1.000  H
  C3       1.0000 0.95490  0.38440  0.43660  Biso   1.000  C
  C4       1.0000 0.94260  0.29940  0.48010  Biso   1.000  C
  H2       1.0000 0.98290  0.24650  0.50060  Biso   1.000  H
  O1       1.0000 0.48360  0.21920  0.45720  Biso   1.000  O
  O2       1.0000 0.50840  0.33330  0.20590  Biso   1.000  O
  C5       1.0000 0.49060  0.13030  0.09990  Biso   1.000  C
  H3       1.0000 0.49330  0.20890  0.09430  Biso   1.000  H
  C6       1.0000 0.48360  0.18720  0.40030  Biso   1.000  C
  H4       1.0000 0.48020  0.10900  0.39140  Biso   1.000  H
  C7       1.0000 0.50400  0.42290  0.23060  Biso   1.000  C
  H5       1.0000 0.47920  0.42610  0.26420  Biso   1.000  H
  C8       1.0000 0.32060  0.38880  0.42440  Biso   1.000  C
  H6       1.0000 0.33160  0.36010  0.47050  Biso   1.000  H
  C9       1.0000 0.33540  0.45030  0.32850  Biso   1.000  C
  H7       1.0000 0.35890  0.47140  0.29560  Biso   1.000  H
  C10      1.0000 0.25540  0.45600  0.31690  Biso   1.000  C
  H8       1.0000 0.21520  0.48210  0.27570  Biso   1.000  H
  C11      1.0000 0.17350  0.40870  0.39370  Biso   1.000  C
  C12      1.0000 0.16380  0.32340  0.43730  Biso   1.000  C
  H9       1.0000 0.20390  0.26990  0.45700  Biso   1.000  H
  C13      1.0000 0.09280  0.31720  0.45220  Biso   1.000  C
  H10      1.0000 0.08750  0.26110  0.48320  Biso   1.000  H
  C14      1.0000 0.03030  0.39380  0.42100  Biso   1.000  C
  C15      1.0000 0.04160  0.47670  0.37640  Biso   1.000  C
  H11      1.0000 0.00110  0.52920  0.35530  Biso   1.000  H
  C16      1.0000 0.11280  0.48450  0.36170  Biso   1.000  C
  H12      1.0000 0.11840  0.54030  0.33060  Biso   1.000  H
  C17      1.0000 0.89160  0.46200  0.40830  Biso   1.000  C
  H13      1.0000 0.89640  0.52020  0.37840  Biso   1.000  H
  C18      1.0000 0.66790  0.39520  0.44920  Biso   1.000  C
  H14      1.0000 0.65430  0.43560  0.40630  Biso   1.000  H
  C19      1.0000 0.66050  0.30770  0.54120  Biso   1.000  C
  H15      1.0000 0.64040  0.27570  0.57390  Biso   1.000  H
  C20      1.0000 0.73700  0.30220  0.54550  Biso   1.000  C
  H16      1.0000 0.77890  0.26750  0.58180  Biso   1.000  H
  C21      1.0000 0.81330  0.36760  0.46710  Biso   1.000  C
  C22      1.0000 0.87320  0.28980  0.49440  Biso   1.000  C
  H17      1.0000 0.86710  0.23010  0.52270  Biso   1.000  H
  C23      1.0000 0.82210  0.45470  0.42330  Biso   1.000  C
  H18      1.0000 0.78170  0.50790  0.40410  Biso   1.000  H
  C24      1.0000 0.31030  0.18730  0.23330  Biso   1.000  C
  H19      1.0000 0.32120  0.14650  0.27580  Biso   1.000  H
  C25      1.0000 0.32430  0.27340  0.14230  Biso   1.000  C
  H20      1.0000 0.34700  0.30240  0.11070  Biso   1.000  H
  C26      1.0000 0.24650  0.28470  0.13500  Biso   1.000  C
  H21      1.0000 0.20720  0.32250  0.09800  Biso   1.000  H
  C27      1.0000 0.16640  0.22420  0.21090  Biso   1.000  C
  C28      1.0000 0.09930  0.28980  0.17290  Biso   1.000  C
  H22      1.0000 0.09960  0.33480  0.13450  Biso   1.000  H
  C29      1.0000 0.16310  0.15640  0.26700  Biso   1.000  C
  H23      1.0000 0.20690  0.11230  0.29330  Biso   1.000  H
  C30      1.0000 0.66510  0.20580  0.27050  Biso   1.000  C
  H24      1.0000 0.65400  0.25040  0.22950  Biso   1.000  H
  C31      1.0000 0.65270  0.10720  0.35750  Biso   1.000  C
  H25      1.0000 0.63020  0.07210  0.38750  Biso   1.000  H
  C32      1.0000 0.73100  0.10780  0.36860  Biso   1.000  C
  H26      1.0000 0.77120  0.07220  0.40580  Biso   1.000  H
  C33      1.0000 0.81250  0.18960  0.29890  Biso   1.000  C
  C34      1.0000 0.81810  0.27450  0.25130  Biso   1.000  C
  H27      1.0000 0.77550  0.32340  0.22950  Biso   1.000  H
  C35      1.0000 0.88820  0.28490  0.23690  Biso   1.000  C
  H28      1.0000 0.89140  0.34150  0.20530  Biso   1.000  H
  C36      1.0000 0.95390  0.21380  0.26810  Biso   1.000  C
  C37      1.0000 0.94670  0.13150  0.31630  Biso   1.000  C
  H29      1.0000 0.98950  0.08320  0.33860  Biso   1.000  H
  C38      1.0000 0.87770  0.11930  0.33210  Biso   1.000  C
  H30      1.0000 0.87520  0.06410  0.36480  Biso   1.000  H
  C39      1.0000 0.09490  0.15440  0.28370  Biso   1.000  C
  H31      1.0000 0.09410  0.10670  0.32070  Biso   1.000  H
  N1       1.0000 0.37510  0.40830  0.39630  Biso   1.000  N
  N2       1.0000 0.24650  0.41530  0.37870  Biso   1.000  N
  N3       1.0000 0.61670  0.36890  0.48020  Biso   1.000  N
  N4       1.0000 0.74160  0.35780  0.48570  Biso   1.000  N
  N5       1.0000 0.36430  0.21220  0.20390  Biso   1.000  N
  N6       1.0000 0.23650  0.22950  0.19290  Biso   1.000  N
  N7       1.0000 0.60980  0.16630  0.29480  Biso   1.000  N
  N8       1.0000 0.73980  0.17280  0.31300  Biso   1.000  N
  Ni1      1.0000 0.48692  0.18400  0.24903  Biso   1.000  Ni
  Ni2      1.0000 0.49615  0.39063  0.44726  Biso   1.000  Ni
  O3       1.0000 0.49220  0.06890  0.04880  Biso   1.000  O
  O4       1.0000 0.48590  0.09620  0.15690  Biso   1.000  O
  O5       1.0000 0.53190  0.52080  0.21430  Biso   1.000  O
  O6       1.0000 0.48840  0.25700  0.34810  Biso   1.000  O
  C40      1.0000 0.97260  0.71930  0.25130  Biso   1.000  C
  C41      1.0000 0.96770  0.78800  0.30790  Biso   1.000  C
  H32      1.0000 0.01100  0.83370  0.33320  Biso   1.000  H
  C42      1.0000 0.04510  0.88440  0.06340  Biso   1.000  C
  C43      1.0000 0.05740  0.79940  0.01990  Biso   1.000  C
  H33      1.0000 0.01710  0.74650  0.99940  Biso   1.000  H
  O7       1.0000 0.51640  0.71920  0.04280  Biso   1.000  O
  O8       1.0000 0.49160  0.83330  0.29410  Biso   1.000  O
  C44      1.0000 0.50940  0.63030  0.40010  Biso   1.000  C
  H34      1.0000 0.50670  0.70890  0.40570  Biso   1.000  H
  C45      1.0000 0.51640  0.68720  0.09970  Biso   1.000  C
  H35      1.0000 0.51980  0.60900  0.10860  Biso   1.000  H
  C46      1.0000 0.49600  0.92290  0.26940  Biso   1.000  C
  H36      1.0000 0.52080  0.92610  0.23580  Biso   1.000  H
  C47      1.0000 0.67940  0.88880  0.07560  Biso   1.000  C
  H37      1.0000 0.66840  0.86010  0.02950  Biso   1.000  H
  C48      1.0000 0.66460  0.95030  0.17150  Biso   1.000  C
  H38      1.0000 0.64110  0.97140  0.20440  Biso   1.000  H
  C49      1.0000 0.74460  0.95600  0.18310  Biso   1.000  C
  H39      1.0000 0.78480  0.98210  0.22430  Biso   1.000  H
  C50      1.0000 0.82650  0.90870  0.10630  Biso   1.000  C
  C51      1.0000 0.83620  0.82340  0.06270  Biso   1.000  C
  H40      1.0000 0.79610  0.76990  0.04300  Biso   1.000  H
  C52      1.0000 0.90720  0.81720  0.04780  Biso   1.000  C
  H41      1.0000 0.91250  0.76110  0.01680  Biso   1.000  H
  C53      1.0000 0.96970  0.89380  0.07900  Biso   1.000  C
  C54      1.0000 0.95840  0.97670  0.12360  Biso   1.000  C
  H42      1.0000 0.99890  0.02920  0.14470  Biso   1.000  H
  C55      1.0000 0.88720  0.98450  0.13830  Biso   1.000  C
  H43      1.0000 0.88160  0.04030  0.16940  Biso   1.000  H
  C56      1.0000 0.10840  0.96200  0.09170  Biso   1.000  C
  H44      1.0000 0.10360  0.02020  0.12160  Biso   1.000  H
  C57      1.0000 0.33210  0.89520  0.05080  Biso   1.000  C
  H45      1.0000 0.34570  0.93560  0.09370  Biso   1.000  H
  C58      1.0000 0.33950  0.80770  0.95880  Biso   1.000  C
  H46      1.0000 0.35960  0.77570  0.92610  Biso   1.000  H
  C59      1.0000 0.26300  0.80220  0.95450  Biso   1.000  C
  H47      1.0000 0.22110  0.76750  0.91820  Biso   1.000  H
  C60      1.0000 0.18670  0.86760  0.03290  Biso   1.000  C
  C61      1.0000 0.12680  0.78980  0.00560  Biso   1.000  C
  H48      1.0000 0.13290  0.73010  0.97730  Biso   1.000  H
  C62      1.0000 0.17790  0.95470  0.07670  Biso   1.000  C
  H49      1.0000 0.21830  0.00790  0.09590  Biso   1.000  H
  C63      1.0000 0.68970  0.68730  0.26670  Biso   1.000  C
  H50      1.0000 0.67880  0.64650  0.22420  Biso   1.000  H
  C64      1.0000 0.67570  0.77340  0.35770  Biso   1.000  C
  H51      1.0000 0.65300  0.80240  0.38930  Biso   1.000  H
  C65      1.0000 0.75350  0.78470  0.36500  Biso   1.000  C
  H52      1.0000 0.79280  0.82250  0.40200  Biso   1.000  H
  C66      1.0000 0.83360  0.72420  0.28910  Biso   1.000  C
  C67      1.0000 0.90070  0.78980  0.32710  Biso   1.000  C
  H53      1.0000 0.90040  0.83480  0.36550  Biso   1.000  H
  C68      1.0000 0.83690  0.65640  0.23300  Biso   1.000  C
  H54      1.0000 0.79310  0.61230  0.20670  Biso   1.000  H
  C69      1.0000 0.33490  0.70580  0.22950  Biso   1.000  C
  H55      1.0000 0.34600  0.75040  0.27050  Biso   1.000  H
  C70      1.0000 0.34730  0.60720  0.14250  Biso   1.000  C
  H56      1.0000 0.36980  0.57210  0.11250  Biso   1.000  H
  C71      1.0000 0.26900  0.60780  0.13140  Biso   1.000  C
  H57      1.0000 0.22880  0.57220  0.09420  Biso   1.000  H
  C72      1.0000 0.18750  0.68960  0.20110  Biso   1.000  C
  C73      1.0000 0.18190  0.77450  0.24870  Biso   1.000  C
  H58      1.0000 0.22450  0.82340  0.27050  Biso   1.000  H
  C74      1.0000 0.11180  0.78490  0.26310  Biso   1.000  C
  H59      1.0000 0.10860  0.84150  0.29470  Biso   1.000  H
  C75      1.0000 0.04610  0.71380  0.23190  Biso   1.000  C
  C76      1.0000 0.05330  0.63150  0.18370  Biso   1.000  C
  H60      1.0000 0.01050  0.58320  0.16140  Biso   1.000  H
  C77      1.0000 0.12230  0.61930  0.16790  Biso   1.000  C
  H61      1.0000 0.12480  0.56410  0.13520  Biso   1.000  H
  C78      1.0000 0.90510  0.65440  0.21630  Biso   1.000  C
  H62      1.0000 0.90590  0.60670  0.17930  Biso   1.000  H
  N9       1.0000 0.62490  0.90830  0.10370  Biso   1.000  N
  N10      1.0000 0.75350  0.91530  0.12130  Biso   1.000  N
  N11      1.0000 0.38330  0.86890  0.01980  Biso   1.000  N
  N12      1.0000 0.25840  0.85780  0.01430  Biso   1.000  N
  N13      1.0000 0.63570  0.71220  0.29610  Biso   1.000  N
  N14      1.0000 0.76350  0.72950  0.30710  Biso   1.000  N
  N15      1.0000 0.39020  0.66630  0.20520  Biso   1.000  N
  N16      1.0000 0.26020  0.67280  0.18700  Biso   1.000  N
  Ni3      1.0000 0.51308  0.68400  0.25097  Biso   1.000  Ni
  Ni4      1.0000 0.50385  0.89063  0.05274  Biso   1.000  Ni
  O9       1.0000 0.50780  0.56890  0.45120  Biso   1.000  O
  O10      1.0000 0.51410  0.59620  0.34310  Biso   1.000  O
  O11      1.0000 0.46810  0.02080  0.28570  Biso   1.000  O
  O12      1.0000 0.51160  0.75700  0.15190  Biso   1.000  O
  C79      1.0000 0.97260  0.78070  0.75130  Biso   1.000  C
  C80      1.0000 0.96770  0.71200  0.80790  Biso   1.000  C
  H63      1.0000 0.01100  0.66630  0.83320  Biso   1.000  H
  C81      1.0000 0.04510  0.61560  0.56340  Biso   1.000  C
  C82      1.0000 0.05740  0.70060  0.51990  Biso   1.000  C
  H64      1.0000 0.01710  0.75350  0.49940  Biso   1.000  H
  O13      1.0000 0.51640  0.78080  0.54280  Biso   1.000  O
  O14      1.0000 0.49160  0.66670  0.79410  Biso   1.000  O
  C83      1.0000 0.50940  0.86970  0.90010  Biso   1.000  C
  H65      1.0000 0.50670  0.79110  0.90570  Biso   1.000  H
  C84      1.0000 0.51640  0.81280  0.59970  Biso   1.000  C
  H66      1.0000 0.51980  0.89100  0.60860  Biso   1.000  H
  C85      1.0000 0.49600  0.57710  0.76940  Biso   1.000  C
  H67      1.0000 0.52080  0.57390  0.73580  Biso   1.000  H
  C86      1.0000 0.67940  0.61120  0.57560  Biso   1.000  C
  H68      1.0000 0.66840  0.63990  0.52950  Biso   1.000  H
  C87      1.0000 0.66460  0.54970  0.67150  Biso   1.000  C
  H69      1.0000 0.64110  0.52860  0.70440  Biso   1.000  H
  C88      1.0000 0.74460  0.54400  0.68310  Biso   1.000  C
  H70      1.0000 0.78480  0.51790  0.72430  Biso   1.000  H
  C89      1.0000 0.82650  0.59130  0.60630  Biso   1.000  C
  C90      1.0000 0.83620  0.67660  0.56270  Biso   1.000  C
  H71      1.0000 0.79610  0.73010  0.54300  Biso   1.000  H
  C91      1.0000 0.90720  0.68280  0.54780  Biso   1.000  C
  H72      1.0000 0.91250  0.73890  0.51680  Biso   1.000  H
  C92      1.0000 0.96970  0.60620  0.57900  Biso   1.000  C
  C93      1.0000 0.95840  0.52330  0.62360  Biso   1.000  C
  H73      1.0000 0.99890  0.47080  0.64470  Biso   1.000  H
  C94      1.0000 0.88720  0.51550  0.63830  Biso   1.000  C
  H74      1.0000 0.88160  0.45970  0.66940  Biso   1.000  H
  C95      1.0000 0.10840  0.53800  0.59170  Biso   1.000  C
  H75      1.0000 0.10360  0.47980  0.62160  Biso   1.000  H
  C96      1.0000 0.33210  0.60480  0.55080  Biso   1.000  C
  H76      1.0000 0.34570  0.56440  0.59370  Biso   1.000  H
  C97      1.0000 0.33950  0.69230  0.45880  Biso   1.000  C
  H77      1.0000 0.35960  0.72430  0.42610  Biso   1.000  H
  C98      1.0000 0.26300  0.69780  0.45450  Biso   1.000  C
  H78      1.0000 0.22110  0.73250  0.41820  Biso   1.000  H
  C99      1.0000 0.18670  0.63240  0.53290  Biso   1.000  C
  C100     1.0000 0.12680  0.71020  0.50560  Biso   1.000  C
  H79      1.0000 0.13290  0.76990  0.47730  Biso   1.000  H
  C101     1.0000 0.17790  0.54530  0.57670  Biso   1.000  C
  H80      1.0000 0.21830  0.49210  0.59590  Biso   1.000  H
  C102     1.0000 0.68970  0.81270  0.76670  Biso   1.000  C
  H81      1.0000 0.67880  0.85350  0.72420  Biso   1.000  H
  C103     1.0000 0.67570  0.72660  0.85770  Biso   1.000  C
  H82      1.0000 0.65300  0.69760  0.88930  Biso   1.000  H
  C104     1.0000 0.75350  0.71530  0.86500  Biso   1.000  C
  H83      1.0000 0.79280  0.67750  0.90200  Biso   1.000  H
  C105     1.0000 0.83360  0.77580  0.78910  Biso   1.000  C
  C106     1.0000 0.90070  0.71020  0.82710  Biso   1.000  C
  H84      1.0000 0.90040  0.66520  0.86550  Biso   1.000  H
  C107     1.0000 0.83690  0.84360  0.73300  Biso   1.000  C
  H85      1.0000 0.79310  0.88770  0.70670  Biso   1.000  H
  C108     1.0000 0.33490  0.79420  0.72950  Biso   1.000  C
  H86      1.0000 0.34600  0.74960  0.77050  Biso   1.000  H
  C109     1.0000 0.34730  0.89280  0.64250  Biso   1.000  C
  H87      1.0000 0.36980  0.92790  0.61250  Biso   1.000  H
  C110     1.0000 0.26900  0.89220  0.63140  Biso   1.000  C
  H88      1.0000 0.22880  0.92780  0.59420  Biso   1.000  H
  C111     1.0000 0.18750  0.81040  0.70110  Biso   1.000  C
  C112     1.0000 0.18190  0.72550  0.74870  Biso   1.000  C
  H89      1.0000 0.22450  0.67660  0.77050  Biso   1.000  H
  C113     1.0000 0.11180  0.71510  0.76310  Biso   1.000  C
  H90      1.0000 0.10860  0.65850  0.79470  Biso   1.000  H
  C114     1.0000 0.04610  0.78620  0.73190  Biso   1.000  C
  C115     1.0000 0.05330  0.86850  0.68370  Biso   1.000  C
  H91      1.0000 0.01050  0.91680  0.66140  Biso   1.000  H
  C116     1.0000 0.12230  0.88070  0.66790  Biso   1.000  C
  H92      1.0000 0.12480  0.93590  0.63520  Biso   1.000  H
  C117     1.0000 0.90510  0.84560  0.71630  Biso   1.000  C
  H93      1.0000 0.90590  0.89330  0.67930  Biso   1.000  H
  N17      1.0000 0.62490  0.59170  0.60370  Biso   1.000  N
  N18      1.0000 0.75350  0.58470  0.62130  Biso   1.000  N
  N19      1.0000 0.38330  0.63110  0.51980  Biso   1.000  N
  N20      1.0000 0.25840  0.64220  0.51430  Biso   1.000  N
  N21      1.0000 0.63570  0.78780  0.79610  Biso   1.000  N
  N22      1.0000 0.76350  0.77050  0.80710  Biso   1.000  N
  N23      1.0000 0.39020  0.83370  0.70520  Biso   1.000  N
  N24      1.0000 0.26020  0.82720  0.68700  Biso   1.000  N
  Ni5      1.0000 0.51308  0.81600  0.75097  Biso   1.000  Ni
  Ni6      1.0000 0.50385  0.60937  0.55274  Biso   1.000  Ni
  O15      1.0000 0.50780  0.93110  0.95120  Biso   1.000  O
  O16      1.0000 0.51410  0.90380  0.84310  Biso   1.000  O
  O17      1.0000 0.46810  0.47920  0.78570  Biso   1.000  O
  O18      1.0000 0.51160  0.74300  0.65190  Biso   1.000  O
  C118     1.0000 0.02740  0.28070  0.74870  Biso   1.000  C
  C119     1.0000 0.03230  0.21200  0.69210  Biso   1.000  C
  H94      1.0000 0.98900  0.16630  0.66680  Biso   1.000  H
  C120     1.0000 0.95490  0.11560  0.93660  Biso   1.000  C
  C121     1.0000 0.94260  0.20060  0.98010  Biso   1.000  C
  H95      1.0000 0.98290  0.25350  0.00060  Biso   1.000  H
  O19      1.0000 0.48360  0.28080  0.95720  Biso   1.000  O
  O20      1.0000 0.50840  0.16670  0.70590  Biso   1.000  O
  C122     1.0000 0.49060  0.36970  0.59990  Biso   1.000  C
  H96      1.0000 0.49330  0.29110  0.59430  Biso   1.000  H
  C123     1.0000 0.48360  0.31280  0.90030  Biso   1.000  C
  H97      1.0000 0.48020  0.39100  0.89140  Biso   1.000  H
  C124     1.0000 0.50400  0.07710  0.73060  Biso   1.000  C
  H98      1.0000 0.47920  0.07390  0.76420  Biso   1.000  H
  C125     1.0000 0.32060  0.11120  0.92440  Biso   1.000  C
  H99      1.0000 0.33160  0.13990  0.97050  Biso   1.000  H
  C126     1.0000 0.33540  0.04970  0.82850  Biso   1.000  C
  H100     1.0000 0.35890  0.02860  0.79560  Biso   1.000  H
  C127     1.0000 0.25540  0.04400  0.81690  Biso   1.000  C
  H101     1.0000 0.21520  0.01790  0.77570  Biso   1.000  H
  C128     1.0000 0.17350  0.09130  0.89370  Biso   1.000  C
  C129     1.0000 0.16380  0.17660  0.93730  Biso   1.000  C
  H102     1.0000 0.20390  0.23010  0.95700  Biso   1.000  H
  C130     1.0000 0.09280  0.18280  0.95220  Biso   1.000  C
  H103     1.0000 0.08750  0.23890  0.98320  Biso   1.000  H
  C131     1.0000 0.03030  0.10620  0.92100  Biso   1.000  C
  C132     1.0000 0.04160  0.02330  0.87640  Biso   1.000  C
  H104     1.0000 0.00110  0.97080  0.85530  Biso   1.000  H
  C133     1.0000 0.11280  0.01550  0.86170  Biso   1.000  C
  H105     1.0000 0.11840  0.95970  0.83060  Biso   1.000  H
  C134     1.0000 0.89160  0.03800  0.90830  Biso   1.000  C
  H106     1.0000 0.89640  0.97980  0.87840  Biso   1.000  H
  C135     1.0000 0.66790  0.10480  0.94920  Biso   1.000  C
  H107     1.0000 0.65430  0.06440  0.90630  Biso   1.000  H
  C136     1.0000 0.66050  0.19230  0.04120  Biso   1.000  C
  H108     1.0000 0.64040  0.22430  0.07390  Biso   1.000  H
  C137     1.0000 0.73700  0.19780  0.04550  Biso   1.000  C
  H109     1.0000 0.77890  0.23250  0.08180  Biso   1.000  H
  C138     1.0000 0.81330  0.13240  0.96710  Biso   1.000  C
  C139     1.0000 0.87320  0.21020  0.99440  Biso   1.000  C
  H110     1.0000 0.86710  0.26990  0.02270  Biso   1.000  H
  C140     1.0000 0.82210  0.04530  0.92330  Biso   1.000  C
  H111     1.0000 0.78170  0.99210  0.90410  Biso   1.000  H
  C141     1.0000 0.31030  0.31270  0.73330  Biso   1.000  C
  H112     1.0000 0.32120  0.35350  0.77580  Biso   1.000  H
  C142     1.0000 0.32430  0.22660  0.64230  Biso   1.000  C
  H113     1.0000 0.34700  0.19760  0.61070  Biso   1.000  H
  C143     1.0000 0.24650  0.21530  0.63500  Biso   1.000  C
  H114     1.0000 0.20720  0.17750  0.59800  Biso   1.000  H
  C144     1.0000 0.16640  0.27580  0.71090  Biso   1.000  C
  C145     1.0000 0.09930  0.21020  0.67290  Biso   1.000  C
  H115     1.0000 0.09960  0.16520  0.63450  Biso   1.000  H
  C146     1.0000 0.16310  0.34360  0.76700  Biso   1.000  C
  H116     1.0000 0.20690  0.38770  0.79330  Biso   1.000  H
  C147     1.0000 0.66510  0.29420  0.77050  Biso   1.000  C
  H117     1.0000 0.65400  0.24960  0.72950  Biso   1.000  H
  C148     1.0000 0.65270  0.39280  0.85750  Biso   1.000  C
  H118     1.0000 0.63020  0.42790  0.88750  Biso   1.000  H
  C149     1.0000 0.73100  0.39220  0.86860  Biso   1.000  C
  H119     1.0000 0.77120  0.42780  0.90580  Biso   1.000  H
  C150     1.0000 0.81250  0.31040  0.79890  Biso   1.000  C
  C151     1.0000 0.81810  0.22550  0.75130  Biso   1.000  C
  H120     1.0000 0.77550  0.17660  0.72950  Biso   1.000  H
  C152     1.0000 0.88820  0.21510  0.73690  Biso   1.000  C
  H121     1.0000 0.89140  0.15850  0.70530  Biso   1.000  H
  C153     1.0000 0.95390  0.28620  0.76810  Biso   1.000  C
  C154     1.0000 0.94670  0.36850  0.81630  Biso   1.000  C
  H122     1.0000 0.98950  0.41680  0.83860  Biso   1.000  H
  C155     1.0000 0.87770  0.38070  0.83210  Biso   1.000  C
  H123     1.0000 0.87520  0.43590  0.86480  Biso   1.000  H
  C156     1.0000 0.09490  0.34560  0.78370  Biso   1.000  C
  H124     1.0000 0.09410  0.39330  0.82070  Biso   1.000  H
  N25      1.0000 0.37510  0.09170  0.89630  Biso   1.000  N
  N26      1.0000 0.24650  0.08470  0.87870  Biso   1.000  N
  N27      1.0000 0.61670  0.13110  0.98020  Biso   1.000  N
  N28      1.0000 0.74160  0.14220  0.98570  Biso   1.000  N
  N29      1.0000 0.36430  0.28780  0.70390  Biso   1.000  N
  N30      1.0000 0.23650  0.27050  0.69290  Biso   1.000  N
  N31      1.0000 0.60980  0.33370  0.79480  Biso   1.000  N
  N32      1.0000 0.73980  0.32720  0.81300  Biso   1.000  N
  Ni7      1.0000 0.48692  0.31600  0.74903  Biso   1.000  Ni
  Ni8      1.0000 0.49615  0.10937  0.94726  Biso   1.000  Ni
  O21      1.0000 0.49220  0.43110  0.54880  Biso   1.000  O
  O22      1.0000 0.48590  0.40380  0.65690  Biso   1.000  O
  O23      1.0000 0.53190  0.97920  0.71430  Biso   1.000  O
  O24      1.0000 0.48840  0.24300  0.84810  Biso   1.000  O
