data_image0
_cell_length_a       17.884
_cell_length_b       11.797
_cell_length_c       20.243
_cell_angle_alpha    90
_cell_angle_beta     111.77
_cell_angle_gamma    90

_symmetry_space_group_name_H-M    "P 1"
_symmetry_int_tables_number       1

loop_
  _symmetry_equiv_pos_as_xyz
  'x, y, z'

loop_
  _atom_site_label
  _atom_site_occupancy
  _atom_site_fract_x
  _atom_site_fract_y
  _atom_site_fract_z
  _atom_site_thermal_displace_type
  _atom_site_B_iso_or_equiv
  _atom_site_type_symbol
  C1       1.0000 0.50970  0.36820  0.40120  Biso   1.000  C
  H1       1.0000 0.50930  0.28980  0.40560  Biso   1.000  H
  C2       1.0000 0.51600  0.31920  0.10230  Biso   1.000  C
  H2       1.0000 0.51850  0.39740  0.10830  Biso   1.000  H
  C3       1.0000 0.50540  0.57860  0.23240  Biso   1.000  C
  H3       1.0000 0.48100  0.57410  0.26570  Biso   1.000  H
  C4       1.0000 0.68120  0.10760  0.07810  Biso   1.000  C
  H4       1.0000 0.66880  0.13330  0.03190  Biso   1.000  H
  C5       1.0000 0.67020  0.05190  0.17450  Biso   1.000  C
  H5       1.0000 0.64830  0.03250  0.20810  Biso   1.000  H
  C6       1.0000 0.74880  0.04740  0.18480  Biso   1.000  C
  H6       1.0000 0.79050  0.02350  0.22580  Biso   1.000  H
  C7       1.0000 0.82830  0.09110  0.10850  Biso   1.000  C
  C8       1.0000 0.89020  0.01710  0.14040  Biso   1.000  C
  H7       1.0000 0.88540  0.96210  0.17160  Biso   1.000  H
  C9       1.0000 0.95990  0.02440  0.12610  Biso   1.000  C
  H8       1.0000 0.00160  0.97360  0.14790  Biso   1.000  H
  C10      1.0000 0.96960  0.10520  0.08030  Biso   1.000  C
  C11      1.0000 0.90610  0.17940  0.04980  Biso   1.000  C
  H9       1.0000 0.91050  0.23480  0.01880  Biso   1.000  H
  C12      1.0000 0.83650  0.17380  0.06390  Biso   1.000  C
  H10      1.0000 0.79530  0.22590  0.04340  Biso   1.000  H
  C13      1.0000 0.33120  0.10200  0.05510  Biso   1.000  C
  H11      1.0000 0.34560  0.06230  0.09780  Biso   1.000  H
  C14      1.0000 0.33670  0.18540  0.96370  Biso   1.000  C
  H12      1.0000 0.35630  0.21460  0.93060  Biso   1.000  H
  C15      1.0000 0.26050  0.19400  0.95970  Biso   1.000  C
  H13      1.0000 0.21830  0.22960  0.92380  Biso   1.000  H
  C16      1.0000 0.18550  0.13110  0.03570  Biso   1.000  C
  C17      1.0000 0.12360  0.20580  0.00690  Biso   1.000  C
  H14      1.0000 0.12810  0.26340  0.97720  Biso   1.000  H
  C18      1.0000 0.05500  0.19670  0.02130  Biso   1.000  C
  H15      1.0000 0.01370  0.24870  0.00100  Biso   1.000  H
  C19      1.0000 0.04490  0.11320  0.06500  Biso   1.000  C
  C20      1.0000 0.10880  0.03920  0.09420  Biso   1.000  C
  H16      1.0000 0.10500  0.98230  0.12470  Biso   1.000  H
  C21      1.0000 0.17820  0.04760  0.07940  Biso   1.000  C
  H17      1.0000 0.21990  0.99620  0.09930  Biso   1.000  H
  C22      1.0000 0.33180  0.30410  0.22810  Biso   1.000  C
  H18      1.0000 0.34480  0.26090  0.26920  Biso   1.000  H
  C23      1.0000 0.34100  0.40090  0.14190  Biso   1.000  C
  H19      1.0000 0.36270  0.43790  0.11250  Biso   1.000  H
  C24      1.0000 0.26250  0.39570  0.13060  Biso   1.000  C
  H20      1.0000 0.22050  0.42720  0.09260  Biso   1.000  H
  C25      1.0000 0.18340  0.31510  0.20040  Biso   1.000  C
  C26      1.0000 0.11700  0.38210  0.16670  Biso   1.000  C
  H21      1.0000 0.11820  0.43570  0.13340  Biso   1.000  H
  C27      1.0000 0.04870  0.36960  0.18230  Biso   1.000  C
  H22      1.0000 0.00420  0.41520  0.15920  Biso   1.000  H
  C28      1.0000 0.04450  0.29040  0.23200  Biso   1.000  C
  C29      1.0000 0.11190  0.22250  0.26360  Biso   1.000  C
  H23      1.0000 0.11070  0.16770  0.29620  Biso   1.000  H
  C30      1.0000 0.18050  0.23370  0.24820  Biso   1.000  C
  H24      1.0000 0.22460  0.18660  0.26990  Biso   1.000  H
  C31      1.0000 0.69180  0.31900  0.26880  Biso   1.000  C
  H25      1.0000 0.68090  0.36080  0.22730  Biso   1.000  H
  C32      1.0000 0.67930  0.23430  0.35710  Biso   1.000  C
  H26      1.0000 0.65710  0.20570  0.38850  Biso   1.000  H
  C33      1.0000 0.75640  0.22120  0.36400  Biso   1.000  C
  H27      1.0000 0.79630  0.18290  0.40040  Biso   1.000  H
  C34      1.0000 0.83520  0.27900  0.28880  Biso   1.000  C
  C35      1.0000 0.83610  0.34660  0.23380  Biso   1.000  C
  H28      1.0000 0.79190  0.39180  0.20930  Biso   1.000  H
  C36      1.0000 0.90250  0.34700  0.21540  Biso   1.000  C
  H29      1.0000 0.90140  0.39110  0.17700  Biso   1.000  H
  C37      1.0000 0.97180  0.28440  0.25170  Biso   1.000  C
  C38      1.0000 0.96900  0.21820  0.30750  Biso   1.000  C
  H30      1.0000 0.01370  0.17460  0.33330  Biso   1.000  H
  C39      1.0000 0.90220  0.21520  0.32600  Biso   1.000  C
  H31      1.0000 0.90240  0.16990  0.36360  Biso   1.000  H
  Co1      1.0000 0.51216  0.32728  0.25097  Biso   1.000  Co
  Co2      1.0000 0.50435  0.10795  0.05348  Biso   1.000  Co
  N1       1.0000 0.62750  0.08950  0.10710  Biso   1.000  N
  N2       1.0000 0.75580  0.08470  0.12340  Biso   1.000  N
  N3       1.0000 0.38120  0.12720  0.02360  Biso   1.000  N
  N4       1.0000 0.25640  0.14060  0.01820  Biso   1.000  N
  N5       1.0000 0.38490  0.34390  0.20300  Biso   1.000  N
  N6       1.0000 0.25580  0.33440  0.18630  Biso   1.000  N
  N7       1.0000 0.63780  0.29600  0.29710  Biso   1.000  N
  N8       1.0000 0.76510  0.27490  0.30720  Biso   1.000  N
  O1       1.0000 0.50710  0.42860  0.45231  Biso   1.000  O
  O2       1.0000 0.51260  0.40850  0.34623  Biso   1.000  O
  O3       1.0000 0.51610  0.28010  0.04508  Biso   1.000  O
  O4       1.0000 0.51280  0.25970  0.15190  Biso   1.000  O
  O5       1.0000 0.53050  0.48860  0.21652  Biso   1.000  O
  O6       1.0000 0.50960  0.67370  0.20834  Biso   1.000  O
  C40      1.0000 0.49030  0.86820  0.09880  Biso   1.000  C
  H32      1.0000 0.49070  0.78980  0.09440  Biso   1.000  H
  C41      1.0000 0.48400  0.81920  0.39770  Biso   1.000  C
  H33      1.0000 0.48150  0.89740  0.39170  Biso   1.000  H
  C42      1.0000 0.49460  0.07860  0.26760  Biso   1.000  C
  H34      1.0000 0.51900  0.07410  0.23430  Biso   1.000  H
  C43      1.0000 0.31880  0.60760  0.42190  Biso   1.000  C
  H35      1.0000 0.33120  0.63330  0.46810  Biso   1.000  H
  C44      1.0000 0.32980  0.55190  0.32550  Biso   1.000  C
  H36      1.0000 0.35170  0.53250  0.29190  Biso   1.000  H
  C45      1.0000 0.25120  0.54740  0.31520  Biso   1.000  C
  H37      1.0000 0.20950  0.52350  0.27420  Biso   1.000  H
  C46      1.0000 0.17170  0.59110  0.39150  Biso   1.000  C
  C47      1.0000 0.10980  0.51710  0.35960  Biso   1.000  C
  H38      1.0000 0.11460  0.46210  0.32840  Biso   1.000  H
  C48      1.0000 0.04010  0.52440  0.37390  Biso   1.000  C
  H39      1.0000 0.99840  0.47360  0.35210  Biso   1.000  H
  C49      1.0000 0.03040  0.60520  0.41970  Biso   1.000  C
  C50      1.0000 0.09390  0.67940  0.45020  Biso   1.000  C
  H40      1.0000 0.08950  0.73480  0.48120  Biso   1.000  H
  C51      1.0000 0.16350  0.67380  0.43610  Biso   1.000  C
  H41      1.0000 0.20470  0.72590  0.45660  Biso   1.000  H
  C52      1.0000 0.66880  0.60200  0.44490  Biso   1.000  C
  H42      1.0000 0.65440  0.56230  0.40220  Biso   1.000  H
  C53      1.0000 0.66330  0.68540  0.53630  Biso   1.000  C
  H43      1.0000 0.64370  0.71460  0.56940  Biso   1.000  H
  C54      1.0000 0.73950  0.69400  0.54030  Biso   1.000  C
  H44      1.0000 0.78170  0.72960  0.57620  Biso   1.000  H
  C55      1.0000 0.81450  0.63110  0.46430  Biso   1.000  C
  C56      1.0000 0.87640  0.70580  0.49310  Biso   1.000  C
  H45      1.0000 0.87190  0.76340  0.52280  Biso   1.000  H
  C57      1.0000 0.94500  0.69670  0.47870  Biso   1.000  C
  H46      1.0000 0.98630  0.74870  0.49900  Biso   1.000  H
  C58      1.0000 0.95510  0.61320  0.43500  Biso   1.000  C
  C59      1.0000 0.89120  0.53920  0.40580  Biso   1.000  C
  H47      1.0000 0.89500  0.48230  0.37530  Biso   1.000  H
  C60      1.0000 0.82180  0.54760  0.42060  Biso   1.000  C
  H48      1.0000 0.78010  0.49620  0.40070  Biso   1.000  H
  C61      1.0000 0.66820  0.80410  0.27190  Biso   1.000  C
  H49      1.0000 0.65520  0.76090  0.23080  Biso   1.000  H
  C62      1.0000 0.65900  0.90090  0.35810  Biso   1.000  C
  H50      1.0000 0.63730  0.93790  0.38750  Biso   1.000  H
  C63      1.0000 0.73750  0.89570  0.36940  Biso   1.000  C
  H51      1.0000 0.77950  0.92720  0.40740  Biso   1.000  H
  C64      1.0000 0.81660  0.81510  0.29960  Biso   1.000  C
  C65      1.0000 0.88300  0.88210  0.33330  Biso   1.000  C
  H52      1.0000 0.88180  0.93570  0.36660  Biso   1.000  H
  C66      1.0000 0.95130  0.86960  0.31770  Biso   1.000  C
  H53      1.0000 0.99580  0.91520  0.34080  Biso   1.000  H
  C67      1.0000 0.95550  0.79040  0.26800  Biso   1.000  C
  C68      1.0000 0.88810  0.72250  0.23640  Biso   1.000  C
  H54      1.0000 0.88930  0.66770  0.20380  Biso   1.000  H
  C69      1.0000 0.81950  0.73370  0.25180  Biso   1.000  C
  H55      1.0000 0.77540  0.68660  0.23010  Biso   1.000  H
  C70      1.0000 0.30820  0.81900  0.23120  Biso   1.000  C
  H56      1.0000 0.31910  0.86080  0.27270  Biso   1.000  H
  C71      1.0000 0.32070  0.73430  0.14290  Biso   1.000  C
  H57      1.0000 0.34290  0.70570  0.11150  Biso   1.000  H
  C72      1.0000 0.24360  0.72120  0.13600  Biso   1.000  C
  H58      1.0000 0.20370  0.68290  0.09960  Biso   1.000  H
  C73      1.0000 0.16480  0.77900  0.21120  Biso   1.000  C
  C74      1.0000 0.16390  0.84660  0.26620  Biso   1.000  C
  H59      1.0000 0.20810  0.89180  0.29070  Biso   1.000  H
  C75      1.0000 0.09750  0.84700  0.28460  Biso   1.000  C
  H60      1.0000 0.09860  0.89110  0.32300  Biso   1.000  H
  C76      1.0000 0.02820  0.78440  0.24830  Biso   1.000  C
  C77      1.0000 0.03100  0.71820  0.19250  Biso   1.000  C
  H61      1.0000 0.98630  0.67460  0.16670  Biso   1.000  H
  C78      1.0000 0.09780  0.71520  0.17400  Biso   1.000  C
  H62      1.0000 0.09760  0.66990  0.13640  Biso   1.000  H
  Co3      1.0000 0.48784  0.82728  0.24903  Biso   1.000  Co
  Co4      1.0000 0.49565  0.60795  0.44652  Biso   1.000  Co
  N9       1.0000 0.37250  0.58950  0.39290  Biso   1.000  N
  N10      1.0000 0.24420  0.58470  0.37660  Biso   1.000  N
  N11      1.0000 0.61880  0.62720  0.47640  Biso   1.000  N
  N12      1.0000 0.74360  0.64060  0.48180  Biso   1.000  N
  N13      1.0000 0.61510  0.84390  0.29700  Biso   1.000  N
  N14      1.0000 0.74420  0.83440  0.31370  Biso   1.000  N
  N15      1.0000 0.36220  0.79600  0.20290  Biso   1.000  N
  N16      1.0000 0.23490  0.77490  0.19280  Biso   1.000  N
  O7       1.0000 0.49290  0.92860  0.04769  Biso   1.000  O
  O8       1.0000 0.48740  0.90850  0.15377  Biso   1.000  O
  O9       1.0000 0.48390  0.78010  0.45492  Biso   1.000  O
  O10      1.0000 0.48720  0.75970  0.34810  Biso   1.000  O
  O11      1.0000 0.46950  0.98860  0.28348  Biso   1.000  O
  O12      1.0000 0.49040  0.17370  0.29166  Biso   1.000  O
  C79      1.0000 0.49030  0.63180  0.59880  Biso   1.000  C
  H63      1.0000 0.49070  0.71020  0.59440  Biso   1.000  H
  C80      1.0000 0.48400  0.68080  0.89770  Biso   1.000  C
  H64      1.0000 0.48150  0.60260  0.89170  Biso   1.000  H
  C81      1.0000 0.49460  0.42140  0.76760  Biso   1.000  C
  H65      1.0000 0.51900  0.42590  0.73430  Biso   1.000  H
  C82      1.0000 0.31880  0.89240  0.92190  Biso   1.000  C
  H66      1.0000 0.33120  0.86670  0.96810  Biso   1.000  H
  C83      1.0000 0.32980  0.94810  0.82550  Biso   1.000  C
  H67      1.0000 0.35170  0.96750  0.79190  Biso   1.000  H
  C84      1.0000 0.25120  0.95260  0.81520  Biso   1.000  C
  H68      1.0000 0.20950  0.97650  0.77420  Biso   1.000  H
  C85      1.0000 0.17170  0.90890  0.89150  Biso   1.000  C
  C86      1.0000 0.10980  0.98290  0.85960  Biso   1.000  C
  H69      1.0000 0.11460  0.03790  0.82840  Biso   1.000  H
  C87      1.0000 0.04010  0.97560  0.87390  Biso   1.000  C
  H70      1.0000 0.99840  0.02640  0.85210  Biso   1.000  H
  C88      1.0000 0.03040  0.89480  0.91970  Biso   1.000  C
  C89      1.0000 0.09390  0.82060  0.95020  Biso   1.000  C
  H71      1.0000 0.08950  0.76520  0.98120  Biso   1.000  H
  C90      1.0000 0.16350  0.82620  0.93610  Biso   1.000  C
  H72      1.0000 0.20470  0.77410  0.95660  Biso   1.000  H
  C91      1.0000 0.66880  0.89800  0.94490  Biso   1.000  C
  H73      1.0000 0.65440  0.93770  0.90220  Biso   1.000  H
  C92      1.0000 0.66330  0.81460  0.03630  Biso   1.000  C
  H74      1.0000 0.64370  0.78540  0.06940  Biso   1.000  H
  C93      1.0000 0.73950  0.80600  0.04030  Biso   1.000  C
  H75      1.0000 0.78170  0.77040  0.07620  Biso   1.000  H
  C94      1.0000 0.81450  0.86890  0.96430  Biso   1.000  C
  C95      1.0000 0.87640  0.79420  0.99310  Biso   1.000  C
  H76      1.0000 0.87190  0.73660  0.02280  Biso   1.000  H
  C96      1.0000 0.94500  0.80330  0.97870  Biso   1.000  C
  H77      1.0000 0.98630  0.75130  0.99900  Biso   1.000  H
  C97      1.0000 0.95510  0.88680  0.93500  Biso   1.000  C
  C98      1.0000 0.89120  0.96080  0.90580  Biso   1.000  C
  H78      1.0000 0.89500  0.01770  0.87530  Biso   1.000  H
  C99      1.0000 0.82180  0.95240  0.92060  Biso   1.000  C
  H79      1.0000 0.78010  0.00380  0.90070  Biso   1.000  H
  C100     1.0000 0.66820  0.69590  0.77190  Biso   1.000  C
  H80      1.0000 0.65520  0.73910  0.73080  Biso   1.000  H
  C101     1.0000 0.65900  0.59910  0.85810  Biso   1.000  C
  H81      1.0000 0.63730  0.56210  0.88750  Biso   1.000  H
  C102     1.0000 0.73750  0.60430  0.86940  Biso   1.000  C
  H82      1.0000 0.77950  0.57280  0.90740  Biso   1.000  H
  C103     1.0000 0.81660  0.68490  0.79960  Biso   1.000  C
  C104     1.0000 0.88300  0.61790  0.83330  Biso   1.000  C
  H83      1.0000 0.88180  0.56430  0.86660  Biso   1.000  H
  C105     1.0000 0.95130  0.63040  0.81770  Biso   1.000  C
  H84      1.0000 0.99580  0.58480  0.84080  Biso   1.000  H
  C106     1.0000 0.95550  0.70960  0.76800  Biso   1.000  C
  C107     1.0000 0.88810  0.77750  0.73640  Biso   1.000  C
  H85      1.0000 0.88930  0.83230  0.70380  Biso   1.000  H
  C108     1.0000 0.81950  0.76630  0.75180  Biso   1.000  C
  H86      1.0000 0.77540  0.81340  0.73010  Biso   1.000  H
  C109     1.0000 0.30820  0.68100  0.73120  Biso   1.000  C
  H87      1.0000 0.31910  0.63920  0.77270  Biso   1.000  H
  C110     1.0000 0.32070  0.76570  0.64290  Biso   1.000  C
  H88      1.0000 0.34290  0.79430  0.61150  Biso   1.000  H
  C111     1.0000 0.24360  0.77880  0.63600  Biso   1.000  C
  H89      1.0000 0.20370  0.81710  0.59960  Biso   1.000  H
  C112     1.0000 0.16480  0.72100  0.71120  Biso   1.000  C
  C113     1.0000 0.16390  0.65340  0.76620  Biso   1.000  C
  H90      1.0000 0.20810  0.60820  0.79070  Biso   1.000  H
  C114     1.0000 0.09750  0.65300  0.78460  Biso   1.000  C
  H91      1.0000 0.09860  0.60890  0.82300  Biso   1.000  H
  C115     1.0000 0.02820  0.71560  0.74830  Biso   1.000  C
  C116     1.0000 0.03100  0.78180  0.69250  Biso   1.000  C
  H92      1.0000 0.98630  0.82540  0.66670  Biso   1.000  H
  C117     1.0000 0.09780  0.78480  0.67400  Biso   1.000  C
  H93      1.0000 0.09760  0.83010  0.63640  Biso   1.000  H
  Co5      1.0000 0.48784  0.67272  0.74903  Biso   1.000  Co
  Co6      1.0000 0.49565  0.89205  0.94652  Biso   1.000  Co
  N17      1.0000 0.37250  0.91050  0.89290  Biso   1.000  N
  N18      1.0000 0.24420  0.91530  0.87660  Biso   1.000  N
  N19      1.0000 0.61880  0.87280  0.97640  Biso   1.000  N
  N20      1.0000 0.74360  0.85940  0.98180  Biso   1.000  N
  N21      1.0000 0.61510  0.65610  0.79700  Biso   1.000  N
  N22      1.0000 0.74420  0.66560  0.81370  Biso   1.000  N
  N23      1.0000 0.36220  0.70400  0.70290  Biso   1.000  N
  N24      1.0000 0.23490  0.72510  0.69280  Biso   1.000  N
  O13      1.0000 0.49290  0.57140  0.54769  Biso   1.000  O
  O14      1.0000 0.48740  0.59150  0.65377  Biso   1.000  O
  O15      1.0000 0.48390  0.71990  0.95492  Biso   1.000  O
  O16      1.0000 0.48720  0.74030  0.84810  Biso   1.000  O
  O17      1.0000 0.46950  0.51140  0.78348  Biso   1.000  O
  O18      1.0000 0.49040  0.32630  0.79166  Biso   1.000  O
  C118     1.0000 0.50970  0.13180  0.90120  Biso   1.000  C
  H94      1.0000 0.50930  0.21020  0.90560  Biso   1.000  H
  C119     1.0000 0.51600  0.18080  0.60230  Biso   1.000  C
  H95      1.0000 0.51850  0.10260  0.60830  Biso   1.000  H
  C120     1.0000 0.50540  0.92140  0.73240  Biso   1.000  C
  H96      1.0000 0.48100  0.92590  0.76570  Biso   1.000  H
  C121     1.0000 0.68120  0.39240  0.57810  Biso   1.000  C
  H97      1.0000 0.66880  0.36670  0.53190  Biso   1.000  H
  C122     1.0000 0.67020  0.44810  0.67450  Biso   1.000  C
  H98      1.0000 0.64830  0.46750  0.70810  Biso   1.000  H
  C123     1.0000 0.74880  0.45260  0.68480  Biso   1.000  C
  H99      1.0000 0.79050  0.47650  0.72580  Biso   1.000  H
  C124     1.0000 0.82830  0.40890  0.60850  Biso   1.000  C
  C125     1.0000 0.89020  0.48290  0.64040  Biso   1.000  C
  H100     1.0000 0.88540  0.53790  0.67160  Biso   1.000  H
  C126     1.0000 0.95990  0.47560  0.62610  Biso   1.000  C
  H101     1.0000 0.00160  0.52640  0.64790  Biso   1.000  H
  C127     1.0000 0.96960  0.39480  0.58030  Biso   1.000  C
  C128     1.0000 0.90610  0.32060  0.54980  Biso   1.000  C
  H102     1.0000 0.91050  0.26520  0.51880  Biso   1.000  H
  C129     1.0000 0.83650  0.32620  0.56390  Biso   1.000  C
  H103     1.0000 0.79530  0.27410  0.54340  Biso   1.000  H
  C130     1.0000 0.33120  0.39800  0.55510  Biso   1.000  C
  H104     1.0000 0.34560  0.43770  0.59780  Biso   1.000  H
  C131     1.0000 0.33670  0.31460  0.46370  Biso   1.000  C
  H105     1.0000 0.35630  0.28540  0.43060  Biso   1.000  H
  C132     1.0000 0.26050  0.30600  0.45970  Biso   1.000  C
  H106     1.0000 0.21830  0.27040  0.42380  Biso   1.000  H
  C133     1.0000 0.18550  0.36890  0.53570  Biso   1.000  C
  C134     1.0000 0.12360  0.29420  0.50690  Biso   1.000  C
  H107     1.0000 0.12810  0.23660  0.47720  Biso   1.000  H
  C135     1.0000 0.05500  0.30330  0.52130  Biso   1.000  C
  H108     1.0000 0.01370  0.25130  0.50100  Biso   1.000  H
  C136     1.0000 0.04490  0.38680  0.56500  Biso   1.000  C
  C137     1.0000 0.10880  0.46080  0.59420  Biso   1.000  C
  H109     1.0000 0.10500  0.51770  0.62470  Biso   1.000  H
  C138     1.0000 0.17820  0.45240  0.57940  Biso   1.000  C
  H110     1.0000 0.21990  0.50380  0.59930  Biso   1.000  H
  C139     1.0000 0.33180  0.19590  0.72810  Biso   1.000  C
  H111     1.0000 0.34480  0.23910  0.76920  Biso   1.000  H
  C140     1.0000 0.34100  0.09910  0.64190  Biso   1.000  C
  H112     1.0000 0.36270  0.06210  0.61250  Biso   1.000  H
  C141     1.0000 0.26250  0.10430  0.63060  Biso   1.000  C
  H113     1.0000 0.22050  0.07280  0.59260  Biso   1.000  H
  C142     1.0000 0.18340  0.18490  0.70040  Biso   1.000  C
  C143     1.0000 0.11700  0.11790  0.66670  Biso   1.000  C
  H114     1.0000 0.11820  0.06430  0.63340  Biso   1.000  H
  C144     1.0000 0.04870  0.13040  0.68230  Biso   1.000  C
  H115     1.0000 0.00420  0.08480  0.65920  Biso   1.000  H
  C145     1.0000 0.04450  0.20960  0.73200  Biso   1.000  C
  C146     1.0000 0.11190  0.27750  0.76360  Biso   1.000  C
  H116     1.0000 0.11070  0.33230  0.79620  Biso   1.000  H
  C147     1.0000 0.18050  0.26630  0.74820  Biso   1.000  C
  H117     1.0000 0.22460  0.31340  0.76990  Biso   1.000  H
  C148     1.0000 0.69180  0.18100  0.76880  Biso   1.000  C
  H118     1.0000 0.68090  0.13920  0.72730  Biso   1.000  H
  C149     1.0000 0.67930  0.26570  0.85710  Biso   1.000  C
  H119     1.0000 0.65710  0.29430  0.88850  Biso   1.000  H
  C150     1.0000 0.75640  0.27880  0.86400  Biso   1.000  C
  H120     1.0000 0.79630  0.31710  0.90040  Biso   1.000  H
  C151     1.0000 0.83520  0.22100  0.78880  Biso   1.000  C
  C152     1.0000 0.83610  0.15340  0.73380  Biso   1.000  C
  H121     1.0000 0.79190  0.10820  0.70930  Biso   1.000  H
  C153     1.0000 0.90250  0.15300  0.71540  Biso   1.000  C
  H122     1.0000 0.90140  0.10890  0.67700  Biso   1.000  H
  C154     1.0000 0.97180  0.21560  0.75170  Biso   1.000  C
  C155     1.0000 0.96900  0.28180  0.80750  Biso   1.000  C
  H123     1.0000 0.01370  0.32540  0.83330  Biso   1.000  H
  C156     1.0000 0.90220  0.28480  0.82600  Biso   1.000  C
  H124     1.0000 0.90240  0.33010  0.86360  Biso   1.000  H
  Co7      1.0000 0.51216  0.17272  0.75097  Biso   1.000  Co
  Co8      1.0000 0.50435  0.39205  0.55348  Biso   1.000  Co
  N25      1.0000 0.62750  0.41050  0.60710  Biso   1.000  N
  N26      1.0000 0.75580  0.41530  0.62340  Biso   1.000  N
  N27      1.0000 0.38120  0.37280  0.52360  Biso   1.000  N
  N28      1.0000 0.25640  0.35940  0.51820  Biso   1.000  N
  N29      1.0000 0.38490  0.15610  0.70300  Biso   1.000  N
  N30      1.0000 0.25580  0.16560  0.68630  Biso   1.000  N
  N31      1.0000 0.63780  0.20400  0.79710  Biso   1.000  N
  N32      1.0000 0.76510  0.22510  0.80720  Biso   1.000  N
  O19      1.0000 0.50710  0.07140  0.95231  Biso   1.000  O
  O20      1.0000 0.51260  0.09150  0.84623  Biso   1.000  O
  O21      1.0000 0.51610  0.21990  0.54508  Biso   1.000  O
  O22      1.0000 0.51280  0.24030  0.65190  Biso   1.000  O
  O23      1.0000 0.53050  0.01140  0.71652  Biso   1.000  O
  O24      1.0000 0.50960  0.82630  0.70834  Biso   1.000  O
