data_image0
_cell_length_a       8.2969
_cell_length_b       21.756
_cell_length_c       13.781
_cell_angle_alpha    90
_cell_angle_beta     103.69
_cell_angle_gamma    90

_symmetry_space_group_name_H-M    "P 1"
_symmetry_int_tables_number       1

loop_
  _symmetry_equiv_pos_as_xyz
  'x, y, z'

loop_
  _atom_site_label
  _atom_site_occupancy
  _atom_site_fract_x
  _atom_site_fract_y
  _atom_site_fract_z
  _atom_site_thermal_displace_type
  _atom_site_B_iso_or_equiv
  _atom_site_type_symbol
  C1       1.0000 0.36480  0.10510  0.13710  Biso   1.000  C
  H1       1.0000 0.43040  0.13480  0.11690  Biso   1.000  H
  C2       1.0000 0.24240  0.02060  0.15120  Biso   1.000  C
  H2       1.0000 0.20690  0.98000  0.14180  Biso   1.000  H
  C3       1.0000 0.19730  0.06010  0.21470  Biso   1.000  C
  H3       1.0000 0.12700  0.05210  0.25670  Biso   1.000  H
  C4       1.0000 0.26620  0.17030  0.25950  Biso   1.000  C
  C5       1.0000 0.11880  0.18750  0.28010  Biso   1.000  C
  H4       1.0000 0.02380  0.16420  0.25590  Biso   1.000  H
  C6       1.0000 0.40610  0.20570  0.29300  Biso   1.000  C
  H5       1.0000 0.50600  0.19390  0.27910  Biso   1.000  H
  C7       1.0000 0.26840  0.00630  0.76350  Biso   1.000  C
  H6       1.0000 0.33120  0.97470  0.74570  Biso   1.000  H
  C8       1.0000 0.18070  0.07530  0.84760  Biso   1.000  C
  H7       1.0000 0.17060  0.10080  0.90000  Biso   1.000  H
  C9       1.0000 0.08080  0.07700  0.75390  Biso   1.000  C
  H8       1.0000 0.99190  0.10340  0.73080  Biso   1.000  H
  C10      1.0000 0.06750  0.01560  0.59860  Biso   1.000  C
  C11      1.0000 0.98250  0.05890  0.53310  Biso   1.000  C
  H9       1.0000 0.97050  0.09870  0.55520  Biso   1.000  H
  C12      1.0000 0.08550  0.95680  0.56600  Biso   1.000  C
  H10      1.0000 0.14310  0.92760  0.61020  Biso   1.000  H
  C13      1.0000 0.11810  0.36650  0.42470  Biso   1.000  C
  H11      1.0000 0.01700  0.36260  0.37840  Biso   1.000  H
  C14      1.0000 0.31220  0.39950  0.54200  Biso   1.000  C
  H12      1.0000 0.37160  0.42370  0.59400  Biso   1.000  H
  C15      1.0000 0.37270  0.34870  0.50670  Biso   1.000  C
  H13      1.0000 0.47780  0.33170  0.52870  Biso   1.000  H
  C16      1.0000 0.25100  0.27450  0.37020  Biso   1.000  C
  C17      1.0000 0.11080  0.23970  0.33700  Biso   1.000  C
  H14      1.0000 0.01160  0.25090  0.35250  Biso   1.000  H
  C18      1.0000 0.39870  0.25850  0.34720  Biso   1.000  C
  H15      1.0000 0.49220  0.28310  0.36810  Biso   1.000  H
  N1       1.0000 0.34850  0.04857  0.10180  Biso   1.000  N
  N2       1.0000 0.27620  0.11490  0.20530  Biso   1.000  N
  N3       1.0000 0.29780  0.03078  0.85330  Biso   1.000  N
  N4       1.0000 0.13690  0.03217  0.70030  Biso   1.000  N
  N5       1.0000 0.15220  0.41078  0.49120  Biso   1.000  N
  N6       1.0000 0.24540  0.32770  0.43110  Biso   1.000  N
  C19      1.0000 0.13520  0.60510  0.36290  Biso   1.000  C
  H16      1.0000 0.06960  0.63480  0.38310  Biso   1.000  H
  C20      1.0000 0.25760  0.52060  0.34880  Biso   1.000  C
  H17      1.0000 0.29310  0.48000  0.35820  Biso   1.000  H
  C21      1.0000 0.30270  0.56010  0.28530  Biso   1.000  C
  H18      1.0000 0.37300  0.55210  0.24330  Biso   1.000  H
  C22      1.0000 0.23380  0.67030  0.24050  Biso   1.000  C
  C23      1.0000 0.38120  0.68750  0.21990  Biso   1.000  C
  H19      1.0000 0.47620  0.66420  0.24410  Biso   1.000  H
  C24      1.0000 0.09390  0.70570  0.20700  Biso   1.000  C
  H20      1.0000 0.99400  0.69390  0.22090  Biso   1.000  H
  C25      1.0000 0.23160  0.50630  0.73650  Biso   1.000  C
  H21      1.0000 0.16880  0.47470  0.75430  Biso   1.000  H
  C26      1.0000 0.31930  0.57530  0.65240  Biso   1.000  C
  H22      1.0000 0.32940  0.60080  0.60000  Biso   1.000  H
  C27      1.0000 0.41920  0.57700  0.74610  Biso   1.000  C
  H23      1.0000 0.50810  0.60340  0.76920  Biso   1.000  H
  C28      1.0000 0.43250  0.51560  0.90140  Biso   1.000  C
  C29      1.0000 0.51750  0.55890  0.96690  Biso   1.000  C
  H24      1.0000 0.52950  0.59870  0.94480  Biso   1.000  H
  C30      1.0000 0.41450  0.45680  0.93400  Biso   1.000  C
  H25      1.0000 0.35690  0.42760  0.88980  Biso   1.000  H
  C31      1.0000 0.38190  0.86650  0.07530  Biso   1.000  C
  H26      1.0000 0.48300  0.86260  0.12160  Biso   1.000  H
  C32      1.0000 0.18780  0.89950  0.95800  Biso   1.000  C
  H27      1.0000 0.12840  0.92370  0.90600  Biso   1.000  H
  C33      1.0000 0.12730  0.84870  0.99330  Biso   1.000  C
  H28      1.0000 0.02220  0.83170  0.97130  Biso   1.000  H
  C34      1.0000 0.24900  0.77450  0.12980  Biso   1.000  C
  C35      1.0000 0.38920  0.73970  0.16300  Biso   1.000  C
  H29      1.0000 0.48840  0.75090  0.14750  Biso   1.000  H
  C36      1.0000 0.10130  0.75850  0.15280  Biso   1.000  C
  H30      1.0000 0.00780  0.78310  0.13190  Biso   1.000  H
  N7       1.0000 0.15150  0.54857  0.39820  Biso   1.000  N
  N8       1.0000 0.22380  0.61490  0.29470  Biso   1.000  N
  N9       1.0000 0.20220  0.53078  0.64670  Biso   1.000  N
  N10      1.0000 0.36310  0.53217  0.79970  Biso   1.000  N
  N11      1.0000 0.34780  0.91078  0.00880  Biso   1.000  N
  N12      1.0000 0.25460  0.82770  0.06890  Biso   1.000  N
  C37      1.0000 0.63520  0.89490  0.86290  Biso   1.000  C
  H31      1.0000 0.56960  0.86520  0.88310  Biso   1.000  H
  C38      1.0000 0.75760  0.97940  0.84880  Biso   1.000  C
  H32      1.0000 0.79310  0.02000  0.85820  Biso   1.000  H
  C39      1.0000 0.80270  0.93990  0.78530  Biso   1.000  C
  H33      1.0000 0.87300  0.94790  0.74330  Biso   1.000  H
  C40      1.0000 0.73380  0.82970  0.74050  Biso   1.000  C
  C41      1.0000 0.88120  0.81250  0.71990  Biso   1.000  C
  H34      1.0000 0.97620  0.83580  0.74410  Biso   1.000  H
  C42      1.0000 0.59390  0.79430  0.70700  Biso   1.000  C
  H35      1.0000 0.49400  0.80610  0.72090  Biso   1.000  H
  C43      1.0000 0.73160  0.99370  0.23650  Biso   1.000  C
  H36      1.0000 0.66880  0.02530  0.25430  Biso   1.000  H
  C44      1.0000 0.81930  0.92470  0.15240  Biso   1.000  C
  H37      1.0000 0.82940  0.89920  0.10000  Biso   1.000  H
  C45      1.0000 0.91920  0.92300  0.24610  Biso   1.000  C
  H38      1.0000 0.00810  0.89660  0.26920  Biso   1.000  H
  C46      1.0000 0.93250  0.98440  0.40140  Biso   1.000  C
  C47      1.0000 0.01750  0.94110  0.46690  Biso   1.000  C
  H39      1.0000 0.02950  0.90130  0.44480  Biso   1.000  H
  C48      1.0000 0.91450  0.04320  0.43400  Biso   1.000  C
  H40      1.0000 0.85690  0.07240  0.38980  Biso   1.000  H
  C49      1.0000 0.88190  0.63350  0.57530  Biso   1.000  C
  H41      1.0000 0.98300  0.63740  0.62160  Biso   1.000  H
  C50      1.0000 0.68780  0.60050  0.45800  Biso   1.000  C
  H42      1.0000 0.62840  0.57630  0.40600  Biso   1.000  H
  C51      1.0000 0.62730  0.65130  0.49330  Biso   1.000  C
  H43      1.0000 0.52220  0.66830  0.47130  Biso   1.000  H
  C52      1.0000 0.74900  0.72550  0.62980  Biso   1.000  C
  C53      1.0000 0.88920  0.76030  0.66300  Biso   1.000  C
  H44      1.0000 0.98840  0.74910  0.64750  Biso   1.000  H
  C54      1.0000 0.60130  0.74150  0.65280  Biso   1.000  C
  H45      1.0000 0.50780  0.71690  0.63190  Biso   1.000  H
  N13      1.0000 0.65150  0.95143  0.89820  Biso   1.000  N
  N14      1.0000 0.72380  0.88510  0.79470  Biso   1.000  N
  N15      1.0000 0.70220  0.96922  0.14670  Biso   1.000  N
  N16      1.0000 0.86310  0.96783  0.29970  Biso   1.000  N
  N17      1.0000 0.84780  0.58922  0.50880  Biso   1.000  N
  N18      1.0000 0.75460  0.67230  0.56890  Biso   1.000  N
  C55      1.0000 0.86480  0.39490  0.63710  Biso   1.000  C
  H46      1.0000 0.93040  0.36520  0.61690  Biso   1.000  H
  C56      1.0000 0.74240  0.47940  0.65120  Biso   1.000  C
  H47      1.0000 0.70690  0.52000  0.64180  Biso   1.000  H
  C57      1.0000 0.69730  0.43990  0.71470  Biso   1.000  C
  H48      1.0000 0.62700  0.44790  0.75670  Biso   1.000  H
  C58      1.0000 0.76620  0.32970  0.75950  Biso   1.000  C
  C59      1.0000 0.61880  0.31250  0.78010  Biso   1.000  C
  H49      1.0000 0.52380  0.33580  0.75590  Biso   1.000  H
  C60      1.0000 0.90610  0.29430  0.79300  Biso   1.000  C
  H50      1.0000 0.00600  0.30610  0.77910  Biso   1.000  H
  C61      1.0000 0.76840  0.49370  0.26350  Biso   1.000  C
  H51      1.0000 0.83120  0.52530  0.24570  Biso   1.000  H
  C62      1.0000 0.68070  0.42470  0.34760  Biso   1.000  C
  H52      1.0000 0.67060  0.39920  0.40000  Biso   1.000  H
  C63      1.0000 0.58080  0.42300  0.25390  Biso   1.000  C
  H53      1.0000 0.49190  0.39660  0.23080  Biso   1.000  H
  C64      1.0000 0.56750  0.48440  0.09860  Biso   1.000  C
  C65      1.0000 0.48250  0.44110  0.03310  Biso   1.000  C
  H54      1.0000 0.47050  0.40130  0.05520  Biso   1.000  H
  C66      1.0000 0.58550  0.54320  0.06600  Biso   1.000  C
  H55      1.0000 0.64310  0.57240  0.11020  Biso   1.000  H
  C67      1.0000 0.61810  0.13350  0.92470  Biso   1.000  C
  H56      1.0000 0.51700  0.13740  0.87840  Biso   1.000  H
  C68      1.0000 0.81220  0.10050  0.04200  Biso   1.000  C
  H57      1.0000 0.87160  0.07630  0.09400  Biso   1.000  H
  C69      1.0000 0.87270  0.15130  0.00670  Biso   1.000  C
  H58      1.0000 0.97780  0.16830  0.02870  Biso   1.000  H
  C70      1.0000 0.75100  0.22550  0.87020  Biso   1.000  C
  C71      1.0000 0.61080  0.26030  0.83700  Biso   1.000  C
  H59      1.0000 0.51160  0.24910  0.85250  Biso   1.000  H
  C72      1.0000 0.89870  0.24150  0.84720  Biso   1.000  C
  H60      1.0000 0.99220  0.21690  0.86810  Biso   1.000  H
  N19      1.0000 0.84850  0.45143  0.60180  Biso   1.000  N
  N20      1.0000 0.77620  0.38510  0.70530  Biso   1.000  N
  N21      1.0000 0.79780  0.46922  0.35330  Biso   1.000  N
  N22      1.0000 0.63690  0.46783  0.20030  Biso   1.000  N
  N23      1.0000 0.65220  0.08922  0.99120  Biso   1.000  N
  N24      1.0000 0.74540  0.17230  0.93110  Biso   1.000  N
  Cd1      1.0000 0.50000  0.00000  0.00000  Biso   1.000  Cd
  Cd2      1.0000 0.00000  0.50000  0.50000  Biso   1.000  Cd
