data_HUZFOY_charged
_audit_creation_date              2014-07-02
_audit_creation_method            'Materials Studio'
_symmetry_space_group_name_H-M    'P1'
_symmetry_Int_Tables_number       1
_symmetry_cell_setting            triclinic
loop_
_symmetry_equiv_pos_as_xyz
  x,y,z
_cell_length_a                    13.9793
_cell_length_b                    13.9793
_cell_length_c                    13.9793
_cell_angle_alpha                 100.8160
_cell_angle_beta                  100.8160
_cell_angle_gamma                 100.8160
loop_
_atom_site_label
_atom_site_type_symbol
_atom_site_fract_x
_atom_site_fract_y
_atom_site_fract_z
_atom_site_U_iso_or_equiv
_atom_site_adp_type
_atom_site_occupancy
Cd1    Cd    0.00000   0.00000   0.00000   0.01267  Uiso   1.00
H1     H     0.77640   0.82480   0.93530   0.01267  Uiso   1.00
H2     H     0.87230   0.17160   0.09650   0.01267  Uiso   1.00
H3     H     0.77420   0.24260   0.19320   0.01267  Uiso   1.00
H4     H     0.63300   0.14530   0.21990   0.01267  Uiso   1.00
H5     H     0.58240   0.97860   0.14950   0.01267  Uiso   1.00
H6     H     0.58960   0.73550   0.86820   0.01267  Uiso   1.00
H7     H     0.47060   0.59610   0.86020   0.01267  Uiso   1.00
H8     H     0.49070   0.67860   0.15210   0.01267  Uiso   1.00
H9     H     0.61600   0.81430   0.16560   0.01267  Uiso   1.00
H10    H     0.93530   0.77640   0.82480   0.01267  Uiso   1.00
H11    H     0.09650   0.87230   0.17160   0.01267  Uiso   1.00
H12    H     0.19320   0.77420   0.24260   0.01267  Uiso   1.00
H13    H     0.21990   0.63300   0.14530   0.01267  Uiso   1.00
H14    H     0.14950   0.58240   0.97860   0.01267  Uiso   1.00
H15    H     0.86820   0.58960   0.73550   0.01267  Uiso   1.00
H16    H     0.86020   0.47060   0.59610   0.01267  Uiso   1.00
H17    H     0.15210   0.49070   0.67860   0.01267  Uiso   1.00
H18    H     0.16560   0.61600   0.81430   0.01267  Uiso   1.00
H19    H     0.82480   0.93530   0.77640   0.01267  Uiso   1.00
H20    H     0.17160   0.09650   0.87230   0.01267  Uiso   1.00
H21    H     0.24260   0.19320   0.77420   0.01267  Uiso   1.00
H22    H     0.14530   0.21990   0.63300   0.01267  Uiso   1.00
H23    H     0.97860   0.14950   0.58240   0.01267  Uiso   1.00
H24    H     0.73550   0.86820   0.58960   0.01267  Uiso   1.00
H25    H     0.59610   0.86020   0.47060   0.01267  Uiso   1.00
H26    H     0.67860   0.15210   0.49070   0.01267  Uiso   1.00
H27    H     0.81430   0.16560   0.61600   0.01267  Uiso   1.00
H28    H     0.17520   0.22360   0.06470   0.01267  Uiso   1.00
H29    H     0.82840   0.12770   0.90350   0.01267  Uiso   1.00
H30    H     0.75740   0.22580   0.80680   0.01267  Uiso   1.00
H31    H     0.85470   0.36700   0.78010   0.01267  Uiso   1.00
H32    H     0.02140   0.41760   0.85050   0.01267  Uiso   1.00
H33    H     0.26450   0.41040   0.13180   0.01267  Uiso   1.00
H34    H     0.40390   0.52940   0.13980   0.01267  Uiso   1.00
H35    H     0.32140   0.50930   0.84790   0.01267  Uiso   1.00
H36    H     0.18570   0.38400   0.83440   0.01267  Uiso   1.00
H37    H     0.22360   0.06470   0.17520   0.01267  Uiso   1.00
H38    H     0.12770   0.90350   0.82840   0.01267  Uiso   1.00
H39    H     0.22580   0.80680   0.75740   0.01267  Uiso   1.00
H40    H     0.36700   0.78010   0.85470   0.01267  Uiso   1.00
H41    H     0.41760   0.85050   0.02140   0.01267  Uiso   1.00
H42    H     0.41040   0.13180   0.26450   0.01267  Uiso   1.00
H43    H     0.52940   0.13980   0.40390   0.01267  Uiso   1.00
H44    H     0.50930   0.84790   0.32140   0.01267  Uiso   1.00
H45    H     0.38400   0.83440   0.18570   0.01267  Uiso   1.00
H46    H     0.06470   0.17520   0.22360   0.01267  Uiso   1.00
H47    H     0.90350   0.82840   0.12770   0.01267  Uiso   1.00
H48    H     0.80680   0.75740   0.22580   0.01267  Uiso   1.00
H49    H     0.78010   0.85470   0.36700   0.01267  Uiso   1.00
H50    H     0.85050   0.02140   0.41760   0.01267  Uiso   1.00
H51    H     0.13180   0.26450   0.41040   0.01267  Uiso   1.00
H52    H     0.13980   0.40390   0.52940   0.01267  Uiso   1.00
H53    H     0.84790   0.32140   0.50930   0.01267  Uiso   1.00
H54    H     0.83440   0.18570   0.38400   0.01267  Uiso   1.00
C1     C     0.76680   0.88040   0.97750   0.01267  Uiso   1.00
C2     C     0.78300   0.03090   0.06040   0.01267  Uiso   1.00
C3     C     0.81430   0.13280   0.10540   0.01267  Uiso   1.00
C4     C     0.75610   0.17450   0.16390   0.01267  Uiso   1.00
C5     C     0.67000   0.11530   0.17960   0.01267  Uiso   1.00
C6     C     0.63980   0.01670   0.13860   0.01267  Uiso   1.00
C7     C     0.69750   0.97260   0.07850   0.01267  Uiso   1.00
C8     C     0.61430   0.79170   0.01830   0.01267  Uiso   1.00
C9     C     0.57000   0.72410   0.92590   0.01267  Uiso   1.00
C10    C     0.49750   0.64150   0.92140   0.01267  Uiso   1.00
C11    C     0.46250   0.62260   0.00320   0.01267  Uiso   1.00
C12    C     0.51050   0.69020   0.09460   0.01267  Uiso   1.00
C13    C     0.58520   0.77210   0.10330   0.01267  Uiso   1.00
C14    C     0.97750   0.76680   0.88040   0.01267  Uiso   1.00
C15    C     0.06040   0.78300   0.03090   0.01267  Uiso   1.00
C16    C     0.10540   0.81430   0.13280   0.01267  Uiso   1.00
C17    C     0.16390   0.75610   0.17450   0.01267  Uiso   1.00
C18    C     0.17960   0.67000   0.11530   0.01267  Uiso   1.00
C19    C     0.13860   0.63980   0.01670   0.01267  Uiso   1.00
C20    C     0.07850   0.69750   0.97260   0.01267  Uiso   1.00
C21    C     0.01830   0.61430   0.79170   0.01267  Uiso   1.00
C22    C     0.92590   0.57000   0.72410   0.01267  Uiso   1.00
C23    C     0.92140   0.49750   0.64150   0.01267  Uiso   1.00
C24    C     0.00320   0.46250   0.62260   0.01267  Uiso   1.00
C25    C     0.09460   0.51050   0.69020   0.01267  Uiso   1.00
C26    C     0.10330   0.58520   0.77210   0.01267  Uiso   1.00
C27    C     0.88040   0.97750   0.76680   0.01267  Uiso   1.00
C28    C     0.03090   0.06040   0.78300   0.01267  Uiso   1.00
C29    C     0.13280   0.10540   0.81430   0.01267  Uiso   1.00
C30    C     0.17450   0.16390   0.75610   0.01267  Uiso   1.00
C31    C     0.11530   0.17960   0.67000   0.01267  Uiso   1.00
C32    C     0.01670   0.13860   0.63980   0.01267  Uiso   1.00
C33    C     0.97260   0.07850   0.69750   0.01267  Uiso   1.00
C34    C     0.79170   0.01830   0.61430   0.01267  Uiso   1.00
C35    C     0.72410   0.92590   0.57000   0.01267  Uiso   1.00
C36    C     0.64150   0.92140   0.49750   0.01267  Uiso   1.00
C37    C     0.62260   0.00320   0.46250   0.01267  Uiso   1.00
C38    C     0.69020   0.09460   0.51050   0.01267  Uiso   1.00
C39    C     0.77210   0.10330   0.58520   0.01267  Uiso   1.00
C40    C     0.11960   0.23320   0.02250   0.01267  Uiso   1.00
C41    C     0.96910   0.21700   0.93960   0.01267  Uiso   1.00
C42    C     0.86720   0.18570   0.89460   0.01267  Uiso   1.00
C43    C     0.82550   0.24390   0.83610   0.01267  Uiso   1.00
C44    C     0.88470   0.33000   0.82040   0.01267  Uiso   1.00
C45    C     0.98330   0.36020   0.86140   0.01267  Uiso   1.00
C46    C     0.02740   0.30250   0.92150   0.01267  Uiso   1.00
C47    C     0.20830   0.38570   0.98170   0.01267  Uiso   1.00
C48    C     0.27590   0.43000   0.07410   0.01267  Uiso   1.00
C49    C     0.35850   0.50250   0.07860   0.01267  Uiso   1.00
C50    C     0.37740   0.53750   0.99680   0.01267  Uiso   1.00
C51    C     0.30980   0.48950   0.90540   0.01267  Uiso   1.00
C52    C     0.22790   0.41480   0.89670   0.01267  Uiso   1.00
C53    C     0.23320   0.02250   0.11960   0.01267  Uiso   1.00
C54    C     0.21700   0.93960   0.96910   0.01267  Uiso   1.00
C55    C     0.18570   0.89460   0.86720   0.01267  Uiso   1.00
C56    C     0.24390   0.83610   0.82550   0.01267  Uiso   1.00
C57    C     0.33000   0.82040   0.88470   0.01267  Uiso   1.00
C58    C     0.36020   0.86140   0.98330   0.01267  Uiso   1.00
C59    C     0.30250   0.92150   0.02740   0.01267  Uiso   1.00
C60    C     0.38570   0.98170   0.20830   0.01267  Uiso   1.00
C61    C     0.43000   0.07410   0.27590   0.01267  Uiso   1.00
C62    C     0.50250   0.07860   0.35850   0.01267  Uiso   1.00
C63    C     0.53750   0.99680   0.37740   0.01267  Uiso   1.00
C64    C     0.48950   0.90540   0.30980   0.01267  Uiso   1.00
C65    C     0.41480   0.89670   0.22790   0.01267  Uiso   1.00
C66    C     0.02250   0.11960   0.23320   0.01267  Uiso   1.00
C67    C     0.93960   0.96910   0.21700   0.01267  Uiso   1.00
C68    C     0.89460   0.86720   0.18570   0.01267  Uiso   1.00
C69    C     0.83610   0.82550   0.24390   0.01267  Uiso   1.00
C70    C     0.82040   0.88470   0.33000   0.01267  Uiso   1.00
C71    C     0.86140   0.98330   0.36020   0.01267  Uiso   1.00
C72    C     0.92150   0.02740   0.30250   0.01267  Uiso   1.00
C73    C     0.98170   0.20830   0.38570   0.01267  Uiso   1.00
C74    C     0.07410   0.27590   0.43000   0.01267  Uiso   1.00
C75    C     0.07860   0.35850   0.50250   0.01267  Uiso   1.00
C76    C     0.99680   0.37740   0.53750   0.01267  Uiso   1.00
C77    C     0.90540   0.30980   0.48950   0.01267  Uiso   1.00
C78    C     0.89670   0.22790   0.41480   0.01267  Uiso   1.00
N1     N     0.82590   0.97130   0.99850   0.01267  Uiso   1.00
N2     N     0.68920   0.87820   0.02580   0.01267  Uiso   1.00
N3     N     0.99850   0.82590   0.97130   0.01267  Uiso   1.00
N4     N     0.02580   0.68920   0.87820   0.01267  Uiso   1.00
N5     N     0.97130   0.99850   0.82590   0.01267  Uiso   1.00
N6     N     0.87820   0.02580   0.68920   0.01267  Uiso   1.00
N7     N     0.02870   0.17410   0.00150   0.01267  Uiso   1.00
N8     N     0.12180   0.31080   0.97420   0.01267  Uiso   1.00
N9     N     0.17410   0.00150   0.02870   0.01267  Uiso   1.00
N10    N     0.31080   0.97420   0.12180   0.01267  Uiso   1.00
N11    N     0.00150   0.02870   0.17410   0.01267  Uiso   1.00
N12    N     0.97420   0.12180   0.31080   0.01267  Uiso   1.00
Cl1    Cl    0.70280   0.70280   0.70280   0.01267  Uiso   1.00
O1     O     0.66840   0.78910   0.74240   0.01267  Uiso   1.00
O2     O     0.74240   0.66840   0.78910   0.01267  Uiso   1.00
O3     O     0.78910   0.74240   0.66840   0.01267  Uiso   1.00
O4     O     0.62760   0.62760   0.62760   0.01267  Uiso   1.00
Cl2    Cl    0.29720   0.29720   0.29720   0.01267  Uiso   1.00
O5     O     0.21090   0.33160   0.25760   0.01267  Uiso   1.00
O6     O     0.33160   0.25760   0.21090   0.01267  Uiso   1.00
O7     O     0.25760   0.21090   0.33160   0.01267  Uiso   1.00
O8     O     0.37240   0.37240   0.37240   0.01267  Uiso   1.00
