data_image0
_cell_length_a       8.0674
_cell_length_b       10.006
_cell_length_c       20.4432
_cell_angle_alpha    100.972
_cell_angle_beta     95.065
_cell_angle_gamma    105.053

_symmetry_space_group_name_H-M    "P 1"
_symmetry_int_tables_number       1

loop_
  _symmetry_equiv_pos_as_xyz
  'x, y, z'

loop_
  _atom_site_label
  _atom_site_occupancy
  _atom_site_fract_x
  _atom_site_fract_y
  _atom_site_fract_z
  _atom_site_thermal_displace_type
  _atom_site_B_iso_or_equiv
  _atom_site_type_symbol
  In1      1.0000 0.11547  0.46939  0.62531  Biso   1.000  In
  In2      1.0000 0.90401  0.90585  0.66927  Biso   1.000  In
  In3      1.0000 0.65109  0.68307  0.82015  Biso   1.000  In
  In4      1.0000 0.02231  0.36439  0.88908  Biso   1.000  In
  P1       1.0000 0.75360  0.54190  0.95330  Biso   1.000  P
  P2       1.0000 0.01010  0.67960  0.75263  Biso   1.000  P
  P3       1.0000 0.97680  0.67930  0.53957  Biso   1.000  P
  P4       1.0000 0.48580  0.74030  0.67197  Biso   1.000  P
  P5       1.0000 0.83000  0.02120  0.83257  Biso   1.000  P
  H1       1.0000 0.71320  0.03360  0.82970  Biso   1.000  H
  O1       1.0000 0.36230  0.60630  0.63010  Biso   1.000  O
  O2       1.0000 0.94820  0.57350  0.58450  Biso   1.000  O
  O3       1.0000 0.07940  0.55500  0.72480  Biso   1.000  O
  O4       1.0000 0.85470  0.62390  0.47390  Biso   1.000  O
  O5       1.0000 0.88680  0.28870  0.61890  Biso   1.000  O
  O6       1.0000 0.21790  0.31120  0.66480  Biso   1.000  O
  O7       1.0000 0.65540  0.76490  0.64260  Biso   1.000  O
  O8       1.0000 0.85730  0.00810  0.76340  Biso   1.000  O
  O9       1.0000 0.96390  0.82410  0.57450  Biso   1.000  O
  O10      1.0000 0.05760  0.80040  0.71670  Biso   1.000  O
  O11      1.0000 0.80820  0.06520  0.62960  Biso   1.000  O
  O12      1.0000 0.13680  0.09000  0.67970  Biso   1.000  O
  O13      1.0000 0.80220  0.89100  0.86100  Biso   1.000  O
  O14      1.0000 0.81680  0.62540  0.75480  Biso   1.000  O
  O15      1.0000 0.78050  0.63260  0.90170  Biso   1.000  O
  O16      1.0000 0.50630  0.74300  0.74580  Biso   1.000  O
  O17      1.0000 0.47360  0.46710  0.80010  Biso   1.000  O
  O18      1.0000 0.43440  0.70510  0.87640  Biso   1.000  O
  O19      1.0000 0.82930  0.41840  0.93910  Biso   1.000  O
  O20      1.0000 0.92580  0.14750  0.88320  Biso   1.000  O
  O21      1.0000 0.81600  0.63190  0.02400  Biso   1.000  O
  O22      1.0000 0.17700  0.58310  0.89470  Biso   1.000  O
  O23      1.0000 0.23640  0.34030  0.83160  Biso   1.000  O
  C1       1.0000 0.31550  0.59350  0.87010  Biso   1.000  C
  C2       1.0000 0.34450  0.45520  0.83000  Biso   1.000  C
  C3       1.0000 0.91830  0.18230  0.63490  Biso   1.000  C
  C4       1.0000 0.10730  0.19530  0.66240  Biso   1.000  C
  H2       1.0000 0.56100  0.48100  0.94200  Biso   1.000  H
  H3       1.0000 0.07800  0.72800  0.81300  Biso   1.000  H
  H4       1.0000 0.14200  0.69600  0.52200  Biso   1.000  H
  H5       1.0000 0.41200  0.84500  0.66100  Biso   1.000  H
  In5      1.0000 0.88453  0.53061  0.37469  Biso   1.000  In
  In6      1.0000 0.09599  0.09415  0.33073  Biso   1.000  In
  In7      1.0000 0.34891  0.31693  0.17985  Biso   1.000  In
  In8      1.0000 0.97769  0.63561  0.11092  Biso   1.000  In
  P6       1.0000 0.24640  0.45810  0.04670  Biso   1.000  P
  P7       1.0000 0.98990  0.32040  0.24737  Biso   1.000  P
  P8       1.0000 0.02320  0.32070  0.46043  Biso   1.000  P
  P9       1.0000 0.51420  0.25970  0.32803  Biso   1.000  P
  P10      1.0000 0.17000  0.97880  0.16743  Biso   1.000  P
  H6       1.0000 0.28680  0.96640  0.17030  Biso   1.000  H
  O24      1.0000 0.63770  0.39370  0.36990  Biso   1.000  O
  O25      1.0000 0.05180  0.42650  0.41550  Biso   1.000  O
  O26      1.0000 0.92060  0.44500  0.27520  Biso   1.000  O
  O27      1.0000 0.14530  0.37610  0.52610  Biso   1.000  O
  O28      1.0000 0.11320  0.71130  0.38110  Biso   1.000  O
  O29      1.0000 0.78210  0.68880  0.33520  Biso   1.000  O
  O30      1.0000 0.34460  0.23510  0.35740  Biso   1.000  O
  O31      1.0000 0.14270  0.99190  0.23660  Biso   1.000  O
  O32      1.0000 0.03610  0.17590  0.42550  Biso   1.000  O
  O33      1.0000 0.94240  0.19960  0.28330  Biso   1.000  O
  O34      1.0000 0.19180  0.93480  0.37040  Biso   1.000  O
  O35      1.0000 0.86320  0.91000  0.32030  Biso   1.000  O
  O36      1.0000 0.19780  0.10900  0.13900  Biso   1.000  O
  O37      1.0000 0.18320  0.37460  0.24520  Biso   1.000  O
  O38      1.0000 0.21950  0.36740  0.09830  Biso   1.000  O
  O39      1.0000 0.49370  0.25700  0.25420  Biso   1.000  O
  O40      1.0000 0.52640  0.53290  0.19990  Biso   1.000  O
  O41      1.0000 0.56560  0.29490  0.12360  Biso   1.000  O
  O42      1.0000 0.17070  0.58160  0.06090  Biso   1.000  O
  O43      1.0000 0.07420  0.85250  0.11680  Biso   1.000  O
  O44      1.0000 0.18400  0.36810  0.97600  Biso   1.000  O
  O45      1.0000 0.82300  0.41690  0.10530  Biso   1.000  O
  O46      1.0000 0.76360  0.65970  0.16840  Biso   1.000  O
  C5       1.0000 0.68450  0.40650  0.12990  Biso   1.000  C
  C6       1.0000 0.65550  0.54480  0.17000  Biso   1.000  C
  C7       1.0000 0.08170  0.81770  0.36510  Biso   1.000  C
  C8       1.0000 0.89270  0.80470  0.33760  Biso   1.000  C
  H7       1.0000 0.43900  0.51900  0.05800  Biso   1.000  H
  H8       1.0000 0.92200  0.27200  0.18700  Biso   1.000  H
  H9       1.0000 0.85800  0.30400  0.47800  Biso   1.000  H
  H10      1.0000 0.58800  0.15500  0.33900  Biso   1.000  H
