data_image0
_cell_length_a       13.8684
_cell_length_b       13.8684
_cell_length_c       18.6368
_cell_angle_alpha    90
_cell_angle_beta     90
_cell_angle_gamma    120

_symmetry_space_group_name_H-M    "P 1"
_symmetry_int_tables_number       1

loop_
  _symmetry_equiv_pos_as_xyz
  'x, y, z'

loop_
  _atom_site_label
  _atom_site_occupancy
  _atom_site_fract_x
  _atom_site_fract_y
  _atom_site_fract_z
  _atom_site_thermal_displace_type
  _atom_site_B_iso_or_equiv
  _atom_site_type_symbol
  H1       1.0000 0.27300  0.98800  0.98500  Biso   1.000  H
  H2       1.0000 0.36500  0.10300  0.98700  Biso   1.000  H
  In1      1.0000 0.43918  0.14564  0.03980  Biso   1.000  In
  P1       1.0000 0.19152  0.03160  0.12807  Biso   1.000  P
  H3       1.0000 0.20190  0.97400  0.15140  Biso   1.000  H
  P2       1.0000 0.63055  0.12406  0.94196  Biso   1.000  P
  H4       1.0000 0.67490  0.16470  0.90000  Biso   1.000  H
  O1       1.0000 0.11610  0.97750  0.06340  Biso   1.000  O
  O2       1.0000 0.14590  0.07760  0.18480  Biso   1.000  O
  O3       1.0000 0.55760  0.23320  0.12060  Biso   1.000  O
  O4       1.0000 0.55290  0.16830  0.95740  Biso   1.000  O
  O5       1.0000 0.56800  0.00170  0.92180  Biso   1.000  O
  O6       1.0000 0.71270  0.14570  0.00290  Biso   1.000  O
  O7       1.0000 0.30710  0.12620  0.10710  Biso   1.000  O
  O8       1.0000 0.30850  0.05260  0.95570  Biso   1.000  O
  H5       1.0000 0.01200  0.28500  0.98500  Biso   1.000  H
  H6       1.0000 0.89700  0.26200  0.98700  Biso   1.000  H
  In2      1.0000 0.85436  0.29354  0.03980  Biso   1.000  In
  P3       1.0000 0.96840  0.15992  0.12807  Biso   1.000  P
  H7       1.0000 0.02600  0.22790  0.15140  Biso   1.000  H
  P4       1.0000 0.87594  0.50649  0.94196  Biso   1.000  P
  H8       1.0000 0.83530  0.51020  0.90000  Biso   1.000  H
  O9       1.0000 0.02250  0.13860  0.06340  Biso   1.000  O
  O10      1.0000 0.92240  0.06830  0.18480  Biso   1.000  O
  O11      1.0000 0.76680  0.32440  0.12060  Biso   1.000  O
  O12      1.0000 0.83170  0.38460  0.95740  Biso   1.000  O
  O13      1.0000 0.99830  0.56630  0.92180  Biso   1.000  O
  O14      1.0000 0.85430  0.56700  0.00290  Biso   1.000  O
  O15      1.0000 0.87380  0.18090  0.10710  Biso   1.000  O
  O16      1.0000 0.94740  0.25590  0.95570  Biso   1.000  O
  H9       1.0000 0.71500  0.72700  0.98500  Biso   1.000  H
  H10      1.0000 0.73800  0.63500  0.98700  Biso   1.000  H
  In3      1.0000 0.70646  0.56082  0.03980  Biso   1.000  In
  P5       1.0000 0.84008  0.80848  0.12807  Biso   1.000  P
  H11      1.0000 0.77210  0.79810  0.15140  Biso   1.000  H
  P6       1.0000 0.49351  0.36945  0.94196  Biso   1.000  P
  H12      1.0000 0.48980  0.32510  0.90000  Biso   1.000  H
  O17      1.0000 0.86140  0.88390  0.06340  Biso   1.000  O
  O18      1.0000 0.93170  0.85410  0.18480  Biso   1.000  O
  O19      1.0000 0.67560  0.44240  0.12060  Biso   1.000  O
  O20      1.0000 0.61540  0.44710  0.95740  Biso   1.000  O
  O21      1.0000 0.43370  0.43200  0.92180  Biso   1.000  O
  O22      1.0000 0.43300  0.28730  0.00290  Biso   1.000  O
  O23      1.0000 0.81910  0.69290  0.10710  Biso   1.000  O
  O24      1.0000 0.74410  0.69150  0.95570  Biso   1.000  O
  H13      1.0000 0.98800  0.27300  0.51500  Biso   1.000  H
  H14      1.0000 0.10300  0.36500  0.51300  Biso   1.000  H
  In4      1.0000 0.14564  0.43918  0.46020  Biso   1.000  In
  P7       1.0000 0.03160  0.19152  0.37193  Biso   1.000  P
  H15      1.0000 0.97400  0.20190  0.34860  Biso   1.000  H
  P8       1.0000 0.12406  0.63055  0.55804  Biso   1.000  P
  H16      1.0000 0.16470  0.67490  0.60000  Biso   1.000  H
  O25      1.0000 0.97750  0.11610  0.43660  Biso   1.000  O
  O26      1.0000 0.07760  0.14590  0.31520  Biso   1.000  O
  O27      1.0000 0.23320  0.55760  0.37940  Biso   1.000  O
  O28      1.0000 0.16830  0.55290  0.54260  Biso   1.000  O
  O29      1.0000 0.00170  0.56800  0.57820  Biso   1.000  O
  O30      1.0000 0.14570  0.71270  0.49710  Biso   1.000  O
  O31      1.0000 0.12620  0.30710  0.39290  Biso   1.000  O
  O32      1.0000 0.05260  0.30850  0.54430  Biso   1.000  O
  H17      1.0000 0.28500  0.01200  0.51500  Biso   1.000  H
  H18      1.0000 0.26200  0.89700  0.51300  Biso   1.000  H
  In5      1.0000 0.29354  0.85436  0.46020  Biso   1.000  In
  P9       1.0000 0.15992  0.96840  0.37193  Biso   1.000  P
  H19      1.0000 0.22790  0.02600  0.34860  Biso   1.000  H
  P10      1.0000 0.50649  0.87594  0.55804  Biso   1.000  P
  H20      1.0000 0.51020  0.83530  0.60000  Biso   1.000  H
  O33      1.0000 0.13860  0.02250  0.43660  Biso   1.000  O
  O34      1.0000 0.06830  0.92240  0.31520  Biso   1.000  O
  O35      1.0000 0.32440  0.76680  0.37940  Biso   1.000  O
  O36      1.0000 0.38460  0.83170  0.54260  Biso   1.000  O
  O37      1.0000 0.56630  0.99830  0.57820  Biso   1.000  O
  O38      1.0000 0.56700  0.85430  0.49710  Biso   1.000  O
  O39      1.0000 0.18090  0.87380  0.39290  Biso   1.000  O
  O40      1.0000 0.25590  0.94740  0.54430  Biso   1.000  O
  H21      1.0000 0.72700  0.71500  0.51500  Biso   1.000  H
  H22      1.0000 0.63500  0.73800  0.51300  Biso   1.000  H
  In6      1.0000 0.56082  0.70646  0.46020  Biso   1.000  In
  P11      1.0000 0.80848  0.84008  0.37193  Biso   1.000  P
  H23      1.0000 0.79810  0.77210  0.34860  Biso   1.000  H
  P12      1.0000 0.36945  0.49351  0.55804  Biso   1.000  P
  H24      1.0000 0.32510  0.48980  0.60000  Biso   1.000  H
  O41      1.0000 0.88390  0.86140  0.43660  Biso   1.000  O
  O42      1.0000 0.85410  0.93170  0.31520  Biso   1.000  O
  O43      1.0000 0.44240  0.67560  0.37940  Biso   1.000  O
  O44      1.0000 0.44710  0.61540  0.54260  Biso   1.000  O
  O45      1.0000 0.43200  0.43370  0.57820  Biso   1.000  O
  O46      1.0000 0.28730  0.43300  0.49710  Biso   1.000  O
  O47      1.0000 0.69290  0.81910  0.39290  Biso   1.000  O
  O48      1.0000 0.69150  0.74410  0.54430  Biso   1.000  O
  H25      1.0000 0.72700  0.01200  0.01500  Biso   1.000  H
  H26      1.0000 0.63500  0.89700  0.01300  Biso   1.000  H
  In7      1.0000 0.56082  0.85436  0.96020  Biso   1.000  In
  P13      1.0000 0.80848  0.96840  0.87193  Biso   1.000  P
  H27      1.0000 0.79810  0.02600  0.84860  Biso   1.000  H
  P14      1.0000 0.36945  0.87594  0.05804  Biso   1.000  P
  H28      1.0000 0.32510  0.83530  0.10000  Biso   1.000  H
  O49      1.0000 0.88390  0.02250  0.93660  Biso   1.000  O
  O50      1.0000 0.85410  0.92240  0.81520  Biso   1.000  O
  O51      1.0000 0.44240  0.76680  0.87940  Biso   1.000  O
  O52      1.0000 0.44710  0.83170  0.04260  Biso   1.000  O
  O53      1.0000 0.43200  0.99830  0.07820  Biso   1.000  O
  O54      1.0000 0.28730  0.85430  0.99710  Biso   1.000  O
  O55      1.0000 0.69290  0.87380  0.89290  Biso   1.000  O
  O56      1.0000 0.69150  0.94740  0.04430  Biso   1.000  O
  H29      1.0000 0.98800  0.71500  0.01500  Biso   1.000  H
  H30      1.0000 0.10300  0.73800  0.01300  Biso   1.000  H
  In8      1.0000 0.14564  0.70646  0.96020  Biso   1.000  In
  P15      1.0000 0.03160  0.84008  0.87193  Biso   1.000  P
  H31      1.0000 0.97400  0.77210  0.84860  Biso   1.000  H
  P16      1.0000 0.12406  0.49351  0.05804  Biso   1.000  P
  H32      1.0000 0.16470  0.48980  0.10000  Biso   1.000  H
  O57      1.0000 0.97750  0.86140  0.93660  Biso   1.000  O
  O58      1.0000 0.07760  0.93170  0.81520  Biso   1.000  O
  O59      1.0000 0.23320  0.67560  0.87940  Biso   1.000  O
  O60      1.0000 0.16830  0.61540  0.04260  Biso   1.000  O
  O61      1.0000 0.00170  0.43370  0.07820  Biso   1.000  O
  O62      1.0000 0.14570  0.43300  0.99710  Biso   1.000  O
  O63      1.0000 0.12620  0.81910  0.89290  Biso   1.000  O
  O64      1.0000 0.05260  0.74410  0.04430  Biso   1.000  O
  H33      1.0000 0.28500  0.27300  0.01500  Biso   1.000  H
  H34      1.0000 0.26200  0.36500  0.01300  Biso   1.000  H
  In9      1.0000 0.29354  0.43918  0.96020  Biso   1.000  In
  P17      1.0000 0.15992  0.19152  0.87193  Biso   1.000  P
  H35      1.0000 0.22790  0.20190  0.84860  Biso   1.000  H
  P18      1.0000 0.50649  0.63055  0.05804  Biso   1.000  P
  H36      1.0000 0.51020  0.67490  0.10000  Biso   1.000  H
  O65      1.0000 0.13860  0.11610  0.93660  Biso   1.000  O
  O66      1.0000 0.06830  0.14590  0.81520  Biso   1.000  O
  O67      1.0000 0.32440  0.55760  0.87940  Biso   1.000  O
  O68      1.0000 0.38460  0.55290  0.04260  Biso   1.000  O
  O69      1.0000 0.56630  0.56800  0.07820  Biso   1.000  O
  O70      1.0000 0.56700  0.71270  0.99710  Biso   1.000  O
  O71      1.0000 0.18090  0.30710  0.89290  Biso   1.000  O
  O72      1.0000 0.25590  0.30850  0.04430  Biso   1.000  O
  H37      1.0000 0.01200  0.72700  0.48500  Biso   1.000  H
  H38      1.0000 0.89700  0.63500  0.48700  Biso   1.000  H
  In10     1.0000 0.85436  0.56082  0.53980  Biso   1.000  In
  P19      1.0000 0.96840  0.80848  0.62807  Biso   1.000  P
  H39      1.0000 0.02600  0.79810  0.65140  Biso   1.000  H
  P20      1.0000 0.87594  0.36945  0.44196  Biso   1.000  P
  H40      1.0000 0.83530  0.32510  0.40000  Biso   1.000  H
  O73      1.0000 0.02250  0.88390  0.56340  Biso   1.000  O
  O74      1.0000 0.92240  0.85410  0.68480  Biso   1.000  O
  O75      1.0000 0.76680  0.44240  0.62060  Biso   1.000  O
  O76      1.0000 0.83170  0.44710  0.45740  Biso   1.000  O
  O77      1.0000 0.99830  0.43200  0.42180  Biso   1.000  O
  O78      1.0000 0.85430  0.28730  0.50290  Biso   1.000  O
  O79      1.0000 0.87380  0.69290  0.60710  Biso   1.000  O
  O80      1.0000 0.94740  0.69150  0.45570  Biso   1.000  O
  H41      1.0000 0.71500  0.98800  0.48500  Biso   1.000  H
  H42      1.0000 0.73800  0.10300  0.48700  Biso   1.000  H
  In11     1.0000 0.70646  0.14564  0.53980  Biso   1.000  In
  P21      1.0000 0.84008  0.03160  0.62807  Biso   1.000  P
  H43      1.0000 0.77210  0.97400  0.65140  Biso   1.000  H
  P22      1.0000 0.49351  0.12406  0.44196  Biso   1.000  P
  H44      1.0000 0.48980  0.16470  0.40000  Biso   1.000  H
  O81      1.0000 0.86140  0.97750  0.56340  Biso   1.000  O
  O82      1.0000 0.93170  0.07760  0.68480  Biso   1.000  O
  O83      1.0000 0.67560  0.23320  0.62060  Biso   1.000  O
  O84      1.0000 0.61540  0.16830  0.45740  Biso   1.000  O
  O85      1.0000 0.43370  0.00170  0.42180  Biso   1.000  O
  O86      1.0000 0.43300  0.14570  0.50290  Biso   1.000  O
  O87      1.0000 0.81910  0.12620  0.60710  Biso   1.000  O
  O88      1.0000 0.74410  0.05260  0.45570  Biso   1.000  O
  H45      1.0000 0.27300  0.28500  0.48500  Biso   1.000  H
  H46      1.0000 0.36500  0.26200  0.48700  Biso   1.000  H
  In12     1.0000 0.43918  0.29354  0.53980  Biso   1.000  In
  P23      1.0000 0.19152  0.15992  0.62807  Biso   1.000  P
  H47      1.0000 0.20190  0.22790  0.65140  Biso   1.000  H
  P24      1.0000 0.63055  0.50649  0.44196  Biso   1.000  P
  H48      1.0000 0.67490  0.51020  0.40000  Biso   1.000  H
  O89      1.0000 0.11610  0.13860  0.56340  Biso   1.000  O
  O90      1.0000 0.14590  0.06830  0.68480  Biso   1.000  O
  O91      1.0000 0.55760  0.32440  0.62060  Biso   1.000  O
  O92      1.0000 0.55290  0.38460  0.45740  Biso   1.000  O
  O93      1.0000 0.56800  0.56630  0.42180  Biso   1.000  O
  O94      1.0000 0.71270  0.56700  0.50290  Biso   1.000  O
  O95      1.0000 0.30710  0.18090  0.60710  Biso   1.000  O
  O96      1.0000 0.30850  0.25590  0.45570  Biso   1.000  O
  In13     1.0000 0.00000  0.00000  0.00000  Biso   1.000  In
  In14     1.0000 0.00000  0.00000  0.50000  Biso   1.000  In
  In15     1.0000 0.00000  0.00000  0.25000  Biso   1.000  In
  In16     1.0000 0.00000  0.00000  0.75000  Biso   1.000  In
  P25      1.0000 0.66667  0.33333  0.14100  Biso   1.000  P
  H49      1.0000 0.66667  0.33333  0.19360  Biso   1.000  H
  P26      1.0000 0.33333  0.66667  0.35900  Biso   1.000  P
  H50      1.0000 0.33333  0.66667  0.30640  Biso   1.000  H
  P27      1.0000 0.33333  0.66667  0.85900  Biso   1.000  P
  H51      1.0000 0.33333  0.66667  0.80640  Biso   1.000  H
  P28      1.0000 0.66667  0.33333  0.64100  Biso   1.000  P
  H52      1.0000 0.66667  0.33333  0.69360  Biso   1.000  H
