data_HUZSOL_clean
_audit_creation_date              2014-07-02
_audit_creation_method            'Materials Studio'
_symmetry_space_group_name_H-M    'P1'
_symmetry_Int_Tables_number       1
_symmetry_cell_setting            triclinic
loop_
_symmetry_equiv_pos_as_xyz
  x,y,z
_cell_length_a                    17.1080
_cell_length_b                    21.6440
_cell_length_c                    25.2580
_cell_angle_alpha                 90.0000
_cell_angle_beta                  90.0000
_cell_angle_gamma                 90.0000
loop_
_atom_site_label
_atom_site_type_symbol
_atom_site_fract_x
_atom_site_fract_y
_atom_site_fract_z
_atom_site_U_iso_or_equiv
_atom_site_adp_type
_atom_site_occupancy
Na1    Na    0.89610   0.25000   0.71060   0.01267  Uiso   1.00
Na2    Na    0.60390   0.75000   0.21060   0.01267  Uiso   1.00
Na3    Na    0.78480   0.75000   0.26510   0.01267  Uiso   1.00
Na4    Na    0.71520   0.25000   0.76510   0.01267  Uiso   1.00
Zn1    Zn    0.99284   0.83462   0.38424   0.01267  Uiso   1.00
Zn2    Zn    0.50716   0.16538   0.88424   0.01267  Uiso   1.00
Zn3    Zn    0.99284   0.66538   0.38424   0.01267  Uiso   1.00
Zn4    Zn    0.50716   0.33462   0.88424   0.01267  Uiso   1.00
Zn5    Zn    0.88078   0.75000   0.31365   0.01267  Uiso   1.00
Zn6    Zn    0.61922   0.25000   0.81365   0.01267  Uiso   1.00
H1     H     0.85200   0.37890   0.68590   0.01267  Uiso   1.00
H2     H     0.81440   0.53080   0.69390   0.01267  Uiso   1.00
H3     H     0.73660   0.51120   0.66570   0.01267  Uiso   1.00
H4     H     0.81630   0.48170   0.64830   0.01267  Uiso   1.00
H5     H     0.71630   0.43220   0.78270   0.01267  Uiso   1.00
H6     H     0.70200   0.49660   0.75600   0.01267  Uiso   1.00
H7     H     0.77980   0.48410   0.78710   0.01267  Uiso   1.00
H8     H     0.64800   0.62110   0.18590   0.01267  Uiso   1.00
H9     H     0.68560   0.46920   0.19390   0.01267  Uiso   1.00
H10    H     0.76340   0.48880   0.16570   0.01267  Uiso   1.00
H11    H     0.68370   0.51830   0.14830   0.01267  Uiso   1.00
H12    H     0.78370   0.56780   0.28270   0.01267  Uiso   1.00
H13    H     0.79800   0.50340   0.25600   0.01267  Uiso   1.00
H14    H     0.72020   0.51590   0.28710   0.01267  Uiso   1.00
H15    H     0.88320   0.04000   0.07680   0.01267  Uiso   1.00
H16    H     0.02400   0.12220   0.97190   0.01267  Uiso   1.00
H17    H     0.11600   0.03400   0.09590   0.01267  Uiso   1.00
H18    H     0.89810   0.94050   0.11400   0.01267  Uiso   1.00
H19    H     0.88720   0.87470   0.18400   0.01267  Uiso   1.00
H20    H     0.06110   0.96230   0.25820   0.01267  Uiso   1.00
H21    H     0.07160   0.02880   0.18710   0.01267  Uiso   1.00
H22    H     0.79890   0.11420   0.05290   0.01267  Uiso   1.00
H23    H     0.68730   0.13990   0.00770   0.01267  Uiso   1.00
H24    H     0.80960   0.13800   0.87230   0.01267  Uiso   1.00
H25    H     0.91960   0.10670   0.91680   0.01267  Uiso   1.00
H26    H     0.14950   0.17360   0.97950   0.01267  Uiso   1.00
H27    H     0.27350   0.18440   0.94160   0.01267  Uiso   1.00
H28    H     0.32940   0.01420   0.98920   0.01267  Uiso   1.00
H29    H     0.20720   0.00590   0.02940   0.01267  Uiso   1.00
H30    H     0.61680   0.96000   0.57680   0.01267  Uiso   1.00
H31    H     0.47600   0.87780   0.47190   0.01267  Uiso   1.00
H32    H     0.38400   0.96600   0.59590   0.01267  Uiso   1.00
H33    H     0.60190   0.05950   0.61400   0.01267  Uiso   1.00
H34    H     0.61280   0.12530   0.68400   0.01267  Uiso   1.00
H35    H     0.43890   0.03770   0.75820   0.01267  Uiso   1.00
H36    H     0.42840   0.97120   0.68710   0.01267  Uiso   1.00
H37    H     0.70110   0.88580   0.55290   0.01267  Uiso   1.00
H38    H     0.81270   0.86010   0.50770   0.01267  Uiso   1.00
H39    H     0.69040   0.86200   0.37230   0.01267  Uiso   1.00
H40    H     0.58040   0.89330   0.41680   0.01267  Uiso   1.00
H41    H     0.35050   0.82640   0.47950   0.01267  Uiso   1.00
H42    H     0.22650   0.81560   0.44160   0.01267  Uiso   1.00
H43    H     0.17060   0.98580   0.48920   0.01267  Uiso   1.00
H44    H     0.29280   0.99410   0.52940   0.01267  Uiso   1.00
H45    H     0.88320   0.46000   0.07680   0.01267  Uiso   1.00
H46    H     0.02400   0.37780   0.97190   0.01267  Uiso   1.00
H47    H     0.11600   0.46600   0.09590   0.01267  Uiso   1.00
H48    H     0.89810   0.55950   0.11400   0.01267  Uiso   1.00
H49    H     0.88720   0.62530   0.18400   0.01267  Uiso   1.00
H50    H     0.06110   0.53770   0.25820   0.01267  Uiso   1.00
H51    H     0.07160   0.47120   0.18710   0.01267  Uiso   1.00
H52    H     0.79890   0.38580   0.05290   0.01267  Uiso   1.00
H53    H     0.68730   0.36010   0.00770   0.01267  Uiso   1.00
H54    H     0.80960   0.36200   0.87230   0.01267  Uiso   1.00
H55    H     0.91960   0.39330   0.91680   0.01267  Uiso   1.00
H56    H     0.14950   0.32640   0.97950   0.01267  Uiso   1.00
H57    H     0.27350   0.31560   0.94160   0.01267  Uiso   1.00
H58    H     0.32940   0.48580   0.98920   0.01267  Uiso   1.00
H59    H     0.20720   0.49410   0.02940   0.01267  Uiso   1.00
H60    H     0.61680   0.54000   0.57680   0.01267  Uiso   1.00
H61    H     0.47600   0.62220   0.47190   0.01267  Uiso   1.00
H62    H     0.38400   0.53400   0.59590   0.01267  Uiso   1.00
H63    H     0.60190   0.44050   0.61400   0.01267  Uiso   1.00
H64    H     0.61280   0.37470   0.68400   0.01267  Uiso   1.00
H65    H     0.43890   0.46230   0.75820   0.01267  Uiso   1.00
H66    H     0.42840   0.52880   0.68710   0.01267  Uiso   1.00
H67    H     0.70110   0.61420   0.55290   0.01267  Uiso   1.00
H68    H     0.81270   0.63990   0.50770   0.01267  Uiso   1.00
H69    H     0.69040   0.63800   0.37230   0.01267  Uiso   1.00
H70    H     0.58040   0.60670   0.41680   0.01267  Uiso   1.00
H71    H     0.35050   0.67360   0.47950   0.01267  Uiso   1.00
H72    H     0.22650   0.68440   0.44160   0.01267  Uiso   1.00
H73    H     0.17060   0.51420   0.48920   0.01267  Uiso   1.00
H74    H     0.29280   0.50590   0.52940   0.01267  Uiso   1.00
H75    H     0.85200   0.12110   0.68590   0.01267  Uiso   1.00
H76    H     0.81440   0.96920   0.69390   0.01267  Uiso   1.00
H77    H     0.73660   0.98880   0.66570   0.01267  Uiso   1.00
H78    H     0.81630   0.01830   0.64830   0.01267  Uiso   1.00
H79    H     0.71630   0.06780   0.78270   0.01267  Uiso   1.00
H80    H     0.70200   0.00340   0.75600   0.01267  Uiso   1.00
H81    H     0.77980   0.01590   0.78710   0.01267  Uiso   1.00
H82    H     0.64800   0.87890   0.18590   0.01267  Uiso   1.00
H83    H     0.68560   0.03080   0.19390   0.01267  Uiso   1.00
H84    H     0.76340   0.01120   0.16570   0.01267  Uiso   1.00
H85    H     0.68370   0.98170   0.14830   0.01267  Uiso   1.00
H86    H     0.78370   0.93220   0.28270   0.01267  Uiso   1.00
H87    H     0.79800   0.99660   0.25600   0.01267  Uiso   1.00
H88    H     0.72020   0.98410   0.28710   0.01267  Uiso   1.00
C1     C     0.80920   0.37990   0.70900   0.01267  Uiso   1.00
C2     C     0.78700   0.49700   0.67800   0.01267  Uiso   1.00
C3     C     0.74070   0.46600   0.76460   0.01267  Uiso   1.00
C4     C     0.69080   0.62010   0.20900   0.01267  Uiso   1.00
C5     C     0.71300   0.50300   0.17800   0.01267  Uiso   1.00
C6     C     0.75930   0.53400   0.26460   0.01267  Uiso   1.00
C7     C     0.99860   0.02950   0.09450   0.01267  Uiso   1.00
C8     C     0.93340   0.04990   0.06540   0.01267  Uiso   1.00
C9     C     0.94310   0.08440   0.02000   0.01267  Uiso   1.00
C10    C     0.01780   0.09830   0.00220   0.01267  Uiso   1.00
C11    C     0.08280   0.07730   0.02860   0.01267  Uiso   1.00
C12    C     0.07230   0.04510   0.07620   0.01267  Uiso   1.00
C13    C     0.98790   0.98880   0.14130   0.01267  Uiso   1.00
C14    C     0.93200   0.94470   0.14250   0.01267  Uiso   1.00
C15    C     0.92450   0.90600   0.18490   0.01267  Uiso   1.00
C16    C     0.97140   0.91250   0.22920   0.01267  Uiso   1.00
C17    C     0.02800   0.95790   0.22930   0.01267  Uiso   1.00
C18    C     0.03520   0.99700   0.18630   0.01267  Uiso   1.00
C19    C     0.87270   0.10720   0.99080   0.01267  Uiso   1.00
C20    C     0.80110   0.11820   0.01630   0.01267  Uiso   1.00
C21    C     0.73420   0.13470   0.98970   0.01267  Uiso   1.00
C22    C     0.73810   0.14350   0.93430   0.01267  Uiso   1.00
C23    C     0.80730   0.13270   0.90880   0.01267  Uiso   1.00
C24    C     0.87380   0.11440   0.93550   0.01267  Uiso   1.00
C25    C     0.16340   0.08830   0.00660   0.01267  Uiso   1.00
C26    C     0.18500   0.14120   0.98190   0.01267  Uiso   1.00
C27    C     0.26070   0.14830   0.95950   0.01267  Uiso   1.00
C28    C     0.31390   0.10280   0.96420   0.01267  Uiso   1.00
C29    C     0.29420   0.04700   0.98830   0.01267  Uiso   1.00
C30    C     0.21970   0.04170   0.01090   0.01267  Uiso   1.00
C31    C     0.96270   0.86860   0.27540   0.01267  Uiso   1.00
C32    C     0.66540   0.16170   0.90540   0.01267  Uiso   1.00
C33    C     0.39540   0.11070   0.93900   0.01267  Uiso   1.00
C34    C     0.50140   0.97050   0.59450   0.01267  Uiso   1.00
C35    C     0.56660   0.95010   0.56540   0.01267  Uiso   1.00
C36    C     0.55690   0.91560   0.52000   0.01267  Uiso   1.00
C37    C     0.48220   0.90170   0.50220   0.01267  Uiso   1.00
C38    C     0.41720   0.92270   0.52860   0.01267  Uiso   1.00
C39    C     0.42770   0.95490   0.57620   0.01267  Uiso   1.00
C40    C     0.51210   0.01120   0.64130   0.01267  Uiso   1.00
C41    C     0.56800   0.05530   0.64250   0.01267  Uiso   1.00
C42    C     0.57550   0.09400   0.68490   0.01267  Uiso   1.00
C43    C     0.52860   0.08750   0.72920   0.01267  Uiso   1.00
C44    C     0.47200   0.04210   0.72930   0.01267  Uiso   1.00
C45    C     0.46480   0.00300   0.68630   0.01267  Uiso   1.00
C46    C     0.62730   0.89280   0.49080   0.01267  Uiso   1.00
C47    C     0.69890   0.88180   0.51630   0.01267  Uiso   1.00
C48    C     0.76580   0.86530   0.48970   0.01267  Uiso   1.00
C49    C     0.76190   0.85650   0.43430   0.01267  Uiso   1.00
C50    C     0.69270   0.86730   0.40880   0.01267  Uiso   1.00
C51    C     0.62620   0.88560   0.43550   0.01267  Uiso   1.00
C52    C     0.33660   0.91170   0.50660   0.01267  Uiso   1.00
C53    C     0.31500   0.85880   0.48190   0.01267  Uiso   1.00
C54    C     0.23930   0.85170   0.45950   0.01267  Uiso   1.00
C55    C     0.18610   0.89720   0.46420   0.01267  Uiso   1.00
C56    C     0.20580   0.95300   0.48830   0.01267  Uiso   1.00
C57    C     0.28030   0.95830   0.51090   0.01267  Uiso   1.00
C58    C     0.53730   0.13140   0.77540   0.01267  Uiso   1.00
C59    C     0.83460   0.83830   0.40540   0.01267  Uiso   1.00
C60    C     0.10460   0.88930   0.43900   0.01267  Uiso   1.00
C61    C     0.99860   0.47050   0.09450   0.01267  Uiso   1.00
C62    C     0.93340   0.45010   0.06540   0.01267  Uiso   1.00
C63    C     0.94310   0.41560   0.02000   0.01267  Uiso   1.00
C64    C     0.01780   0.40170   0.00220   0.01267  Uiso   1.00
C65    C     0.08280   0.42270   0.02860   0.01267  Uiso   1.00
C66    C     0.07230   0.45490   0.07620   0.01267  Uiso   1.00
C67    C     0.98790   0.51120   0.14130   0.01267  Uiso   1.00
C68    C     0.93200   0.55530   0.14250   0.01267  Uiso   1.00
C69    C     0.92450   0.59400   0.18490   0.01267  Uiso   1.00
C70    C     0.97140   0.58750   0.22920   0.01267  Uiso   1.00
C71    C     0.02800   0.54210   0.22930   0.01267  Uiso   1.00
C72    C     0.03520   0.50300   0.18630   0.01267  Uiso   1.00
C73    C     0.87270   0.39280   0.99080   0.01267  Uiso   1.00
C74    C     0.80110   0.38180   0.01630   0.01267  Uiso   1.00
C75    C     0.73420   0.36530   0.98970   0.01267  Uiso   1.00
C76    C     0.73810   0.35650   0.93430   0.01267  Uiso   1.00
C77    C     0.80730   0.36730   0.90880   0.01267  Uiso   1.00
C78    C     0.87380   0.38560   0.93550   0.01267  Uiso   1.00
C79    C     0.16340   0.41170   0.00660   0.01267  Uiso   1.00
C80    C     0.18500   0.35880   0.98190   0.01267  Uiso   1.00
C81    C     0.26070   0.35170   0.95950   0.01267  Uiso   1.00
C82    C     0.31390   0.39720   0.96420   0.01267  Uiso   1.00
C83    C     0.29420   0.45300   0.98830   0.01267  Uiso   1.00
C84    C     0.21970   0.45830   0.01090   0.01267  Uiso   1.00
C85    C     0.96270   0.63140   0.27540   0.01267  Uiso   1.00
C86    C     0.66540   0.33830   0.90540   0.01267  Uiso   1.00
C87    C     0.39540   0.38930   0.93900   0.01267  Uiso   1.00
C88    C     0.50140   0.52950   0.59450   0.01267  Uiso   1.00
C89    C     0.56660   0.54990   0.56540   0.01267  Uiso   1.00
C90    C     0.55690   0.58440   0.52000   0.01267  Uiso   1.00
C91    C     0.48220   0.59830   0.50220   0.01267  Uiso   1.00
C92    C     0.41720   0.57730   0.52860   0.01267  Uiso   1.00
C93    C     0.42770   0.54510   0.57620   0.01267  Uiso   1.00
C94    C     0.51210   0.48880   0.64130   0.01267  Uiso   1.00
C95    C     0.56800   0.44470   0.64250   0.01267  Uiso   1.00
C96    C     0.57550   0.40600   0.68490   0.01267  Uiso   1.00
C97    C     0.52860   0.41250   0.72920   0.01267  Uiso   1.00
C98    C     0.47200   0.45790   0.72930   0.01267  Uiso   1.00
C99    C     0.46480   0.49700   0.68630   0.01267  Uiso   1.00
C100   C     0.62730   0.60720   0.49080   0.01267  Uiso   1.00
C101   C     0.69890   0.61820   0.51630   0.01267  Uiso   1.00
C102   C     0.76580   0.63470   0.48970   0.01267  Uiso   1.00
C103   C     0.76190   0.64350   0.43430   0.01267  Uiso   1.00
C104   C     0.69270   0.63270   0.40880   0.01267  Uiso   1.00
C105   C     0.62620   0.61440   0.43550   0.01267  Uiso   1.00
C106   C     0.33660   0.58830   0.50660   0.01267  Uiso   1.00
C107   C     0.31500   0.64120   0.48190   0.01267  Uiso   1.00
C108   C     0.23930   0.64830   0.45950   0.01267  Uiso   1.00
C109   C     0.18610   0.60280   0.46420   0.01267  Uiso   1.00
C110   C     0.20580   0.54700   0.48830   0.01267  Uiso   1.00
C111   C     0.28030   0.54170   0.51090   0.01267  Uiso   1.00
C112   C     0.53730   0.36860   0.77540   0.01267  Uiso   1.00
C113   C     0.83460   0.66170   0.40540   0.01267  Uiso   1.00
C114   C     0.10460   0.61070   0.43900   0.01267  Uiso   1.00
C115   C     0.80920   0.12010   0.70900   0.01267  Uiso   1.00
C116   C     0.78700   0.00300   0.67800   0.01267  Uiso   1.00
C117   C     0.74070   0.03400   0.76460   0.01267  Uiso   1.00
C118   C     0.69080   0.87990   0.20900   0.01267  Uiso   1.00
C119   C     0.71300   0.99700   0.17800   0.01267  Uiso   1.00
C120   C     0.75930   0.96600   0.26460   0.01267  Uiso   1.00
N1     N     0.77540   0.44500   0.71860   0.01267  Uiso   1.00
N2     N     0.72460   0.55500   0.21860   0.01267  Uiso   1.00
N3     N     0.77540   0.05500   0.71860   0.01267  Uiso   1.00
N4     N     0.72460   0.94500   0.21860   0.01267  Uiso   1.00
O1     O     0.79100   0.33400   0.72400   0.01267  Uiso   1.00
O2     O     0.70900   0.66600   0.22400   0.01267  Uiso   1.00
O3     O     0.99460   0.88430   0.31900   0.01267  Uiso   1.00
O4     O     0.92630   0.81920   0.26660   0.01267  Uiso   1.00
O5     O     0.44120   0.06570   0.94020   0.01267  Uiso   1.00
O6     O     0.40780   0.15950   0.91900   0.01267  Uiso   1.00
O7     O     0.67540   0.18270   0.85970   0.01267  Uiso   1.00
O8     O     0.60090   0.15410   0.92800   0.01267  Uiso   1.00
O9     O     0.50540   0.11570   0.81900   0.01267  Uiso   1.00
O10    O     0.57370   0.18080   0.76660   0.01267  Uiso   1.00
O11    O     0.05880   0.93430   0.44020   0.01267  Uiso   1.00
O12    O     0.09220   0.84050   0.41900   0.01267  Uiso   1.00
O13    O     0.82460   0.81730   0.35970   0.01267  Uiso   1.00
O14    O     0.89910   0.84590   0.42800   0.01267  Uiso   1.00
O15    O     0.99460   0.61570   0.31900   0.01267  Uiso   1.00
O16    O     0.92630   0.68080   0.26660   0.01267  Uiso   1.00
O17    O     0.44120   0.43430   0.94020   0.01267  Uiso   1.00
O18    O     0.40780   0.34050   0.91900   0.01267  Uiso   1.00
O19    O     0.67540   0.31730   0.85970   0.01267  Uiso   1.00
O20    O     0.60090   0.34590   0.92800   0.01267  Uiso   1.00
O21    O     0.50540   0.38430   0.81900   0.01267  Uiso   1.00
O22    O     0.57370   0.31920   0.76660   0.01267  Uiso   1.00
O23    O     0.05880   0.56570   0.44020   0.01267  Uiso   1.00
O24    O     0.09220   0.65950   0.41900   0.01267  Uiso   1.00
O25    O     0.82460   0.68270   0.35970   0.01267  Uiso   1.00
O26    O     0.89910   0.65410   0.42800   0.01267  Uiso   1.00
O27    O     0.79100   0.16600   0.72400   0.01267  Uiso   1.00
O28    O     0.70900   0.83400   0.22400   0.01267  Uiso   1.00
O29    O     0.98530   0.75000   0.35590   0.01267  Uiso   1.00
O30    O     0.51470   0.25000   0.85590   0.01267  Uiso   1.00
Na5    Na    0.21520   0.25000   0.73490   0.01267  Uiso   1.00
Na6    Na    0.28480   0.75000   0.23490   0.01267  Uiso   1.00
Na7    Na    0.10390   0.75000   0.28940   0.01267  Uiso   1.00
Na8    Na    0.39610   0.25000   0.78940   0.01267  Uiso   1.00
Zn7    Zn    0.00716   0.33462   0.61576   0.01267  Uiso   1.00
Zn8    Zn    0.49284   0.66538   0.11576   0.01267  Uiso   1.00
Zn9    Zn    0.00716   0.16538   0.61576   0.01267  Uiso   1.00
Zn10   Zn    0.49284   0.83462   0.11576   0.01267  Uiso   1.00
Zn11   Zn    0.11922   0.25000   0.68635   0.01267  Uiso   1.00
Zn12   Zn    0.38078   0.75000   0.18635   0.01267  Uiso   1.00
H89    H     0.11680   0.54000   0.92320   0.01267  Uiso   1.00
H90    H     0.97600   0.62220   0.02810   0.01267  Uiso   1.00
H91    H     0.88400   0.53400   0.90410   0.01267  Uiso   1.00
H92    H     0.10190   0.44050   0.88600   0.01267  Uiso   1.00
H93    H     0.11280   0.37470   0.81600   0.01267  Uiso   1.00
H94    H     0.93890   0.46230   0.74180   0.01267  Uiso   1.00
H95    H     0.92840   0.52880   0.81290   0.01267  Uiso   1.00
H96    H     0.20110   0.61420   0.94710   0.01267  Uiso   1.00
H97    H     0.31270   0.63990   0.99230   0.01267  Uiso   1.00
H98    H     0.19040   0.63800   0.12770   0.01267  Uiso   1.00
H99    H     0.08040   0.60670   0.08320   0.01267  Uiso   1.00
H100   H     0.85050   0.67360   0.02050   0.01267  Uiso   1.00
H101   H     0.72650   0.68440   0.05840   0.01267  Uiso   1.00
H102   H     0.67060   0.51420   0.01080   0.01267  Uiso   1.00
H103   H     0.79280   0.50590   0.97060   0.01267  Uiso   1.00
H104   H     0.38320   0.46000   0.42320   0.01267  Uiso   1.00
H105   H     0.52400   0.37780   0.52810   0.01267  Uiso   1.00
H106   H     0.61600   0.46600   0.40410   0.01267  Uiso   1.00
H107   H     0.39810   0.55950   0.38600   0.01267  Uiso   1.00
H108   H     0.38720   0.62530   0.31600   0.01267  Uiso   1.00
H109   H     0.56110   0.53770   0.24180   0.01267  Uiso   1.00
H110   H     0.57160   0.47120   0.31290   0.01267  Uiso   1.00
H111   H     0.29890   0.38580   0.44710   0.01267  Uiso   1.00
H112   H     0.18730   0.36010   0.49230   0.01267  Uiso   1.00
H113   H     0.30960   0.36200   0.62770   0.01267  Uiso   1.00
H114   H     0.41960   0.39330   0.58320   0.01267  Uiso   1.00
H115   H     0.64950   0.32640   0.52050   0.01267  Uiso   1.00
H116   H     0.77350   0.31560   0.55840   0.01267  Uiso   1.00
H117   H     0.82940   0.48580   0.51080   0.01267  Uiso   1.00
H118   H     0.70720   0.49410   0.47060   0.01267  Uiso   1.00
H119   H     0.14800   0.87890   0.31410   0.01267  Uiso   1.00
H120   H     0.18560   0.03080   0.30610   0.01267  Uiso   1.00
H121   H     0.26340   0.01120   0.33430   0.01267  Uiso   1.00
H122   H     0.18370   0.98170   0.35170   0.01267  Uiso   1.00
H123   H     0.28370   0.93220   0.21730   0.01267  Uiso   1.00
H124   H     0.29800   0.99660   0.24400   0.01267  Uiso   1.00
H125   H     0.22020   0.98410   0.21290   0.01267  Uiso   1.00
H126   H     0.35200   0.12110   0.81410   0.01267  Uiso   1.00
H127   H     0.31440   0.96920   0.80610   0.01267  Uiso   1.00
H128   H     0.23660   0.98880   0.83430   0.01267  Uiso   1.00
H129   H     0.31630   0.01830   0.85170   0.01267  Uiso   1.00
H130   H     0.21630   0.06780   0.71730   0.01267  Uiso   1.00
H131   H     0.20200   0.00340   0.74400   0.01267  Uiso   1.00
H132   H     0.27980   0.01590   0.71290   0.01267  Uiso   1.00
H133   H     0.14800   0.62110   0.31410   0.01267  Uiso   1.00
H134   H     0.18560   0.46920   0.30610   0.01267  Uiso   1.00
H135   H     0.26340   0.48880   0.33430   0.01267  Uiso   1.00
H136   H     0.18370   0.51830   0.35170   0.01267  Uiso   1.00
H137   H     0.28370   0.56780   0.21730   0.01267  Uiso   1.00
H138   H     0.29800   0.50340   0.24400   0.01267  Uiso   1.00
H139   H     0.22020   0.51590   0.21290   0.01267  Uiso   1.00
H140   H     0.35200   0.37890   0.81410   0.01267  Uiso   1.00
H141   H     0.31440   0.53080   0.80610   0.01267  Uiso   1.00
H142   H     0.23660   0.51120   0.83430   0.01267  Uiso   1.00
H143   H     0.31630   0.48170   0.85170   0.01267  Uiso   1.00
H144   H     0.21630   0.43220   0.71730   0.01267  Uiso   1.00
H145   H     0.20200   0.49660   0.74400   0.01267  Uiso   1.00
H146   H     0.27980   0.48410   0.71290   0.01267  Uiso   1.00
H147   H     0.11680   0.96000   0.92320   0.01267  Uiso   1.00
H148   H     0.97600   0.87780   0.02810   0.01267  Uiso   1.00
H149   H     0.88400   0.96600   0.90410   0.01267  Uiso   1.00
H150   H     0.10190   0.05950   0.88600   0.01267  Uiso   1.00
H151   H     0.11280   0.12530   0.81600   0.01267  Uiso   1.00
H152   H     0.93890   0.03770   0.74180   0.01267  Uiso   1.00
H153   H     0.92840   0.97120   0.81290   0.01267  Uiso   1.00
H154   H     0.20110   0.88580   0.94710   0.01267  Uiso   1.00
H155   H     0.31270   0.86010   0.99230   0.01267  Uiso   1.00
H156   H     0.19040   0.86200   0.12770   0.01267  Uiso   1.00
H157   H     0.08040   0.89330   0.08320   0.01267  Uiso   1.00
H158   H     0.85050   0.82640   0.02050   0.01267  Uiso   1.00
H159   H     0.72650   0.81560   0.05840   0.01267  Uiso   1.00
H160   H     0.67060   0.98580   0.01080   0.01267  Uiso   1.00
H161   H     0.79280   0.99410   0.97060   0.01267  Uiso   1.00
H162   H     0.38320   0.04000   0.42320   0.01267  Uiso   1.00
H163   H     0.52400   0.12220   0.52810   0.01267  Uiso   1.00
H164   H     0.61600   0.03400   0.40410   0.01267  Uiso   1.00
H165   H     0.39810   0.94050   0.38600   0.01267  Uiso   1.00
H166   H     0.38720   0.87470   0.31600   0.01267  Uiso   1.00
H167   H     0.56110   0.96230   0.24180   0.01267  Uiso   1.00
H168   H     0.57160   0.02880   0.31290   0.01267  Uiso   1.00
H169   H     0.29890   0.11420   0.44710   0.01267  Uiso   1.00
H170   H     0.18730   0.13990   0.49230   0.01267  Uiso   1.00
H171   H     0.30960   0.13800   0.62770   0.01267  Uiso   1.00
H172   H     0.41960   0.10670   0.58320   0.01267  Uiso   1.00
H173   H     0.64950   0.17360   0.52050   0.01267  Uiso   1.00
H174   H     0.77350   0.18440   0.55840   0.01267  Uiso   1.00
H175   H     0.82940   0.01420   0.51080   0.01267  Uiso   1.00
H176   H     0.70720   0.00590   0.47060   0.01267  Uiso   1.00
C121   C     0.00140   0.52950   0.90550   0.01267  Uiso   1.00
C122   C     0.06660   0.54990   0.93460   0.01267  Uiso   1.00
C123   C     0.05690   0.58440   0.98000   0.01267  Uiso   1.00
C124   C     0.98220   0.59830   0.99780   0.01267  Uiso   1.00
C125   C     0.91720   0.57730   0.97140   0.01267  Uiso   1.00
C126   C     0.92770   0.54510   0.92380   0.01267  Uiso   1.00
C127   C     0.01210   0.48880   0.85870   0.01267  Uiso   1.00
C128   C     0.06800   0.44470   0.85750   0.01267  Uiso   1.00
C129   C     0.07550   0.40600   0.81510   0.01267  Uiso   1.00
C130   C     0.02860   0.41250   0.77080   0.01267  Uiso   1.00
C131   C     0.97200   0.45790   0.77070   0.01267  Uiso   1.00
C132   C     0.96480   0.49700   0.81370   0.01267  Uiso   1.00
C133   C     0.12730   0.60720   0.00920   0.01267  Uiso   1.00
C134   C     0.19890   0.61820   0.98370   0.01267  Uiso   1.00
C135   C     0.26580   0.63470   0.01030   0.01267  Uiso   1.00
C136   C     0.26190   0.64350   0.06570   0.01267  Uiso   1.00
C137   C     0.19270   0.63270   0.09120   0.01267  Uiso   1.00
C138   C     0.12620   0.61440   0.06450   0.01267  Uiso   1.00
C139   C     0.83660   0.58830   0.99340   0.01267  Uiso   1.00
C140   C     0.81500   0.64120   0.01810   0.01267  Uiso   1.00
C141   C     0.73930   0.64830   0.04050   0.01267  Uiso   1.00
C142   C     0.68610   0.60280   0.03580   0.01267  Uiso   1.00
C143   C     0.70580   0.54700   0.01170   0.01267  Uiso   1.00
C144   C     0.78030   0.54170   0.98910   0.01267  Uiso   1.00
C145   C     0.03730   0.36860   0.72460   0.01267  Uiso   1.00
C146   C     0.33460   0.66170   0.09460   0.01267  Uiso   1.00
C147   C     0.60460   0.61070   0.06100   0.01267  Uiso   1.00
C148   C     0.49860   0.47050   0.40550   0.01267  Uiso   1.00
C149   C     0.43340   0.45010   0.43460   0.01267  Uiso   1.00
C150   C     0.44310   0.41560   0.48000   0.01267  Uiso   1.00
C151   C     0.51780   0.40170   0.49780   0.01267  Uiso   1.00
C152   C     0.58280   0.42270   0.47140   0.01267  Uiso   1.00
C153   C     0.57230   0.45490   0.42380   0.01267  Uiso   1.00
C154   C     0.48790   0.51120   0.35870   0.01267  Uiso   1.00
C155   C     0.43200   0.55530   0.35750   0.01267  Uiso   1.00
C156   C     0.42450   0.59400   0.31510   0.01267  Uiso   1.00
C157   C     0.47140   0.58750   0.27080   0.01267  Uiso   1.00
C158   C     0.52800   0.54210   0.27070   0.01267  Uiso   1.00
C159   C     0.53520   0.50300   0.31370   0.01267  Uiso   1.00
C160   C     0.37270   0.39280   0.50920   0.01267  Uiso   1.00
C161   C     0.30110   0.38180   0.48370   0.01267  Uiso   1.00
C162   C     0.23420   0.36530   0.51030   0.01267  Uiso   1.00
C163   C     0.23810   0.35650   0.56570   0.01267  Uiso   1.00
C164   C     0.30730   0.36730   0.59120   0.01267  Uiso   1.00
C165   C     0.37380   0.38560   0.56450   0.01267  Uiso   1.00
C166   C     0.66340   0.41170   0.49340   0.01267  Uiso   1.00
C167   C     0.68500   0.35880   0.51810   0.01267  Uiso   1.00
C168   C     0.76070   0.35170   0.54050   0.01267  Uiso   1.00
C169   C     0.81390   0.39720   0.53580   0.01267  Uiso   1.00
C170   C     0.79420   0.45300   0.51170   0.01267  Uiso   1.00
C171   C     0.71970   0.45830   0.48910   0.01267  Uiso   1.00
C172   C     0.46270   0.63140   0.22460   0.01267  Uiso   1.00
C173   C     0.16540   0.33830   0.59460   0.01267  Uiso   1.00
C174   C     0.89540   0.38930   0.56100   0.01267  Uiso   1.00
C175   C     0.19080   0.87990   0.29100   0.01267  Uiso   1.00
C176   C     0.21300   0.99700   0.32200   0.01267  Uiso   1.00
C177   C     0.25930   0.96600   0.23540   0.01267  Uiso   1.00
C178   C     0.30920   0.12010   0.79100   0.01267  Uiso   1.00
C179   C     0.28700   0.00300   0.82200   0.01267  Uiso   1.00
C180   C     0.24070   0.03400   0.73540   0.01267  Uiso   1.00
C181   C     0.19080   0.62010   0.29100   0.01267  Uiso   1.00
C182   C     0.21300   0.50300   0.32200   0.01267  Uiso   1.00
C183   C     0.25930   0.53400   0.23540   0.01267  Uiso   1.00
C184   C     0.30920   0.37990   0.79100   0.01267  Uiso   1.00
C185   C     0.28700   0.49700   0.82200   0.01267  Uiso   1.00
C186   C     0.24070   0.46600   0.73540   0.01267  Uiso   1.00
C187   C     0.00140   0.97050   0.90550   0.01267  Uiso   1.00
C188   C     0.06660   0.95010   0.93460   0.01267  Uiso   1.00
C189   C     0.05690   0.91560   0.98000   0.01267  Uiso   1.00
C190   C     0.98220   0.90170   0.99780   0.01267  Uiso   1.00
C191   C     0.91720   0.92270   0.97140   0.01267  Uiso   1.00
C192   C     0.92770   0.95490   0.92380   0.01267  Uiso   1.00
C193   C     0.01210   0.01120   0.85870   0.01267  Uiso   1.00
C194   C     0.06800   0.05530   0.85750   0.01267  Uiso   1.00
C195   C     0.07550   0.09400   0.81510   0.01267  Uiso   1.00
C196   C     0.02860   0.08750   0.77080   0.01267  Uiso   1.00
C197   C     0.97200   0.04210   0.77070   0.01267  Uiso   1.00
C198   C     0.96480   0.00300   0.81370   0.01267  Uiso   1.00
C199   C     0.12730   0.89280   0.00920   0.01267  Uiso   1.00
C200   C     0.19890   0.88180   0.98370   0.01267  Uiso   1.00
C201   C     0.26580   0.86530   0.01030   0.01267  Uiso   1.00
C202   C     0.26190   0.85650   0.06570   0.01267  Uiso   1.00
C203   C     0.19270   0.86730   0.09120   0.01267  Uiso   1.00
C204   C     0.12620   0.88560   0.06450   0.01267  Uiso   1.00
C205   C     0.83660   0.91170   0.99340   0.01267  Uiso   1.00
C206   C     0.81500   0.85880   0.01810   0.01267  Uiso   1.00
C207   C     0.73930   0.85170   0.04050   0.01267  Uiso   1.00
C208   C     0.68610   0.89720   0.03580   0.01267  Uiso   1.00
C209   C     0.70580   0.95300   0.01170   0.01267  Uiso   1.00
C210   C     0.78030   0.95830   0.98910   0.01267  Uiso   1.00
C211   C     0.03730   0.13140   0.72460   0.01267  Uiso   1.00
C212   C     0.33460   0.83830   0.09460   0.01267  Uiso   1.00
C213   C     0.60460   0.88930   0.06100   0.01267  Uiso   1.00
C214   C     0.49860   0.02950   0.40550   0.01267  Uiso   1.00
C215   C     0.43340   0.04990   0.43460   0.01267  Uiso   1.00
C216   C     0.44310   0.08440   0.48000   0.01267  Uiso   1.00
C217   C     0.51780   0.09830   0.49780   0.01267  Uiso   1.00
C218   C     0.58280   0.07730   0.47140   0.01267  Uiso   1.00
C219   C     0.57230   0.04510   0.42380   0.01267  Uiso   1.00
C220   C     0.48790   0.98880   0.35870   0.01267  Uiso   1.00
C221   C     0.43200   0.94470   0.35750   0.01267  Uiso   1.00
C222   C     0.42450   0.90600   0.31510   0.01267  Uiso   1.00
C223   C     0.47140   0.91250   0.27080   0.01267  Uiso   1.00
C224   C     0.52800   0.95790   0.27070   0.01267  Uiso   1.00
C225   C     0.53520   0.99700   0.31370   0.01267  Uiso   1.00
C226   C     0.37270   0.10720   0.50920   0.01267  Uiso   1.00
C227   C     0.30110   0.11820   0.48370   0.01267  Uiso   1.00
C228   C     0.23420   0.13470   0.51030   0.01267  Uiso   1.00
C229   C     0.23810   0.14350   0.56570   0.01267  Uiso   1.00
C230   C     0.30730   0.13270   0.59120   0.01267  Uiso   1.00
C231   C     0.37380   0.11440   0.56450   0.01267  Uiso   1.00
C232   C     0.66340   0.08830   0.49340   0.01267  Uiso   1.00
C233   C     0.68500   0.14120   0.51810   0.01267  Uiso   1.00
C234   C     0.76070   0.14830   0.54050   0.01267  Uiso   1.00
C235   C     0.81390   0.10280   0.53580   0.01267  Uiso   1.00
C236   C     0.79420   0.04700   0.51170   0.01267  Uiso   1.00
C237   C     0.71970   0.04170   0.48910   0.01267  Uiso   1.00
C238   C     0.46270   0.86860   0.22460   0.01267  Uiso   1.00
C239   C     0.16540   0.16170   0.59460   0.01267  Uiso   1.00
C240   C     0.89540   0.11070   0.56100   0.01267  Uiso   1.00
N5     N     0.22460   0.94500   0.28140   0.01267  Uiso   1.00
N6     N     0.27540   0.05500   0.78140   0.01267  Uiso   1.00
N7     N     0.22460   0.55500   0.28140   0.01267  Uiso   1.00
N8     N     0.27540   0.44500   0.78140   0.01267  Uiso   1.00
O31    O     0.00540   0.38430   0.68100   0.01267  Uiso   1.00
O32    O     0.07370   0.31920   0.73340   0.01267  Uiso   1.00
O33    O     0.55880   0.56570   0.05980   0.01267  Uiso   1.00
O34    O     0.59220   0.65950   0.08100   0.01267  Uiso   1.00
O35    O     0.32460   0.68270   0.14030   0.01267  Uiso   1.00
O36    O     0.39910   0.65410   0.07200   0.01267  Uiso   1.00
O37    O     0.49460   0.61570   0.18100   0.01267  Uiso   1.00
O38    O     0.42630   0.68080   0.23340   0.01267  Uiso   1.00
O39    O     0.94120   0.43430   0.55980   0.01267  Uiso   1.00
O40    O     0.90780   0.34050   0.58100   0.01267  Uiso   1.00
O41    O     0.17540   0.31730   0.64030   0.01267  Uiso   1.00
O42    O     0.10090   0.34590   0.57200   0.01267  Uiso   1.00
O43    O     0.20900   0.83400   0.27600   0.01267  Uiso   1.00
O44    O     0.29100   0.16600   0.77600   0.01267  Uiso   1.00
O45    O     0.20900   0.66600   0.27600   0.01267  Uiso   1.00
O46    O     0.29100   0.33400   0.77600   0.01267  Uiso   1.00
O47    O     0.00540   0.11570   0.68100   0.01267  Uiso   1.00
O48    O     0.07370   0.18080   0.73340   0.01267  Uiso   1.00
O49    O     0.55880   0.93430   0.05980   0.01267  Uiso   1.00
O50    O     0.59220   0.84050   0.08100   0.01267  Uiso   1.00
O51    O     0.32460   0.81730   0.14030   0.01267  Uiso   1.00
O52    O     0.39910   0.84590   0.07200   0.01267  Uiso   1.00
O53    O     0.49460   0.88430   0.18100   0.01267  Uiso   1.00
O54    O     0.42630   0.81920   0.23340   0.01267  Uiso   1.00
O55    O     0.94120   0.06570   0.55980   0.01267  Uiso   1.00
O56    O     0.90780   0.15950   0.58100   0.01267  Uiso   1.00
O57    O     0.17540   0.18270   0.64030   0.01267  Uiso   1.00
O58    O     0.10090   0.15410   0.57200   0.01267  Uiso   1.00
O59    O     0.01470   0.25000   0.64410   0.01267  Uiso   1.00
O60    O     0.48530   0.75000   0.14410   0.01267  Uiso   1.00
