data_HUZSUR_clean
_audit_creation_date              2014-07-02
_audit_creation_method            'Materials Studio'
_symmetry_space_group_name_H-M    'P1'
_symmetry_Int_Tables_number       1
_symmetry_cell_setting            triclinic
loop_
_symmetry_equiv_pos_as_xyz
  x,y,z
_cell_length_a                    16.3656
_cell_length_b                    17.9790
_cell_length_c                    19.2320
_cell_angle_alpha                 65.4520
_cell_angle_beta                  66.2750
_cell_angle_gamma                 69.1540
loop_
_atom_site_label
_atom_site_type_symbol
_atom_site_fract_x
_atom_site_fract_y
_atom_site_fract_z
_atom_site_U_iso_or_equiv
_atom_site_adp_type
_atom_site_occupancy
K1     K     0.17877   0.94739   0.96698   0.01267  Uiso   1.00
K2     K     0.39630   0.80586   0.83030   0.01267  Uiso   1.00
K3     K     0.99790   0.93660   0.95440   0.01267  Uiso   1.00
K4     K     0.82123   0.05261   0.03302   0.01267  Uiso   1.00
K5     K     0.60370   0.19414   0.16970   0.01267  Uiso   1.00
K6     K     0.00210   0.06340   0.04560   0.01267  Uiso   1.00
Zn1    Zn    0.38466   0.79859   0.03469   0.01267  Uiso   1.00
Zn2    Zn    0.35505   0.03573   0.77246   0.01267  Uiso   1.00
Zn3    Zn    0.61534   0.20141   0.96531   0.01267  Uiso   1.00
Zn4    Zn    0.64495   0.96427   0.22754   0.01267  Uiso   1.00
H1     H     0.95310   0.51240   0.86060   0.01267  Uiso   1.00
H2     H     0.19060   0.49440   0.88840   0.01267  Uiso   1.00
H3     H     0.97630   0.68590   0.92770   0.01267  Uiso   1.00
H4     H     0.84060   0.63190   0.80930   0.01267  Uiso   1.00
H5     H     0.68280   0.68550   0.83450   0.01267  Uiso   1.00
H6     H     0.66760   0.71540   0.03500   0.01267  Uiso   1.00
H7     H     0.82470   0.66980   0.00770   0.01267  Uiso   1.00
H8     H     0.24670   0.42320   0.79190   0.01267  Uiso   1.00
H9     H     0.30820   0.29120   0.77750   0.01267  Uiso   1.00
H10    H     0.06530   0.23090   0.90410   0.01267  Uiso   1.00
H11    H     0.00130   0.36480   0.91310   0.01267  Uiso   1.00
H12    H     0.09810   0.74970   0.89190   0.01267  Uiso   1.00
H13    H     0.18180   0.79390   0.93240   0.01267  Uiso   1.00
H14    H     0.28770   0.55440   0.04320   0.01267  Uiso   1.00
H15    H     0.21180   0.51010   0.99470   0.01267  Uiso   1.00
H16    H     0.94240   0.91750   0.66920   0.01267  Uiso   1.00
H17    H     0.17630   0.87140   0.49780   0.01267  Uiso   1.00
H18    H     0.93760   0.86570   0.48810   0.01267  Uiso   1.00
H19    H     0.80360   0.00570   0.65140   0.01267  Uiso   1.00
H20    H     0.64540   0.03800   0.69240   0.01267  Uiso   1.00
H21    H     0.64890   0.84090   0.64150   0.01267  Uiso   1.00
H22    H     0.80760   0.81340   0.59430   0.01267  Uiso   1.00
H23    H     0.04420   0.86580   0.74540   0.01267  Uiso   1.00
H24    H     0.11450   0.90270   0.80370   0.01267  Uiso   1.00
H25    H     0.27660   0.00910   0.58660   0.01267  Uiso   1.00
H26    H     0.20640   0.97190   0.52700   0.01267  Uiso   1.00
H27    H     0.23140   0.78020   0.41670   0.01267  Uiso   1.00
H28    H     0.30500   0.77170   0.29080   0.01267  Uiso   1.00
H29    H     0.08910   0.93480   0.21890   0.01267  Uiso   1.00
H30    H     0.01150   0.93420   0.34870   0.01267  Uiso   1.00
H31    H     0.45650   0.99290   0.88100   0.01267  Uiso   1.00
H32    H     0.04690   0.48760   0.13940   0.01267  Uiso   1.00
H33    H     0.80940   0.50560   0.11160   0.01267  Uiso   1.00
H34    H     0.02370   0.31410   0.07230   0.01267  Uiso   1.00
H35    H     0.15940   0.36810   0.19070   0.01267  Uiso   1.00
H36    H     0.31720   0.31450   0.16550   0.01267  Uiso   1.00
H37    H     0.33240   0.28460   0.96500   0.01267  Uiso   1.00
H38    H     0.17530   0.33020   0.99230   0.01267  Uiso   1.00
H39    H     0.75330   0.57680   0.20810   0.01267  Uiso   1.00
H40    H     0.69180   0.70880   0.22250   0.01267  Uiso   1.00
H41    H     0.93470   0.76910   0.09590   0.01267  Uiso   1.00
H42    H     0.99870   0.63520   0.08690   0.01267  Uiso   1.00
H43    H     0.90190   0.25030   0.10810   0.01267  Uiso   1.00
H44    H     0.81820   0.20610   0.06760   0.01267  Uiso   1.00
H45    H     0.71230   0.44560   0.95680   0.01267  Uiso   1.00
H46    H     0.78820   0.48990   0.00530   0.01267  Uiso   1.00
H47    H     0.05760   0.08250   0.33080   0.01267  Uiso   1.00
H48    H     0.82370   0.12860   0.50220   0.01267  Uiso   1.00
H49    H     0.06240   0.13430   0.51190   0.01267  Uiso   1.00
H50    H     0.19640   0.99430   0.34860   0.01267  Uiso   1.00
H51    H     0.35460   0.96200   0.30760   0.01267  Uiso   1.00
H52    H     0.35110   0.15910   0.35850   0.01267  Uiso   1.00
H53    H     0.19240   0.18660   0.40570   0.01267  Uiso   1.00
H54    H     0.95580   0.13420   0.25460   0.01267  Uiso   1.00
H55    H     0.88550   0.09730   0.19630   0.01267  Uiso   1.00
H56    H     0.72340   0.99090   0.41340   0.01267  Uiso   1.00
H57    H     0.79360   0.02810   0.47300   0.01267  Uiso   1.00
H58    H     0.76860   0.21980   0.58330   0.01267  Uiso   1.00
H59    H     0.69500   0.22830   0.70920   0.01267  Uiso   1.00
H60    H     0.91090   0.06520   0.78110   0.01267  Uiso   1.00
H61    H     0.98850   0.06580   0.65130   0.01267  Uiso   1.00
H62    H     0.54350   0.00710   0.11900   0.01267  Uiso   1.00
C1     C     0.94940   0.60500   0.89530   0.01267  Uiso   1.00
C2     C     0.98800   0.53270   0.87370   0.01267  Uiso   1.00
C3     C     0.07800   0.48980   0.87120   0.01267  Uiso   1.00
C4     C     0.13010   0.52220   0.89040   0.01267  Uiso   1.00
C5     C     0.09280   0.59510   0.91220   0.01267  Uiso   1.00
C6     C     0.00190   0.63680   0.91400   0.01267  Uiso   1.00
C7     C     0.84980   0.64430   0.90600   0.01267  Uiso   1.00
C8     C     0.80650   0.64910   0.85430   0.01267  Uiso   1.00
C9     C     0.71100   0.68010   0.87030   0.01267  Uiso   1.00
C10    C     0.65900   0.70240   0.93800   0.01267  Uiso   1.00
C11    C     0.70240   0.69890   0.98980   0.01267  Uiso   1.00
C12    C     0.79640   0.67100   0.97370   0.01267  Uiso   1.00
C13    C     0.11810   0.40770   0.85660   0.01267  Uiso   1.00
C14    C     0.20970   0.38500   0.81450   0.01267  Uiso   1.00
C15    C     0.24670   0.30540   0.80570   0.01267  Uiso   1.00
C16    C     0.19360   0.24740   0.83810   0.01267  Uiso   1.00
C17    C     0.10160   0.26990   0.88040   0.01267  Uiso   1.00
C18    C     0.06360   0.34970   0.88750   0.01267  Uiso   1.00
C19    C     0.14630   0.62490   0.93800   0.01267  Uiso   1.00
C20    C     0.13750   0.71030   0.92090   0.01267  Uiso   1.00
C21    C     0.18640   0.73680   0.94630   0.01267  Uiso   1.00
C22    C     0.24350   0.67810   0.99340   0.01267  Uiso   1.00
C23    C     0.25100   0.59380   0.01160   0.01267  Uiso   1.00
C24    C     0.20440   0.56730   0.98330   0.01267  Uiso   1.00
C25    C     0.23410   0.16100   0.83120   0.01267  Uiso   1.00
C26    C     0.55660   0.73090   0.95710   0.01267  Uiso   1.00
C27    C     0.29630   0.70580   0.02310   0.01267  Uiso   1.00
C28    C     0.92430   0.89320   0.58440   0.01267  Uiso   1.00
C29    C     0.97340   0.90460   0.62170   0.01267  Uiso   1.00
C30    C     0.06750   0.89740   0.59060   0.01267  Uiso   1.00
C31    C     0.11310   0.87790   0.51880   0.01267  Uiso   1.00
C32    C     0.06510   0.86790   0.47830   0.01267  Uiso   1.00
C33    C     0.97020   0.87420   0.51300   0.01267  Uiso   1.00
C34    C     0.82270   0.90770   0.61640   0.01267  Uiso   1.00
C35    C     0.77260   0.97370   0.64760   0.01267  Uiso   1.00
C36    C     0.67750   0.99270   0.67330   0.01267  Uiso   1.00
C37    C     0.63020   0.94370   0.67030   0.01267  Uiso   1.00
C38    C     0.67980   0.87520   0.64190   0.01267  Uiso   1.00
C39    C     0.77530   0.85810   0.61430   0.01267  Uiso   1.00
C40    C     0.11750   0.91440   0.62950   0.01267  Uiso   1.00
C41    C     0.09100   0.89430   0.71340   0.01267  Uiso   1.00
C42    C     0.13310   0.91620   0.74830   0.01267  Uiso   1.00
C43    C     0.20310   0.95830   0.70190   0.01267  Uiso   1.00
C44    C     0.23020   0.98000   0.61800   0.01267  Uiso   1.00
C45    C     0.18800   0.95790   0.58250   0.01267  Uiso   1.00
C46    C     0.11310   0.85860   0.39740   0.01267  Uiso   1.00
C47    C     0.20210   0.81040   0.37730   0.01267  Uiso   1.00
C48    C     0.24690   0.80640   0.30180   0.01267  Uiso   1.00
C49    C     0.20600   0.85430   0.24010   0.01267  Uiso   1.00
C50    C     0.11750   0.90270   0.25880   0.01267  Uiso   1.00
C51    C     0.07160   0.90320   0.33660   0.01267  Uiso   1.00
C52    C     0.52790   0.96060   0.70030   0.01267  Uiso   1.00
C53    C     0.25000   0.97890   0.74180   0.01267  Uiso   1.00
C54    C     0.25410   0.85310   0.15580   0.01267  Uiso   1.00
C55    C     0.42070   0.95330   0.91050   0.01267  Uiso   1.00
C56    C     0.99660   0.87690   0.14160   0.01267  Uiso   1.00
C57    C     0.07970   0.72630   0.20480   0.01267  Uiso   1.00
C58    C     0.94320   0.80430   0.27770   0.01267  Uiso   1.00
C59    C     0.05060   0.39500   0.10470   0.01267  Uiso   1.00
C60    C     0.01200   0.46730   0.12630   0.01267  Uiso   1.00
C61    C     0.92200   0.51020   0.12880   0.01267  Uiso   1.00
C62    C     0.86990   0.47780   0.10960   0.01267  Uiso   1.00
C63    C     0.90720   0.40490   0.08780   0.01267  Uiso   1.00
C64    C     0.99810   0.36320   0.08600   0.01267  Uiso   1.00
C65    C     0.15020   0.35570   0.09400   0.01267  Uiso   1.00
C66    C     0.19350   0.35090   0.14570   0.01267  Uiso   1.00
C67    C     0.28900   0.31990   0.12970   0.01267  Uiso   1.00
C68    C     0.34100   0.29760   0.06200   0.01267  Uiso   1.00
C69    C     0.29760   0.30110   0.01020   0.01267  Uiso   1.00
C70    C     0.20360   0.32900   0.02630   0.01267  Uiso   1.00
C71    C     0.88190   0.59230   0.14340   0.01267  Uiso   1.00
C72    C     0.79030   0.61500   0.18550   0.01267  Uiso   1.00
C73    C     0.75330   0.69460   0.19430   0.01267  Uiso   1.00
C74    C     0.80640   0.75260   0.16190   0.01267  Uiso   1.00
C75    C     0.89840   0.73010   0.11960   0.01267  Uiso   1.00
C76    C     0.93640   0.65030   0.11250   0.01267  Uiso   1.00
C77    C     0.85370   0.37510   0.06200   0.01267  Uiso   1.00
C78    C     0.86250   0.28970   0.07910   0.01267  Uiso   1.00
C79    C     0.81360   0.26320   0.05370   0.01267  Uiso   1.00
C80    C     0.75650   0.32190   0.00660   0.01267  Uiso   1.00
C81    C     0.74900   0.40620   0.98840   0.01267  Uiso   1.00
C82    C     0.79560   0.43270   0.01670   0.01267  Uiso   1.00
C83    C     0.76590   0.83900   0.16880   0.01267  Uiso   1.00
C84    C     0.44340   0.26910   0.04290   0.01267  Uiso   1.00
C85    C     0.70370   0.29420   0.97690   0.01267  Uiso   1.00
C86    C     0.07570   0.10680   0.41560   0.01267  Uiso   1.00
C87    C     0.02660   0.09540   0.37830   0.01267  Uiso   1.00
C88    C     0.93250   0.10260   0.40940   0.01267  Uiso   1.00
C89    C     0.88690   0.12210   0.48120   0.01267  Uiso   1.00
C90    C     0.93490   0.13210   0.52170   0.01267  Uiso   1.00
C91    C     0.02980   0.12580   0.48700   0.01267  Uiso   1.00
C92    C     0.17730   0.09230   0.38360   0.01267  Uiso   1.00
C93    C     0.22740   0.02630   0.35240   0.01267  Uiso   1.00
C94    C     0.32250   0.00730   0.32670   0.01267  Uiso   1.00
C95    C     0.36980   0.05630   0.32970   0.01267  Uiso   1.00
C96    C     0.32020   0.12480   0.35810   0.01267  Uiso   1.00
C97    C     0.22470   0.14190   0.38570   0.01267  Uiso   1.00
C98    C     0.88250   0.08560   0.37050   0.01267  Uiso   1.00
C99    C     0.90900   0.10570   0.28660   0.01267  Uiso   1.00
C100   C     0.86690   0.08380   0.25170   0.01267  Uiso   1.00
C101   C     0.79690   0.04170   0.29810   0.01267  Uiso   1.00
C102   C     0.76980   0.02000   0.38200   0.01267  Uiso   1.00
C103   C     0.81200   0.04210   0.41750   0.01267  Uiso   1.00
C104   C     0.88690   0.14140   0.60260   0.01267  Uiso   1.00
C105   C     0.79790   0.18960   0.62270   0.01267  Uiso   1.00
C106   C     0.75310   0.19360   0.69820   0.01267  Uiso   1.00
C107   C     0.79400   0.14570   0.75990   0.01267  Uiso   1.00
C108   C     0.88250   0.09730   0.74120   0.01267  Uiso   1.00
C109   C     0.92840   0.09680   0.66340   0.01267  Uiso   1.00
C110   C     0.47210   0.03940   0.29970   0.01267  Uiso   1.00
C111   C     0.75000   0.02110   0.25820   0.01267  Uiso   1.00
C112   C     0.74590   0.14690   0.84420   0.01267  Uiso   1.00
C113   C     0.57930   0.04670   0.08950   0.01267  Uiso   1.00
C114   C     0.00340   0.12310   0.85840   0.01267  Uiso   1.00
C115   C     0.92030   0.27370   0.79520   0.01267  Uiso   1.00
C116   C     0.05680   0.19570   0.72230   0.01267  Uiso   1.00
N1     N     0.01010   0.80140   0.20470   0.01267  Uiso   1.00
N2     N     0.98990   0.19860   0.79530   0.01267  Uiso   1.00
O1     O     0.52150   0.75260   0.90310   0.01267  Uiso   1.00
O2     O     0.51130   0.73330   0.02810   0.01267  Uiso   1.00
O3     O     0.18930   0.10620   0.87050   0.01267  Uiso   1.00
O4     O     0.31470   0.14860   0.78320   0.01267  Uiso   1.00
O5     O     0.30300   0.78370   0.99100   0.01267  Uiso   1.00
O6     O     0.33290   0.65450   0.07450   0.01267  Uiso   1.00
O7     O     0.48740   0.03040   0.71710   0.01267  Uiso   1.00
O8     O     0.48700   0.91040   0.70830   0.01267  Uiso   1.00
O9     O     0.24690   0.93790   0.81320   0.01267  Uiso   1.00
O10    O     0.29300   0.03780   0.70050   0.01267  Uiso   1.00
O11    O     0.22270   0.90380   0.10050   0.01267  Uiso   1.00
O12    O     0.32920   0.79510   0.14710   0.01267  Uiso   1.00
O13    O     0.36660   0.95190   0.88020   0.01267  Uiso   1.00
O14    O     0.43030   0.90570   0.97720   0.01267  Uiso   1.00
O15    O     0.04640   0.86910   0.06900   0.01267  Uiso   1.00
O16    O     0.47850   0.24740   0.09690   0.01267  Uiso   1.00
O17    O     0.48870   0.26670   0.97190   0.01267  Uiso   1.00
O18    O     0.81070   0.89380   0.12950   0.01267  Uiso   1.00
O19    O     0.68530   0.85140   0.21680   0.01267  Uiso   1.00
O20    O     0.69700   0.21630   0.00900   0.01267  Uiso   1.00
O21    O     0.66710   0.34550   0.92550   0.01267  Uiso   1.00
O22    O     0.51260   0.96960   0.28290   0.01267  Uiso   1.00
O23    O     0.51300   0.08960   0.29170   0.01267  Uiso   1.00
O24    O     0.75310   0.06210   0.18680   0.01267  Uiso   1.00
O25    O     0.70700   0.96220   0.29950   0.01267  Uiso   1.00
O26    O     0.77730   0.09620   0.89950   0.01267  Uiso   1.00
O27    O     0.67080   0.20490   0.85290   0.01267  Uiso   1.00
O28    O     0.63340   0.04810   0.11980   0.01267  Uiso   1.00
O29    O     0.56970   0.09430   0.02280   0.01267  Uiso   1.00
O30    O     0.95360   0.13090   0.93100   0.01267  Uiso   1.00
