data_image0
_cell_length_a       6.8636
_cell_length_b       11.979
_cell_length_c       13.651
_cell_angle_alpha    90
_cell_angle_beta     99.65
_cell_angle_gamma    90

_symmetry_space_group_name_H-M    "P 1"
_symmetry_int_tables_number       1

loop_
  _symmetry_equiv_pos_as_xyz
  'x, y, z'

loop_
  _atom_site_label
  _atom_site_occupancy
  _atom_site_fract_x
  _atom_site_fract_y
  _atom_site_fract_z
  _atom_site_thermal_displace_type
  _atom_site_B_iso_or_equiv
  _atom_site_type_symbol
  La1      1.0000 0.94072  0.83039  0.24216  Biso   1.000  La
  C1       1.0000 0.46460  0.87600  0.10560  Biso   1.000  C
  C2       1.0000 0.31500  0.90040  0.02710  Biso   1.000  C
  H1       1.0000 0.19840  0.93390  0.03810  Biso   1.000  H
  C3       1.0000 0.34340  0.87340  0.93150  Biso   1.000  C
  C4       1.0000 0.52000  0.82350  0.91760  Biso   1.000  C
  H2       1.0000 0.53900  0.80080  0.85480  Biso   1.000  H
  C5       1.0000 0.66710  0.80850  0.99970  Biso   1.000  C
  C6       1.0000 0.87220  0.76310  0.99330  Biso   1.000  C
  C7       1.0000 0.44800  0.89710  0.21280  Biso   1.000  C
  C8       1.0000 0.18580  0.89880  0.84260  Biso   1.000  C
  N1       1.0000 0.64050  0.83430  0.09210  Biso   1.000  N
  O1       1.0000 0.60710  0.90190  0.27390  Biso   1.000  O
  O2       1.0000 0.27890  0.90920  0.23400  Biso   1.000  O
  O3       1.0000 0.98860  0.75240  0.07440  Biso   1.000  O
  O4       1.0000 0.91180  0.74160  0.90970  Biso   1.000  O
  O5       1.0000 0.17070  0.83110  0.77160  Biso   1.000  O
  O6       1.0000 0.08330  0.98480  0.84700  Biso   1.000  O
  La2      1.0000 0.05928  0.33039  0.25784  Biso   1.000  La
  C9       1.0000 0.53540  0.37600  0.39440  Biso   1.000  C
  C10      1.0000 0.68500  0.40040  0.47290  Biso   1.000  C
  H3       1.0000 0.80160  0.43390  0.46190  Biso   1.000  H
  C11      1.0000 0.65660  0.37340  0.56850  Biso   1.000  C
  C12      1.0000 0.48000  0.32350  0.58240  Biso   1.000  C
  H4       1.0000 0.46100  0.30080  0.64520  Biso   1.000  H
  C13      1.0000 0.33290  0.30850  0.50030  Biso   1.000  C
  C14      1.0000 0.12780  0.26310  0.50670  Biso   1.000  C
  C15      1.0000 0.55200  0.39710  0.28720  Biso   1.000  C
  C16      1.0000 0.81420  0.39880  0.65740  Biso   1.000  C
  N2       1.0000 0.35950  0.33430  0.40790  Biso   1.000  N
  O7       1.0000 0.39290  0.40190  0.22610  Biso   1.000  O
  O8       1.0000 0.72110  0.40920  0.26600  Biso   1.000  O
  O9       1.0000 0.01140  0.25240  0.42560  Biso   1.000  O
  O10      1.0000 0.08820  0.24160  0.59030  Biso   1.000  O
  O11      1.0000 0.82930  0.33110  0.72840  Biso   1.000  O
  O12      1.0000 0.91670  0.48480  0.65300  Biso   1.000  O
  La3      1.0000 0.05928  0.16961  0.75784  Biso   1.000  La
  C17      1.0000 0.53540  0.12400  0.89440  Biso   1.000  C
  C18      1.0000 0.68500  0.09960  0.97290  Biso   1.000  C
  H5       1.0000 0.80160  0.06610  0.96190  Biso   1.000  H
  C19      1.0000 0.65660  0.12660  0.06850  Biso   1.000  C
  C20      1.0000 0.48000  0.17650  0.08240  Biso   1.000  C
  H6       1.0000 0.46100  0.19920  0.14520  Biso   1.000  H
  C21      1.0000 0.33290  0.19150  0.00030  Biso   1.000  C
  C22      1.0000 0.12780  0.23690  0.00670  Biso   1.000  C
  C23      1.0000 0.55200  0.10290  0.78720  Biso   1.000  C
  C24      1.0000 0.81420  0.10120  0.15740  Biso   1.000  C
  N3       1.0000 0.35950  0.16570  0.90790  Biso   1.000  N
  O13      1.0000 0.39290  0.09810  0.72610  Biso   1.000  O
  O14      1.0000 0.72110  0.09080  0.76600  Biso   1.000  O
  O15      1.0000 0.01140  0.24760  0.92560  Biso   1.000  O
  O16      1.0000 0.08820  0.25840  0.09030  Biso   1.000  O
  O17      1.0000 0.82930  0.16890  0.22840  Biso   1.000  O
  O18      1.0000 0.91670  0.01520  0.15300  Biso   1.000  O
  La4      1.0000 0.94072  0.66961  0.74216  Biso   1.000  La
  C25      1.0000 0.46460  0.62400  0.60560  Biso   1.000  C
  C26      1.0000 0.31500  0.59960  0.52710  Biso   1.000  C
  H7       1.0000 0.19840  0.56610  0.53810  Biso   1.000  H
  C27      1.0000 0.34340  0.62660  0.43150  Biso   1.000  C
  C28      1.0000 0.52000  0.67650  0.41760  Biso   1.000  C
  H8       1.0000 0.53900  0.69920  0.35480  Biso   1.000  H
  C29      1.0000 0.66710  0.69150  0.49970  Biso   1.000  C
  C30      1.0000 0.87220  0.73690  0.49330  Biso   1.000  C
  C31      1.0000 0.44800  0.60290  0.71280  Biso   1.000  C
  C32      1.0000 0.18580  0.60120  0.34260  Biso   1.000  C
  N4       1.0000 0.64050  0.66570  0.59210  Biso   1.000  N
  O19      1.0000 0.60710  0.59810  0.77390  Biso   1.000  O
  O20      1.0000 0.27890  0.59080  0.73400  Biso   1.000  O
  O21      1.0000 0.98860  0.74760  0.57440  Biso   1.000  O
  O22      1.0000 0.91180  0.75840  0.40970  Biso   1.000  O
  O23      1.0000 0.17070  0.66890  0.27160  Biso   1.000  O
  O24      1.0000 0.08330  0.51520  0.34700  Biso   1.000  O
