data_IBARUA_clean
_audit_creation_date              2014-07-02
_audit_creation_method            'Materials Studio'
_symmetry_space_group_name_H-M    'P1'
_symmetry_Int_Tables_number       1
_symmetry_cell_setting            triclinic
loop_
_symmetry_equiv_pos_as_xyz
  x,y,z
_cell_length_a                    13.3473
_cell_length_b                    13.3473
_cell_length_c                    14.2599
_cell_angle_alpha                 90.0000
_cell_angle_beta                  90.0000
_cell_angle_gamma                 120.0000
loop_
_atom_site_label
_atom_site_type_symbol
_atom_site_fract_x
_atom_site_fract_y
_atom_site_fract_z
_atom_site_U_iso_or_equiv
_atom_site_adp_type
_atom_site_occupancy
Er1    Er    0.33333   0.66666   0.33304   0.01267  Uiso   1.00
Er2    Er    0.66667   0.33334   0.16696   0.01267  Uiso   1.00
Er3    Er    0.66667   0.33334   0.66696   0.01267  Uiso   1.00
Er4    Er    0.33333   0.66666   0.83304   0.01267  Uiso   1.00
Cu1    Cu    0.50000  -0.00000   0.50000   0.01267  Uiso   1.00
Cu2    Cu    0.50000   0.50000   0.50000   0.01267  Uiso   1.00
Cu3    Cu    0.00000   0.50000   0.50000   0.01267  Uiso   1.00
Cu4    Cu    0.50000  -0.00000   0.00000   0.01267  Uiso   1.00
Cu5    Cu    0.00000   0.50000   0.00000   0.01267  Uiso   1.00
Cu6    Cu    0.50000   0.50000   0.00000   0.01267  Uiso   1.00
H1     H     0.67290   0.02260   0.57970   0.01267  Uiso   1.00
H2     H     0.68290   0.86250   0.52020   0.01267  Uiso   1.00
H3     H     0.70500   0.96010   0.44790   0.01267  Uiso   1.00
H4     H     0.60100   0.91330   0.69560   0.01267  Uiso   1.00
H5     H     0.53950   0.80550   0.62930   0.01267  Uiso   1.00
H6     H     0.34970   0.32710   0.57970   0.01267  Uiso   1.00
H7     H     0.17960   0.31710   0.52020   0.01267  Uiso   1.00
H8     H     0.25510   0.29500   0.44790   0.01267  Uiso   1.00
H9     H     0.31230   0.39900   0.69560   0.01267  Uiso   1.00
H10    H     0.26600   0.46050   0.62930   0.01267  Uiso   1.00
H11    H     0.97740   0.65030   0.57970   0.01267  Uiso   1.00
H12    H     0.13750   0.82040   0.52020   0.01267  Uiso   1.00
H13    H     0.03990   0.74490   0.44790   0.01267  Uiso   1.00
H14    H     0.08670   0.68770   0.69560   0.01267  Uiso   1.00
H15    H     0.19450   0.73400   0.62930   0.01267  Uiso   1.00
H16    H     0.65030   0.97740   0.92030   0.01267  Uiso   1.00
H17    H     0.82040   0.13750   0.97980   0.01267  Uiso   1.00
H18    H     0.74490   0.03990   0.05210   0.01267  Uiso   1.00
H19    H     0.68770   0.08670   0.80440   0.01267  Uiso   1.00
H20    H     0.73400   0.19450   0.87070   0.01267  Uiso   1.00
H21    H     0.02260   0.67290   0.92030   0.01267  Uiso   1.00
H22    H     0.86250   0.68290   0.97980   0.01267  Uiso   1.00
H23    H     0.96010   0.70500   0.05210   0.01267  Uiso   1.00
H24    H     0.91330   0.60100   0.80440   0.01267  Uiso   1.00
H25    H     0.80550   0.53950   0.87070   0.01267  Uiso   1.00
H26    H     0.32710   0.34970   0.92030   0.01267  Uiso   1.00
H27    H     0.31710   0.17960   0.97980   0.01267  Uiso   1.00
H28    H     0.29500   0.25510   0.05210   0.01267  Uiso   1.00
H29    H     0.39900   0.31230   0.80440   0.01267  Uiso   1.00
H30    H     0.46050   0.26600   0.87070   0.01267  Uiso   1.00
H31    H     0.32710   0.97740   0.42030   0.01267  Uiso   1.00
H32    H     0.31710   0.13750   0.47980   0.01267  Uiso   1.00
H33    H     0.29500   0.03990   0.55210   0.01267  Uiso   1.00
H34    H     0.39900   0.08670   0.30440   0.01267  Uiso   1.00
H35    H     0.46050   0.19450   0.37070   0.01267  Uiso   1.00
H36    H     0.65030   0.67290   0.42030   0.01267  Uiso   1.00
H37    H     0.82040   0.68290   0.47980   0.01267  Uiso   1.00
H38    H     0.74490   0.70500   0.55210   0.01267  Uiso   1.00
H39    H     0.68770   0.60100   0.30440   0.01267  Uiso   1.00
H40    H     0.73400   0.53950   0.37070   0.01267  Uiso   1.00
H41    H     0.02260   0.34970   0.42030   0.01267  Uiso   1.00
H42    H     0.86250   0.17960   0.47980   0.01267  Uiso   1.00
H43    H     0.96010   0.25510   0.55210   0.01267  Uiso   1.00
H44    H     0.91330   0.31230   0.30440   0.01267  Uiso   1.00
H45    H     0.80550   0.26600   0.37070   0.01267  Uiso   1.00
H46    H     0.34970   0.02260   0.07970   0.01267  Uiso   1.00
H47    H     0.17960   0.86250   0.02020   0.01267  Uiso   1.00
H48    H     0.25510   0.96010   0.94790   0.01267  Uiso   1.00
H49    H     0.31230   0.91330   0.19560   0.01267  Uiso   1.00
H50    H     0.26600   0.80550   0.12930   0.01267  Uiso   1.00
H51    H     0.97740   0.32710   0.07970   0.01267  Uiso   1.00
H52    H     0.13750   0.31710   0.02020   0.01267  Uiso   1.00
H53    H     0.03990   0.29500   0.94790   0.01267  Uiso   1.00
H54    H     0.08670   0.39900   0.19560   0.01267  Uiso   1.00
H55    H     0.19450   0.46050   0.12930   0.01267  Uiso   1.00
H56    H     0.67290   0.65030   0.07970   0.01267  Uiso   1.00
H57    H     0.68290   0.82040   0.02020   0.01267  Uiso   1.00
H58    H     0.70500   0.74490   0.94790   0.01267  Uiso   1.00
H59    H     0.60100   0.68770   0.19560   0.01267  Uiso   1.00
H60    H     0.53950   0.73400   0.12930   0.01267  Uiso   1.00
C1     C     0.54670   0.81450   0.43020   0.01267  Uiso   1.00
C2     C     0.64740   0.90130   0.48860   0.01267  Uiso   1.00
C3     C     0.55130   0.88210   0.64110   0.01267  Uiso   1.00
C4     C     0.43660   0.87330   0.66170   0.01267  Uiso   1.00
C5     C     0.26780   0.45330   0.43020   0.01267  Uiso   1.00
C6     C     0.25390   0.35260   0.48860   0.01267  Uiso   1.00
C7     C     0.33080   0.44870   0.64110   0.01267  Uiso   1.00
C8     C     0.43670   0.56340   0.66170   0.01267  Uiso   1.00
C9     C     0.18550   0.73220   0.43020   0.01267  Uiso   1.00
C10    C     0.09870   0.74610   0.48860   0.01267  Uiso   1.00
C11    C     0.11790   0.66920   0.64110   0.01267  Uiso   1.00
C12    C     0.12670   0.56330   0.66170   0.01267  Uiso   1.00
C13    C     0.73220   0.18550   0.06980   0.01267  Uiso   1.00
C14    C     0.74610   0.09870   0.01140   0.01267  Uiso   1.00
C15    C     0.66920   0.11790   0.85890   0.01267  Uiso   1.00
C16    C     0.56330   0.12670   0.83830   0.01267  Uiso   1.00
C17    C     0.81450   0.54670   0.06980   0.01267  Uiso   1.00
C18    C     0.90130   0.64740   0.01140   0.01267  Uiso   1.00
C19    C     0.88210   0.55130   0.85890   0.01267  Uiso   1.00
C20    C     0.87330   0.43660   0.83830   0.01267  Uiso   1.00
C21    C     0.45330   0.26780   0.06980   0.01267  Uiso   1.00
C22    C     0.35260   0.25390   0.01140   0.01267  Uiso   1.00
C23    C     0.44870   0.33080   0.85890   0.01267  Uiso   1.00
C24    C     0.56340   0.43670   0.83830   0.01267  Uiso   1.00
C25    C     0.45330   0.18550   0.56980   0.01267  Uiso   1.00
C26    C     0.35260   0.09870   0.51140   0.01267  Uiso   1.00
C27    C     0.44870   0.11790   0.35890   0.01267  Uiso   1.00
C28    C     0.56340   0.12670   0.33830   0.01267  Uiso   1.00
C29    C     0.73220   0.54670   0.56980   0.01267  Uiso   1.00
C30    C     0.74610   0.64740   0.51140   0.01267  Uiso   1.00
C31    C     0.66920   0.55130   0.35890   0.01267  Uiso   1.00
C32    C     0.56330   0.43660   0.33830   0.01267  Uiso   1.00
C33    C     0.81450   0.26780   0.56980   0.01267  Uiso   1.00
C34    C     0.90130   0.25390   0.51140   0.01267  Uiso   1.00
C35    C     0.88210   0.33080   0.35890   0.01267  Uiso   1.00
C36    C     0.87330   0.43670   0.33830   0.01267  Uiso   1.00
C37    C     0.26780   0.81450   0.93020   0.01267  Uiso   1.00
C38    C     0.25390   0.90130   0.98860   0.01267  Uiso   1.00
C39    C     0.33080   0.88210   0.14110   0.01267  Uiso   1.00
C40    C     0.43670   0.87330   0.16170   0.01267  Uiso   1.00
C41    C     0.18550   0.45330   0.93020   0.01267  Uiso   1.00
C42    C     0.09870   0.35260   0.98860   0.01267  Uiso   1.00
C43    C     0.11790   0.44870   0.14110   0.01267  Uiso   1.00
C44    C     0.12670   0.56340   0.16170   0.01267  Uiso   1.00
C45    C     0.54670   0.73220   0.93020   0.01267  Uiso   1.00
C46    C     0.64740   0.74610   0.98860   0.01267  Uiso   1.00
C47    C     0.55130   0.66920   0.14110   0.01267  Uiso   1.00
C48    C     0.43660   0.56330   0.16170   0.01267  Uiso   1.00
N1     N     0.60960   0.95690   0.55913   0.01267  Uiso   1.00
N2     N     0.34730   0.39040   0.55913   0.01267  Uiso   1.00
N3     N     0.04310   0.65270   0.55913   0.01267  Uiso   1.00
N4     N     0.65270   0.04310   0.94087   0.01267  Uiso   1.00
N5     N     0.95690   0.60960   0.94087   0.01267  Uiso   1.00
N6     N     0.39040   0.34730   0.94087   0.01267  Uiso   1.00
N7     N     0.39040   0.04310   0.44087   0.01267  Uiso   1.00
N8     N     0.65270   0.60960   0.44087   0.01267  Uiso   1.00
N9     N     0.95690   0.34730   0.44087   0.01267  Uiso   1.00
N10    N     0.34730   0.95690   0.05913   0.01267  Uiso   1.00
N11    N     0.04310   0.39040   0.05913   0.01267  Uiso   1.00
N12    N     0.60960   0.65270   0.05913   0.01267  Uiso   1.00
O1     O     0.44990   0.80970   0.44074   0.01267  Uiso   1.00
O2     O     0.55990   0.75260   0.37202   0.01267  Uiso   1.00
O3     O     0.40200   0.92630   0.60909   0.01267  Uiso   1.00
O4     O     0.37940   0.81390   0.73003   0.01267  Uiso   1.00
O5     O     0.35980   0.55010   0.44074   0.01267  Uiso   1.00
O6     O     0.19270   0.44010   0.37202   0.01267  Uiso   1.00
O7     O     0.52430   0.59800   0.60909   0.01267  Uiso   1.00
O8     O     0.43450   0.62060   0.73003   0.01267  Uiso   1.00
O9     O     0.19030   0.64020   0.44074   0.01267  Uiso   1.00
O10    O     0.24740   0.80730   0.37202   0.01267  Uiso   1.00
O11    O     0.07370   0.47570   0.60909   0.01267  Uiso   1.00
O12    O     0.18610   0.56550   0.73003   0.01267  Uiso   1.00
O13    O     0.64020   0.19030   0.05926   0.01267  Uiso   1.00
O14    O     0.80730   0.24740   0.12798   0.01267  Uiso   1.00
O15    O     0.47570   0.07370   0.89091   0.01267  Uiso   1.00
O16    O     0.56550   0.18610   0.76997   0.01267  Uiso   1.00
O17    O     0.80970   0.44990   0.05926   0.01267  Uiso   1.00
O18    O     0.75260   0.55990   0.12798   0.01267  Uiso   1.00
O19    O     0.92630   0.40200   0.89091   0.01267  Uiso   1.00
O20    O     0.81390   0.37940   0.76997   0.01267  Uiso   1.00
O21    O     0.55010   0.35980   0.05926   0.01267  Uiso   1.00
O22    O     0.44010   0.19270   0.12798   0.01267  Uiso   1.00
O23    O     0.59800   0.52430   0.89091   0.01267  Uiso   1.00
O24    O     0.62060   0.43450   0.76997   0.01267  Uiso   1.00
O25    O     0.55010   0.19030   0.55926   0.01267  Uiso   1.00
O26    O     0.44010   0.24740   0.62798   0.01267  Uiso   1.00
O27    O     0.59800   0.07370   0.39091   0.01267  Uiso   1.00
O28    O     0.62060   0.18610   0.26997   0.01267  Uiso   1.00
O29    O     0.64020   0.44990   0.55926   0.01267  Uiso   1.00
O30    O     0.80730   0.55990   0.62798   0.01267  Uiso   1.00
O31    O     0.47570   0.40200   0.39091   0.01267  Uiso   1.00
O32    O     0.56550   0.37940   0.26997   0.01267  Uiso   1.00
O33    O     0.80970   0.35980   0.55926   0.01267  Uiso   1.00
O34    O     0.75260   0.19270   0.62798   0.01267  Uiso   1.00
O35    O     0.92630   0.52430   0.39091   0.01267  Uiso   1.00
O36    O     0.81390   0.43450   0.26997   0.01267  Uiso   1.00
O37    O     0.35980   0.80970   0.94074   0.01267  Uiso   1.00
O38    O     0.19270   0.75260   0.87202   0.01267  Uiso   1.00
O39    O     0.52430   0.92630   0.10909   0.01267  Uiso   1.00
O40    O     0.43450   0.81390   0.23003   0.01267  Uiso   1.00
O41    O     0.19030   0.55010   0.94074   0.01267  Uiso   1.00
O42    O     0.24740   0.44010   0.87202   0.01267  Uiso   1.00
O43    O     0.07370   0.59800   0.10909   0.01267  Uiso   1.00
O44    O     0.18610   0.62060   0.23003   0.01267  Uiso   1.00
O45    O     0.44990   0.64020   0.94074   0.01267  Uiso   1.00
O46    O     0.55990   0.80730   0.87202   0.01267  Uiso   1.00
O47    O     0.40200   0.47570   0.10909   0.01267  Uiso   1.00
O48    O     0.37940   0.56550   0.23003   0.01267  Uiso   1.00
