data_image0
_cell_length_a       12.0249
_cell_length_b       12.1873
_cell_length_c       14.8685
_cell_angle_alpha    67.916
_cell_angle_beta     74.121
_cell_angle_gamma    63.581

_symmetry_space_group_name_H-M    "P 1"
_symmetry_int_tables_number       1

loop_
  _symmetry_equiv_pos_as_xyz
  'x, y, z'

loop_
  _atom_site_label
  _atom_site_occupancy
  _atom_site_fract_x
  _atom_site_fract_y
  _atom_site_fract_z
  _atom_site_thermal_displace_type
  _atom_site_B_iso_or_equiv
  _atom_site_type_symbol
  Cd1      1.0000 0.73841  0.66588  0.99184  Biso   1.000  Cd
  Mo1      1.0000 0.26322  0.59550  0.32267  Biso   1.000  Mo
  Mo2      1.0000 0.57791  0.79088  0.32646  Biso   1.000  Mo
  Mo3      1.0000 0.74712  0.30293  0.33316  Biso   1.000  Mo
  Mo4      1.0000 0.28105  0.79804  0.32472  Biso   1.000  Mo
  Mo5      1.0000 0.52894  0.31032  0.33042  Biso   1.000  Mo
  Mo6      1.0000 0.77606  0.58154  0.32896  Biso   1.000  Mo
  P1       1.0000 0.55163  0.60596  0.21542  Biso   1.000  P
  P2       1.0000 0.39171  0.00809  0.15956  Biso   1.000  P
  P3       1.0000 0.93785  0.42362  0.16583  Biso   1.000  P
  P4       1.0000 0.30670  0.40693  0.19429  Biso   1.000  P
  O1       1.0000 0.57230  0.65140  0.10630  Biso   1.000  O
  O2       1.0000 0.35600  0.14760  0.11500  Biso   1.000  O
  O3       1.0000 0.91370  0.51620  0.22290  Biso   1.000  O
  O4       1.0000 0.31150  0.43020  0.08550  Biso   1.000  O
  O5       1.0000 0.88300  0.48540  0.07150  Biso   1.000  O
  O6       1.0000 0.08460  0.35910  0.14130  Biso   1.000  O
  O7       1.0000 0.89790  0.31230  0.23160  Biso   1.000  O
  O8       1.0000 0.46830  0.52690  0.25510  Biso   1.000  O
  O9       1.0000 0.25310  0.53700  0.21450  Biso   1.000  O
  O10      1.0000 0.22280  0.33200  0.25620  Biso   1.000  O
  O11      1.0000 0.61840  0.61620  0.41780  Biso   1.000  O
  O12      1.0000 0.67540  0.52050  0.26090  Biso   1.000  O
  O13      1.0000 0.28550  0.96660  0.22190  Biso   1.000  O
  O14      1.0000 0.44100  0.32960  0.22240  Biso   1.000  O
  O15      1.0000 0.49860  0.95560  0.22080  Biso   1.000  O
  O16      1.0000 0.24980  0.75770  0.22330  Biso   1.000  O
  O17      1.0000 0.81090  0.38540  0.40220  Biso   1.000  O
  O18      1.0000 0.39030  0.83210  0.39540  Biso   1.000  O
  O19      1.0000 0.34730  0.39790  0.39590  Biso   1.000  O
  O20      1.0000 0.48580  0.72120  0.25910  Biso   1.000  O
  O21      1.0000 0.58840  0.35300  0.41900  Biso   1.000  O
  O22      1.0000 0.33440  0.62310  0.41360  Biso   1.000  O
  O23      1.0000 0.67430  0.30210  0.23210  Biso   1.000  O
  O24      1.0000 0.71820  0.74260  0.22900  Biso   1.000  O
  O25      1.0000 0.44130  0.93960  0.07640  Biso   1.000  O
  Cd2      1.0000 0.26159  0.33412  0.00816  Biso   1.000  Cd
  Mo7      1.0000 0.73678  0.40450  0.67733  Biso   1.000  Mo
  Mo8      1.0000 0.42209  0.20912  0.67354  Biso   1.000  Mo
  Mo9      1.0000 0.25288  0.69707  0.66684  Biso   1.000  Mo
  Mo10     1.0000 0.71895  0.20196  0.67528  Biso   1.000  Mo
  Mo11     1.0000 0.47106  0.68968  0.66958  Biso   1.000  Mo
  Mo12     1.0000 0.22394  0.41846  0.67104  Biso   1.000  Mo
  P5       1.0000 0.44837  0.39404  0.78458  Biso   1.000  P
  P6       1.0000 0.60829  0.99191  0.84044  Biso   1.000  P
  P7       1.0000 0.06215  0.57638  0.83417  Biso   1.000  P
  P8       1.0000 0.69330  0.59307  0.80571  Biso   1.000  P
  O26      1.0000 0.42770  0.34860  0.89370  Biso   1.000  O
  O27      1.0000 0.64400  0.85240  0.88500  Biso   1.000  O
  O28      1.0000 0.08630  0.48380  0.77710  Biso   1.000  O
  O29      1.0000 0.68850  0.56980  0.91450  Biso   1.000  O
  O30      1.0000 0.11700  0.51460  0.92850  Biso   1.000  O
  O31      1.0000 0.91540  0.64090  0.85870  Biso   1.000  O
  O32      1.0000 0.10210  0.68770  0.76840  Biso   1.000  O
  O33      1.0000 0.53170  0.47310  0.74490  Biso   1.000  O
  O34      1.0000 0.74690  0.46300  0.78550  Biso   1.000  O
  O35      1.0000 0.77720  0.66800  0.74380  Biso   1.000  O
  O36      1.0000 0.38160  0.38380  0.58220  Biso   1.000  O
  O37      1.0000 0.32460  0.47950  0.73910  Biso   1.000  O
  O38      1.0000 0.71450  0.03340  0.77810  Biso   1.000  O
  O39      1.0000 0.55900  0.67040  0.77760  Biso   1.000  O
  O40      1.0000 0.50140  0.04440  0.77920  Biso   1.000  O
  O41      1.0000 0.75020  0.24230  0.77670  Biso   1.000  O
  O42      1.0000 0.18910  0.61460  0.59780  Biso   1.000  O
  O43      1.0000 0.60970  0.16790  0.60460  Biso   1.000  O
  O44      1.0000 0.65270  0.60210  0.60410  Biso   1.000  O
  O45      1.0000 0.51420  0.27880  0.74090  Biso   1.000  O
  O46      1.0000 0.41160  0.64700  0.58100  Biso   1.000  O
  O47      1.0000 0.66560  0.37690  0.58640  Biso   1.000  O
  O48      1.0000 0.32570  0.69790  0.76790  Biso   1.000  O
  O49      1.0000 0.28180  0.25740  0.77100  Biso   1.000  O
  O50      1.0000 0.55870  0.06040  0.92360  Biso   1.000  O
  Cd3      1.0000 0.50000  0.50000  0.50000  Biso   1.000  Cd
