data_IBICED_clean
_audit_creation_date              2014-07-02
_audit_creation_method            'Materials Studio'
_symmetry_space_group_name_H-M    'P1'
_symmetry_Int_Tables_number       1
_symmetry_cell_setting            triclinic
loop_
_symmetry_equiv_pos_as_xyz
  x,y,z
_cell_length_a                    10.4796
_cell_length_b                    17.7680
_cell_length_c                    17.7680
_cell_angle_alpha                 120.0000
_cell_angle_beta                  90.0000
_cell_angle_gamma                 90.0000
loop_
_atom_site_label
_atom_site_type_symbol
_atom_site_fract_x
_atom_site_fract_y
_atom_site_fract_z
_atom_site_U_iso_or_equiv
_atom_site_adp_type
_atom_site_occupancy
Zn1    Zn    0.73715   0.47221   0.54293   0.01267  Uiso   1.00
Zn2    Zn    0.40382   0.07072   0.52779   0.01267  Uiso   1.00
Zn3    Zn    0.07048   0.45707   0.92928   0.01267  Uiso   1.00
Zn4    Zn    0.23715   0.52779   0.45707   0.01267  Uiso   1.00
Zn5    Zn    0.90382   0.92928   0.47221   0.01267  Uiso   1.00
Zn6    Zn    0.57048   0.54293   0.07072   0.01267  Uiso   1.00
H1     H     0.82920   0.55490   0.47530   0.01267  Uiso   1.00
H2     H     0.62330   0.62480   0.47090   0.01267  Uiso   1.00
H3     H     0.59820   0.52080   0.32500   0.01267  Uiso   1.00
H4     H     0.75720   0.40850   0.26050   0.01267  Uiso   1.00
H5     H     0.64760   0.39330   0.31160   0.01267  Uiso   1.00
H6     H     0.78210   0.42500   0.35460   0.01267  Uiso   1.00
H7     H     0.85790   0.56820   0.35150   0.01267  Uiso   1.00
H8     H     0.75050   0.63570   0.36640   0.01267  Uiso   1.00
H9     H     0.77300   0.55560   0.27340   0.01267  Uiso   1.00
H10    H     0.70180   0.89730   0.57320   0.01267  Uiso   1.00
H11    H     0.02170   0.77680   0.47240   0.01267  Uiso   1.00
H12    H     0.64580   0.79380   0.61210   0.01267  Uiso   1.00
H13    H     0.98110   0.67780   0.51630   0.01267  Uiso   1.00
H14    H     0.69490   0.66940   0.62020   0.01267  Uiso   1.00
H15    H     0.84010   0.64970   0.62240   0.01267  Uiso   1.00
H16    H     0.49587   0.92040   0.44510   0.01267  Uiso   1.00
H17    H     0.28997   0.84610   0.37520   0.01267  Uiso   1.00
H18    H     0.26487   0.80420   0.47920   0.01267  Uiso   1.00
H19    H     0.42387   0.85200   0.59150   0.01267  Uiso   1.00
H20    H     0.31427   0.91830   0.60670   0.01267  Uiso   1.00
H21    H     0.44877   0.92960   0.57500   0.01267  Uiso   1.00
H22    H     0.52457   0.78330   0.43180   0.01267  Uiso   1.00
H23    H     0.41717   0.73070   0.36430   0.01267  Uiso   1.00
H24    H     0.43967   0.71780   0.44440   0.01267  Uiso   1.00
H25    H     0.36847   0.67590   0.10270   0.01267  Uiso   1.00
H26    H     0.68837   0.69560   0.22320   0.01267  Uiso   1.00
H27    H     0.31247   0.81830   0.20620   0.01267  Uiso   1.00
H28    H     0.64777   0.83850   0.32220   0.01267  Uiso   1.00
H29    H     0.36157   0.95080   0.33060   0.01267  Uiso   1.00
H30    H     0.50677   0.97270   0.35030   0.01267  Uiso   1.00
H31    H     0.16253   0.52470   0.07960   0.01267  Uiso   1.00
H32    H     0.95663   0.52910   0.15390   0.01267  Uiso   1.00
H33    H     0.93153   0.67500   0.19580   0.01267  Uiso   1.00
H34    H     0.09053   0.73950   0.14800   0.01267  Uiso   1.00
H35    H     0.98093   0.68840   0.08170   0.01267  Uiso   1.00
H36    H     0.11543   0.64540   0.07040   0.01267  Uiso   1.00
H37    H     0.19123   0.64850   0.21670   0.01267  Uiso   1.00
H38    H     0.08383   0.63360   0.26930   0.01267  Uiso   1.00
H39    H     0.10633   0.72660   0.28220   0.01267  Uiso   1.00
H40    H     0.03513   0.42680   0.32410   0.01267  Uiso   1.00
H41    H     0.35503   0.52760   0.30440   0.01267  Uiso   1.00
H42    H     0.97913   0.38790   0.18170   0.01267  Uiso   1.00
H43    H     0.31443   0.48370   0.16150   0.01267  Uiso   1.00
H44    H     0.02823   0.37980   0.04920   0.01267  Uiso   1.00
H45    H     0.17343   0.37760   0.02730   0.01267  Uiso   1.00
H46    H     0.32920   0.44510   0.52470   0.01267  Uiso   1.00
H47    H     0.12330   0.37520   0.52910   0.01267  Uiso   1.00
H48    H     0.09820   0.47920   0.67500   0.01267  Uiso   1.00
H49    H     0.25720   0.59150   0.73950   0.01267  Uiso   1.00
H50    H     0.14760   0.60670   0.68840   0.01267  Uiso   1.00
H51    H     0.28210   0.57500   0.64540   0.01267  Uiso   1.00
H52    H     0.35790   0.43180   0.64850   0.01267  Uiso   1.00
H53    H     0.25050   0.36430   0.63360   0.01267  Uiso   1.00
H54    H     0.27300   0.44440   0.72660   0.01267  Uiso   1.00
H55    H     0.20180   0.10270   0.42680   0.01267  Uiso   1.00
H56    H     0.52170   0.22320   0.52760   0.01267  Uiso   1.00
H57    H     0.14580   0.20620   0.38790   0.01267  Uiso   1.00
H58    H     0.48110   0.32220   0.48370   0.01267  Uiso   1.00
H59    H     0.19490   0.33060   0.37980   0.01267  Uiso   1.00
H60    H     0.34010   0.35030   0.37760   0.01267  Uiso   1.00
H61    H     0.99587   0.07960   0.55490   0.01267  Uiso   1.00
H62    H     0.78997   0.15390   0.62480   0.01267  Uiso   1.00
H63    H     0.76487   0.19580   0.52080   0.01267  Uiso   1.00
H64    H     0.92387   0.14800   0.40850   0.01267  Uiso   1.00
H65    H     0.81427   0.08170   0.39330   0.01267  Uiso   1.00
H66    H     0.94877   0.07040   0.42500   0.01267  Uiso   1.00
H67    H     0.02457   0.21670   0.56820   0.01267  Uiso   1.00
H68    H     0.91717   0.26930   0.63570   0.01267  Uiso   1.00
H69    H     0.93967   0.28220   0.55560   0.01267  Uiso   1.00
H70    H     0.86847   0.32410   0.89730   0.01267  Uiso   1.00
H71    H     0.18837   0.30440   0.77680   0.01267  Uiso   1.00
H72    H     0.81247   0.18170   0.79380   0.01267  Uiso   1.00
H73    H     0.14777   0.16150   0.67780   0.01267  Uiso   1.00
H74    H     0.86157   0.04920   0.66940   0.01267  Uiso   1.00
H75    H     0.00677   0.02730   0.64970   0.01267  Uiso   1.00
H76    H     0.66253   0.47530   0.92040   0.01267  Uiso   1.00
H77    H     0.45663   0.47090   0.84610   0.01267  Uiso   1.00
H78    H     0.43153   0.32500   0.80420   0.01267  Uiso   1.00
H79    H     0.59053   0.26050   0.85200   0.01267  Uiso   1.00
H80    H     0.48093   0.31160   0.91830   0.01267  Uiso   1.00
H81    H     0.61543   0.35460   0.92960   0.01267  Uiso   1.00
H82    H     0.69123   0.35150   0.78330   0.01267  Uiso   1.00
H83    H     0.58383   0.36640   0.73070   0.01267  Uiso   1.00
H84    H     0.60633   0.27340   0.71780   0.01267  Uiso   1.00
H85    H     0.53513   0.57320   0.67590   0.01267  Uiso   1.00
H86    H     0.85503   0.47240   0.69560   0.01267  Uiso   1.00
H87    H     0.47913   0.61210   0.81830   0.01267  Uiso   1.00
H88    H     0.81443   0.51630   0.83850   0.01267  Uiso   1.00
H89    H     0.52823   0.62020   0.95080   0.01267  Uiso   1.00
H90    H     0.67343   0.62240   0.97270   0.01267  Uiso   1.00
C1     C     0.53100   0.52100   0.46780   0.01267  Uiso   1.00
C2     C     0.64710   0.56440   0.45110   0.01267  Uiso   1.00
C3     C     0.67800   0.52200   0.35440   0.01267  Uiso   1.00
C4     C     0.72000   0.42870   0.31680   0.01267  Uiso   1.00
C5     C     0.77390   0.57540   0.33460   0.01267  Uiso   1.00
C6     C     0.75680   0.85120   0.55990   0.01267  Uiso   1.00
C7     C     0.94620   0.78080   0.50170   0.01267  Uiso   1.00
C8     C     0.72330   0.78970   0.58470   0.01267  Uiso   1.00
C9     C     0.80680   0.72380   0.56770   0.01267  Uiso   1.00
C10    C     0.92140   0.72070   0.52670   0.01267  Uiso   1.00
C11    C     0.77340   0.65380   0.58680   0.01267  Uiso   1.00
C12    C     0.19767   0.94680   0.47900   0.01267  Uiso   1.00
C13    C     0.31377   0.88670   0.43560   0.01267  Uiso   1.00
C14    C     0.34467   0.83240   0.47800   0.01267  Uiso   1.00
C15    C     0.38667   0.88810   0.57130   0.01267  Uiso   1.00
C16    C     0.44057   0.75920   0.42460   0.01267  Uiso   1.00
C17    C     0.42347   0.70870   0.14880   0.01267  Uiso   1.00
C18    C     0.61287   0.72090   0.21920   0.01267  Uiso   1.00
C19    C     0.38997   0.79500   0.21030   0.01267  Uiso   1.00
C20    C     0.47347   0.84390   0.27620   0.01267  Uiso   1.00
C21    C     0.58807   0.80600   0.27930   0.01267  Uiso   1.00
C22    C     0.44007   0.93300   0.34620   0.01267  Uiso   1.00
C23    C     0.86433   0.53220   0.05320   0.01267  Uiso   1.00
C24    C     0.98043   0.54890   0.11330   0.01267  Uiso   1.00
C25    C     0.01133   0.64560   0.16760   0.01267  Uiso   1.00
C26    C     0.05333   0.68320   0.11190   0.01267  Uiso   1.00
C27    C     0.10723   0.66540   0.24080   0.01267  Uiso   1.00
C28    C     0.09013   0.44010   0.29130   0.01267  Uiso   1.00
C29    C     0.27953   0.49830   0.27910   0.01267  Uiso   1.00
C30    C     0.05663   0.41530   0.20500   0.01267  Uiso   1.00
C31    C     0.14013   0.43230   0.15610   0.01267  Uiso   1.00
C32    C     0.25473   0.47330   0.19400   0.01267  Uiso   1.00
C33    C     0.10673   0.41320   0.06700   0.01267  Uiso   1.00
C34    C     0.03100   0.47900   0.53220   0.01267  Uiso   1.00
C35    C     0.14710   0.43560   0.54890   0.01267  Uiso   1.00
C36    C     0.17800   0.47800   0.64560   0.01267  Uiso   1.00
C37    C     0.22000   0.57130   0.68320   0.01267  Uiso   1.00
C38    C     0.27390   0.42460   0.66540   0.01267  Uiso   1.00
C39    C     0.25680   0.14880   0.44010   0.01267  Uiso   1.00
C40    C     0.44620   0.21920   0.49830   0.01267  Uiso   1.00
C41    C     0.22330   0.21030   0.41530   0.01267  Uiso   1.00
C42    C     0.30680   0.27620   0.43230   0.01267  Uiso   1.00
C43    C     0.42140   0.27930   0.47330   0.01267  Uiso   1.00
C44    C     0.27340   0.34620   0.41320   0.01267  Uiso   1.00
C45    C     0.69767   0.05320   0.52100   0.01267  Uiso   1.00
C46    C     0.81377   0.11330   0.56440   0.01267  Uiso   1.00
C47    C     0.84467   0.16760   0.52200   0.01267  Uiso   1.00
C48    C     0.88667   0.11190   0.42870   0.01267  Uiso   1.00
C49    C     0.94057   0.24080   0.57540   0.01267  Uiso   1.00
C50    C     0.92347   0.29130   0.85120   0.01267  Uiso   1.00
C51    C     0.11287   0.27910   0.78080   0.01267  Uiso   1.00
C52    C     0.88997   0.20500   0.78970   0.01267  Uiso   1.00
C53    C     0.97347   0.15610   0.72380   0.01267  Uiso   1.00
C54    C     0.08807   0.19400   0.72070   0.01267  Uiso   1.00
C55    C     0.94007   0.06700   0.65380   0.01267  Uiso   1.00
C56    C     0.36433   0.46780   0.94680   0.01267  Uiso   1.00
C57    C     0.48043   0.45110   0.88670   0.01267  Uiso   1.00
C58    C     0.51133   0.35440   0.83240   0.01267  Uiso   1.00
C59    C     0.55333   0.31680   0.88810   0.01267  Uiso   1.00
C60    C     0.60723   0.33460   0.75920   0.01267  Uiso   1.00
C61    C     0.59013   0.55990   0.70870   0.01267  Uiso   1.00
C62    C     0.77953   0.50170   0.72090   0.01267  Uiso   1.00
C63    C     0.55663   0.58470   0.79500   0.01267  Uiso   1.00
C64    C     0.64013   0.56770   0.84390   0.01267  Uiso   1.00
C65    C     0.75473   0.52670   0.80600   0.01267  Uiso   1.00
C66    C     0.60673   0.58680   0.93300   0.01267  Uiso   1.00
Br1    Br    0.74839   0.32032   0.45183   0.01267  Uiso   1.00
Br2    Br    0.41506   0.13151   0.67968   0.01267  Uiso   1.00
Br3    Br    0.08172   0.54817   0.86849   0.01267  Uiso   1.00
Br4    Br    0.24839   0.67968   0.54817   0.01267  Uiso   1.00
Br5    Br    0.91506   0.86849   0.32032   0.01267  Uiso   1.00
Br6    Br    0.58172   0.45183   0.13151   0.01267  Uiso   1.00
N1     N     0.75650   0.56690   0.50740   0.01267  Uiso   1.00
N2     N     0.86390   0.84520   0.51850   0.01267  Uiso   1.00
N3     N     0.42317   0.94050   0.43310   0.01267  Uiso   1.00
N4     N     0.53057   0.67330   0.15480   0.01267  Uiso   1.00
N5     N     0.08983   0.49260   0.05950   0.01267  Uiso   1.00
N6     N     0.19723   0.48150   0.32670   0.01267  Uiso   1.00
N7     N     0.25650   0.43310   0.49260   0.01267  Uiso   1.00
N8     N     0.36390   0.15480   0.48150   0.01267  Uiso   1.00
N9     N     0.92317   0.05950   0.56690   0.01267  Uiso   1.00
N10    N     0.03057   0.32670   0.84520   0.01267  Uiso   1.00
N11    N     0.58983   0.50740   0.94050   0.01267  Uiso   1.00
N12    N     0.69723   0.51850   0.67330   0.01267  Uiso   1.00
O1     O     0.54110   0.48830   0.51560   0.01267  Uiso   1.00
O2     O     0.43230   0.52070   0.42800   0.01267  Uiso   1.00
O3     O     0.20777   0.02730   0.51170   0.01267  Uiso   1.00
O4     O     0.09897   0.90730   0.47930   0.01267  Uiso   1.00
O5     O     0.87443   0.48440   0.97270   0.01267  Uiso   1.00
O6     O     0.76563   0.57200   0.09270   0.01267  Uiso   1.00
O7     O     0.04110   0.51170   0.48440   0.01267  Uiso   1.00
O8     O     0.93230   0.47930   0.57200   0.01267  Uiso   1.00
O9     O     0.70777   0.97270   0.48830   0.01267  Uiso   1.00
O10    O     0.59897   0.09270   0.52070   0.01267  Uiso   1.00
O11    O     0.37443   0.51560   0.02730   0.01267  Uiso   1.00
O12    O     0.26563   0.42800   0.90730   0.01267  Uiso   1.00
