data_image0
_cell_length_a       21.3111
_cell_length_b       20.9858
_cell_length_c       17.9319
_cell_angle_alpha    90
_cell_angle_beta     96.387
_cell_angle_gamma    90

_symmetry_space_group_name_H-M    "P 1"
_symmetry_int_tables_number       1

loop_
  _symmetry_equiv_pos_as_xyz
  'x, y, z'

loop_
  _atom_site_label
  _atom_site_occupancy
  _atom_site_fract_x
  _atom_site_fract_y
  _atom_site_fract_z
  _atom_site_thermal_displace_type
  _atom_site_B_iso_or_equiv
  _atom_site_type_symbol
  W1       1.0000 0.71508  0.01981  0.99674  Biso   1.000  W
  Cu1      1.0000 0.81869  0.08978  0.97362  Biso   1.000  Cu
  Cu2      1.0000 0.73681  0.04740  0.14348  Biso   1.000  Cu
  Cu3      1.0000 0.78545  0.91166  0.01649  Biso   1.000  Cu
  S1       1.0000 0.74013  0.11735  0.04570  Biso   1.000  S
  S2       1.0000 0.71353  0.94878  0.09107  Biso   1.000  S
  S3       1.0000 0.79084  0.98982  0.92639  Biso   1.000  S
  Br1      1.0000 0.88303  0.86398  0.07607  Biso   1.000  Br
  C1       1.0000 0.82990  0.21020  0.88150  Biso   1.000  C
  H1       1.0000 0.84410  0.22950  0.92820  Biso   1.000  H
  C2       1.0000 0.82160  0.24760  0.81850  Biso   1.000  C
  H2       1.0000 0.82940  0.29210  0.82230  Biso   1.000  H
  C3       1.0000 0.80190  0.22090  0.74960  Biso   1.000  C
  C4       1.0000 0.79150  0.15670  0.74760  Biso   1.000  C
  H3       1.0000 0.77870  0.13630  0.70110  Biso   1.000  H
  C5       1.0000 0.79980  0.12140  0.81320  Biso   1.000  C
  H4       1.0000 0.79170  0.07680  0.81060  Biso   1.000  H
  C6       1.0000 0.78860  0.25960  0.68080  Biso   1.000  C
  C7       1.0000 0.82520  0.31140  0.66520  Biso   1.000  C
  H5       1.0000 0.86270  0.32140  0.69680  Biso   1.000  H
  C8       1.0000 0.80620  0.34850  0.60280  Biso   1.000  C
  H6       1.0000 0.83190  0.38380  0.59310  Biso   1.000  H
  C9       1.0000 0.72130  0.28670  0.57070  Biso   1.000  C
  H7       1.0000 0.68460  0.27740  0.53740  Biso   1.000  H
  C10      1.0000 0.73590  0.24680  0.62990  Biso   1.000  C
  H8       1.0000 0.71040  0.21050  0.63650  Biso   1.000  H
  C11      1.0000 0.18020  0.10330  0.22910  Biso   1.000  C
  H9       1.0000 0.21310  0.13370  0.22870  Biso   1.000  H
  C12      1.0000 0.12680  0.11180  0.17970  Biso   1.000  C
  H10      1.0000 0.12330  0.14740  0.14690  Biso   1.000  H
  C13      1.0000 0.07800  0.06790  0.17820  Biso   1.000  C
  C14      1.0000 0.08670  0.01760  0.22720  Biso   1.000  C
  H11      1.0000 0.05490  0.98590  0.22730  Biso   1.000  H
  C15      1.0000 0.14040  0.01250  0.27570  Biso   1.000  C
  H12      1.0000 0.14380  0.97770  0.30980  Biso   1.000  H
  C16      1.0000 0.02010  0.07550  0.12500  Biso   1.000  C
  C17      1.0000 0.99600  0.13350  0.10150  Biso   1.000  C
  H13      1.0000 0.01840  0.17120  0.11730  Biso   1.000  H
  C18      1.0000 0.93990  0.13810  0.05560  Biso   1.000  C
  H14      1.0000 0.92440  0.17930  0.04160  Biso   1.000  H
  C19      1.0000 0.93010  0.03130  0.05040  Biso   1.000  C
  H15      1.0000 0.90740  0.99450  0.03210  Biso   1.000  H
  C20      1.0000 0.98710  0.02260  0.09780  Biso   1.000  C
  H16      1.0000 0.00220  0.98100  0.11060  Biso   1.000  H
  C21      1.0000 0.64360  0.03890  0.25980  Biso   1.000  C
  H17      1.0000 0.67860  0.02300  0.29170  Biso   1.000  H
  C22      1.0000 0.58390  0.03760  0.28480  Biso   1.000  C
  H18      1.0000 0.57900  0.02310  0.33400  Biso   1.000  H
  C23      1.0000 0.53200  0.05750  0.23760  Biso   1.000  C
  C24      1.0000 0.54190  0.07910  0.16700  Biso   1.000  C
  H19      1.0000 0.50740  0.09210  0.13220  Biso   1.000  H
  C25      1.0000 0.60300  0.08160  0.14790  Biso   1.000  C
  H20      1.0000 0.60950  0.09830  0.10010  Biso   1.000  H
  N1       1.0000 0.81860  0.14720  0.87970  Biso   1.000  N
  N2       1.0000 0.75530  0.33830  0.55630  Biso   1.000  N
  N3       1.0000 0.18900  0.05400  0.27830  Biso   1.000  N
  N4       1.0000 0.90680  0.08780  0.03000  Biso   1.000  N
  N5       1.0000 0.65310  0.06180  0.19270  Biso   1.000  N
  W2       1.0000 0.21508  0.51981  0.99674  Biso   1.000  W
  Cu4      1.0000 0.31869  0.58978  0.97362  Biso   1.000  Cu
  Cu5      1.0000 0.23681  0.54740  0.14348  Biso   1.000  Cu
  Cu6      1.0000 0.28545  0.41166  0.01649  Biso   1.000  Cu
  S4       1.0000 0.24013  0.61735  0.04570  Biso   1.000  S
  S5       1.0000 0.21353  0.44878  0.09107  Biso   1.000  S
  S6       1.0000 0.29084  0.48982  0.92639  Biso   1.000  S
  Br2      1.0000 0.38303  0.36398  0.07607  Biso   1.000  Br
  C26      1.0000 0.32990  0.71020  0.88150  Biso   1.000  C
  H21      1.0000 0.34410  0.72950  0.92820  Biso   1.000  H
  C27      1.0000 0.32160  0.74760  0.81850  Biso   1.000  C
  H22      1.0000 0.32940  0.79210  0.82230  Biso   1.000  H
  C28      1.0000 0.30190  0.72090  0.74960  Biso   1.000  C
  C29      1.0000 0.29150  0.65670  0.74760  Biso   1.000  C
  H23      1.0000 0.27870  0.63630  0.70110  Biso   1.000  H
  C30      1.0000 0.29980  0.62140  0.81320  Biso   1.000  C
  H24      1.0000 0.29170  0.57680  0.81060  Biso   1.000  H
  C31      1.0000 0.28860  0.75960  0.68080  Biso   1.000  C
  C32      1.0000 0.32520  0.81140  0.66520  Biso   1.000  C
  H25      1.0000 0.36270  0.82140  0.69680  Biso   1.000  H
  C33      1.0000 0.30620  0.84850  0.60280  Biso   1.000  C
  H26      1.0000 0.33190  0.88380  0.59310  Biso   1.000  H
  C34      1.0000 0.22130  0.78670  0.57070  Biso   1.000  C
  H27      1.0000 0.18460  0.77740  0.53740  Biso   1.000  H
  C35      1.0000 0.23590  0.74680  0.62990  Biso   1.000  C
  H28      1.0000 0.21040  0.71050  0.63650  Biso   1.000  H
  C36      1.0000 0.68020  0.60330  0.22910  Biso   1.000  C
  H29      1.0000 0.71310  0.63370  0.22870  Biso   1.000  H
  C37      1.0000 0.62680  0.61180  0.17970  Biso   1.000  C
  H30      1.0000 0.62330  0.64740  0.14690  Biso   1.000  H
  C38      1.0000 0.57800  0.56790  0.17820  Biso   1.000  C
  C39      1.0000 0.58670  0.51760  0.22720  Biso   1.000  C
  H31      1.0000 0.55490  0.48590  0.22730  Biso   1.000  H
  C40      1.0000 0.64040  0.51250  0.27570  Biso   1.000  C
  H32      1.0000 0.64380  0.47770  0.30980  Biso   1.000  H
  C41      1.0000 0.52010  0.57550  0.12500  Biso   1.000  C
  C42      1.0000 0.49600  0.63350  0.10150  Biso   1.000  C
  H33      1.0000 0.51840  0.67120  0.11730  Biso   1.000  H
  C43      1.0000 0.43990  0.63810  0.05560  Biso   1.000  C
  H34      1.0000 0.42440  0.67930  0.04160  Biso   1.000  H
  C44      1.0000 0.43010  0.53130  0.05040  Biso   1.000  C
  H35      1.0000 0.40740  0.49450  0.03210  Biso   1.000  H
  C45      1.0000 0.48710  0.52260  0.09780  Biso   1.000  C
  H36      1.0000 0.50220  0.48100  0.11060  Biso   1.000  H
  C46      1.0000 0.14360  0.53890  0.25980  Biso   1.000  C
  H37      1.0000 0.17860  0.52300  0.29170  Biso   1.000  H
  C47      1.0000 0.08390  0.53760  0.28480  Biso   1.000  C
  H38      1.0000 0.07900  0.52310  0.33400  Biso   1.000  H
  C48      1.0000 0.03200  0.55750  0.23760  Biso   1.000  C
  C49      1.0000 0.04190  0.57910  0.16700  Biso   1.000  C
  H39      1.0000 0.00740  0.59210  0.13220  Biso   1.000  H
  C50      1.0000 0.10300  0.58160  0.14790  Biso   1.000  C
  H40      1.0000 0.10950  0.59830  0.10010  Biso   1.000  H
  N6       1.0000 0.31860  0.64720  0.87970  Biso   1.000  N
  N7       1.0000 0.25530  0.83830  0.55630  Biso   1.000  N
  N8       1.0000 0.68900  0.55400  0.27830  Biso   1.000  N
  N9       1.0000 0.40680  0.58780  0.03000  Biso   1.000  N
  N10      1.0000 0.15310  0.56180  0.19270  Biso   1.000  N
  W3       1.0000 0.28492  0.01981  0.50326  Biso   1.000  W
  Cu7      1.0000 0.18131  0.08978  0.52638  Biso   1.000  Cu
  Cu8      1.0000 0.26319  0.04740  0.35652  Biso   1.000  Cu
  Cu9      1.0000 0.21455  0.91166  0.48351  Biso   1.000  Cu
  S7       1.0000 0.25987  0.11735  0.45430  Biso   1.000  S
  S8       1.0000 0.28647  0.94878  0.40893  Biso   1.000  S
  S9       1.0000 0.20916  0.98982  0.57361  Biso   1.000  S
  Br3      1.0000 0.11697  0.86398  0.42393  Biso   1.000  Br
  C51      1.0000 0.17010  0.21020  0.61850  Biso   1.000  C
  H41      1.0000 0.15590  0.22950  0.57180  Biso   1.000  H
  C52      1.0000 0.17840  0.24760  0.68150  Biso   1.000  C
  H42      1.0000 0.17060  0.29210  0.67770  Biso   1.000  H
  C53      1.0000 0.19810  0.22090  0.75040  Biso   1.000  C
  C54      1.0000 0.20850  0.15670  0.75240  Biso   1.000  C
  H43      1.0000 0.22130  0.13630  0.79890  Biso   1.000  H
  C55      1.0000 0.20020  0.12140  0.68680  Biso   1.000  C
  H44      1.0000 0.20830  0.07680  0.68940  Biso   1.000  H
  C56      1.0000 0.21140  0.25960  0.81920  Biso   1.000  C
  C57      1.0000 0.17480  0.31140  0.83480  Biso   1.000  C
  H45      1.0000 0.13730  0.32140  0.80320  Biso   1.000  H
  C58      1.0000 0.19380  0.34850  0.89720  Biso   1.000  C
  H46      1.0000 0.16810  0.38380  0.90690  Biso   1.000  H
  C59      1.0000 0.27870  0.28670  0.92930  Biso   1.000  C
  H47      1.0000 0.31540  0.27740  0.96260  Biso   1.000  H
  C60      1.0000 0.26410  0.24680  0.87010  Biso   1.000  C
  H48      1.0000 0.28960  0.21050  0.86350  Biso   1.000  H
  C61      1.0000 0.81980  0.10330  0.27090  Biso   1.000  C
  H49      1.0000 0.78690  0.13370  0.27130  Biso   1.000  H
  C62      1.0000 0.87320  0.11180  0.32030  Biso   1.000  C
  H50      1.0000 0.87670  0.14740  0.35310  Biso   1.000  H
  C63      1.0000 0.92200  0.06790  0.32180  Biso   1.000  C
  C64      1.0000 0.91330  0.01760  0.27280  Biso   1.000  C
  H51      1.0000 0.94510  0.98590  0.27270  Biso   1.000  H
  C65      1.0000 0.85960  0.01250  0.22430  Biso   1.000  C
  H52      1.0000 0.85620  0.97770  0.19020  Biso   1.000  H
  C66      1.0000 0.97990  0.07550  0.37500  Biso   1.000  C
  C67      1.0000 0.00400  0.13350  0.39850  Biso   1.000  C
  H53      1.0000 0.98160  0.17120  0.38270  Biso   1.000  H
  C68      1.0000 0.06010  0.13810  0.44440  Biso   1.000  C
  H54      1.0000 0.07560  0.17930  0.45840  Biso   1.000  H
  C69      1.0000 0.06990  0.03130  0.44960  Biso   1.000  C
  H55      1.0000 0.09260  0.99450  0.46790  Biso   1.000  H
  C70      1.0000 0.01290  0.02260  0.40220  Biso   1.000  C
  H56      1.0000 0.99780  0.98100  0.38940  Biso   1.000  H
  C71      1.0000 0.35640  0.03890  0.24020  Biso   1.000  C
  H57      1.0000 0.32140  0.02300  0.20830  Biso   1.000  H
  C72      1.0000 0.41610  0.03760  0.21520  Biso   1.000  C
  H58      1.0000 0.42100  0.02310  0.16600  Biso   1.000  H
  C73      1.0000 0.46800  0.05750  0.26240  Biso   1.000  C
  C74      1.0000 0.45810  0.07910  0.33300  Biso   1.000  C
  H59      1.0000 0.49260  0.09210  0.36780  Biso   1.000  H
  C75      1.0000 0.39700  0.08160  0.35210  Biso   1.000  C
  H60      1.0000 0.39050  0.09830  0.39990  Biso   1.000  H
  N11      1.0000 0.18140  0.14720  0.62030  Biso   1.000  N
  N12      1.0000 0.24470  0.33830  0.94370  Biso   1.000  N
  N13      1.0000 0.81100  0.05400  0.22170  Biso   1.000  N
  N14      1.0000 0.09320  0.08780  0.47000  Biso   1.000  N
  N15      1.0000 0.34690  0.06180  0.30730  Biso   1.000  N
  W4       1.0000 0.78492  0.51981  0.50326  Biso   1.000  W
  Cu10     1.0000 0.68131  0.58978  0.52638  Biso   1.000  Cu
  Cu11     1.0000 0.76319  0.54740  0.35652  Biso   1.000  Cu
  Cu12     1.0000 0.71455  0.41166  0.48351  Biso   1.000  Cu
  S10      1.0000 0.75987  0.61735  0.45430  Biso   1.000  S
  S11      1.0000 0.78647  0.44878  0.40893  Biso   1.000  S
  S12      1.0000 0.70916  0.48982  0.57361  Biso   1.000  S
  Br4      1.0000 0.61697  0.36398  0.42393  Biso   1.000  Br
  C76      1.0000 0.67010  0.71020  0.61850  Biso   1.000  C
  H61      1.0000 0.65590  0.72950  0.57180  Biso   1.000  H
  C77      1.0000 0.67840  0.74760  0.68150  Biso   1.000  C
  H62      1.0000 0.67060  0.79210  0.67770  Biso   1.000  H
  C78      1.0000 0.69810  0.72090  0.75040  Biso   1.000  C
  C79      1.0000 0.70850  0.65670  0.75240  Biso   1.000  C
  H63      1.0000 0.72130  0.63630  0.79890  Biso   1.000  H
  C80      1.0000 0.70020  0.62140  0.68680  Biso   1.000  C
  H64      1.0000 0.70830  0.57680  0.68940  Biso   1.000  H
  C81      1.0000 0.71140  0.75960  0.81920  Biso   1.000  C
  C82      1.0000 0.67480  0.81140  0.83480  Biso   1.000  C
  H65      1.0000 0.63730  0.82140  0.80320  Biso   1.000  H
  C83      1.0000 0.69380  0.84850  0.89720  Biso   1.000  C
  H66      1.0000 0.66810  0.88380  0.90690  Biso   1.000  H
  C84      1.0000 0.77870  0.78670  0.92930  Biso   1.000  C
  H67      1.0000 0.81540  0.77740  0.96260  Biso   1.000  H
  C85      1.0000 0.76410  0.74680  0.87010  Biso   1.000  C
  H68      1.0000 0.78960  0.71050  0.86350  Biso   1.000  H
  C86      1.0000 0.31980  0.60330  0.27090  Biso   1.000  C
  H69      1.0000 0.28690  0.63370  0.27130  Biso   1.000  H
  C87      1.0000 0.37320  0.61180  0.32030  Biso   1.000  C
  H70      1.0000 0.37670  0.64740  0.35310  Biso   1.000  H
  C88      1.0000 0.42200  0.56790  0.32180  Biso   1.000  C
  C89      1.0000 0.41330  0.51760  0.27280  Biso   1.000  C
  H71      1.0000 0.44510  0.48590  0.27270  Biso   1.000  H
  C90      1.0000 0.35960  0.51250  0.22430  Biso   1.000  C
  H72      1.0000 0.35620  0.47770  0.19020  Biso   1.000  H
  C91      1.0000 0.47990  0.57550  0.37500  Biso   1.000  C
  C92      1.0000 0.50400  0.63350  0.39850  Biso   1.000  C
  H73      1.0000 0.48160  0.67120  0.38270  Biso   1.000  H
  C93      1.0000 0.56010  0.63810  0.44440  Biso   1.000  C
  H74      1.0000 0.57560  0.67930  0.45840  Biso   1.000  H
  C94      1.0000 0.56990  0.53130  0.44960  Biso   1.000  C
  H75      1.0000 0.59260  0.49450  0.46790  Biso   1.000  H
  C95      1.0000 0.51290  0.52260  0.40220  Biso   1.000  C
  H76      1.0000 0.49780  0.48100  0.38940  Biso   1.000  H
  C96      1.0000 0.85640  0.53890  0.24020  Biso   1.000  C
  H77      1.0000 0.82140  0.52300  0.20830  Biso   1.000  H
  C97      1.0000 0.91610  0.53760  0.21520  Biso   1.000  C
  H78      1.0000 0.92100  0.52310  0.16600  Biso   1.000  H
  C98      1.0000 0.96800  0.55750  0.26240  Biso   1.000  C
  C99      1.0000 0.95810  0.57910  0.33300  Biso   1.000  C
  H79      1.0000 0.99260  0.59210  0.36780  Biso   1.000  H
  C100     1.0000 0.89700  0.58160  0.35210  Biso   1.000  C
  H80      1.0000 0.89050  0.59830  0.39990  Biso   1.000  H
  N16      1.0000 0.68140  0.64720  0.62030  Biso   1.000  N
  N17      1.0000 0.74470  0.83830  0.94370  Biso   1.000  N
  N18      1.0000 0.31100  0.55400  0.22170  Biso   1.000  N
  N19      1.0000 0.59320  0.58780  0.47000  Biso   1.000  N
  N20      1.0000 0.84690  0.56180  0.30730  Biso   1.000  N
  W5       1.0000 0.28492  0.98019  0.00326  Biso   1.000  W
  Cu13     1.0000 0.18131  0.91022  0.02638  Biso   1.000  Cu
  Cu14     1.0000 0.26319  0.95260  0.85652  Biso   1.000  Cu
  Cu15     1.0000 0.21455  0.08834  0.98351  Biso   1.000  Cu
  S13      1.0000 0.25987  0.88265  0.95430  Biso   1.000  S
  S14      1.0000 0.28647  0.05122  0.90893  Biso   1.000  S
  S15      1.0000 0.20916  0.01018  0.07361  Biso   1.000  S
  Br5      1.0000 0.11697  0.13602  0.92393  Biso   1.000  Br
  C101     1.0000 0.17010  0.78980  0.11850  Biso   1.000  C
  H81      1.0000 0.15590  0.77050  0.07180  Biso   1.000  H
  C102     1.0000 0.17840  0.75240  0.18150  Biso   1.000  C
  H82      1.0000 0.17060  0.70790  0.17770  Biso   1.000  H
  C103     1.0000 0.19810  0.77910  0.25040  Biso   1.000  C
  C104     1.0000 0.20850  0.84330  0.25240  Biso   1.000  C
  H83      1.0000 0.22130  0.86370  0.29890  Biso   1.000  H
  C105     1.0000 0.20020  0.87860  0.18680  Biso   1.000  C
  H84      1.0000 0.20830  0.92320  0.18940  Biso   1.000  H
  C106     1.0000 0.21140  0.74040  0.31920  Biso   1.000  C
  C107     1.0000 0.17480  0.68860  0.33480  Biso   1.000  C
  H85      1.0000 0.13730  0.67860  0.30320  Biso   1.000  H
  C108     1.0000 0.19380  0.65150  0.39720  Biso   1.000  C
  H86      1.0000 0.16810  0.61620  0.40690  Biso   1.000  H
  C109     1.0000 0.27870  0.71330  0.42930  Biso   1.000  C
  H87      1.0000 0.31540  0.72260  0.46260  Biso   1.000  H
  C110     1.0000 0.26410  0.75320  0.37010  Biso   1.000  C
  H88      1.0000 0.28960  0.78950  0.36350  Biso   1.000  H
  C111     1.0000 0.81980  0.89670  0.77090  Biso   1.000  C
  H89      1.0000 0.78690  0.86630  0.77130  Biso   1.000  H
  C112     1.0000 0.87320  0.88820  0.82030  Biso   1.000  C
  H90      1.0000 0.87670  0.85260  0.85310  Biso   1.000  H
  C113     1.0000 0.92200  0.93210  0.82180  Biso   1.000  C
  C114     1.0000 0.91330  0.98240  0.77280  Biso   1.000  C
  H91      1.0000 0.94510  0.01410  0.77270  Biso   1.000  H
  C115     1.0000 0.85960  0.98750  0.72430  Biso   1.000  C
  H92      1.0000 0.85620  0.02230  0.69020  Biso   1.000  H
  C116     1.0000 0.97990  0.92450  0.87500  Biso   1.000  C
  C117     1.0000 0.00400  0.86650  0.89850  Biso   1.000  C
  H93      1.0000 0.98160  0.82880  0.88270  Biso   1.000  H
  C118     1.0000 0.06010  0.86190  0.94440  Biso   1.000  C
  H94      1.0000 0.07560  0.82070  0.95840  Biso   1.000  H
  C119     1.0000 0.06990  0.96870  0.94960  Biso   1.000  C
  H95      1.0000 0.09260  0.00550  0.96790  Biso   1.000  H
  C120     1.0000 0.01290  0.97740  0.90220  Biso   1.000  C
  H96      1.0000 0.99780  0.01900  0.88940  Biso   1.000  H
  C121     1.0000 0.35640  0.96110  0.74020  Biso   1.000  C
  H97      1.0000 0.32140  0.97700  0.70830  Biso   1.000  H
  C122     1.0000 0.41610  0.96240  0.71520  Biso   1.000  C
  H98      1.0000 0.42100  0.97690  0.66600  Biso   1.000  H
  C123     1.0000 0.46800  0.94250  0.76240  Biso   1.000  C
  C124     1.0000 0.45810  0.92090  0.83300  Biso   1.000  C
  H99      1.0000 0.49260  0.90790  0.86780  Biso   1.000  H
  C125     1.0000 0.39700  0.91840  0.85210  Biso   1.000  C
  H100     1.0000 0.39050  0.90170  0.89990  Biso   1.000  H
  N21      1.0000 0.18140  0.85280  0.12030  Biso   1.000  N
  N22      1.0000 0.24470  0.66170  0.44370  Biso   1.000  N
  N23      1.0000 0.81100  0.94600  0.72170  Biso   1.000  N
  N24      1.0000 0.09320  0.91220  0.97000  Biso   1.000  N
  N25      1.0000 0.34690  0.93820  0.80730  Biso   1.000  N
  W6       1.0000 0.78492  0.48019  0.00326  Biso   1.000  W
  Cu16     1.0000 0.68131  0.41022  0.02638  Biso   1.000  Cu
  Cu17     1.0000 0.76319  0.45260  0.85652  Biso   1.000  Cu
  Cu18     1.0000 0.71455  0.58834  0.98351  Biso   1.000  Cu
  S16      1.0000 0.75987  0.38265  0.95430  Biso   1.000  S
  S17      1.0000 0.78647  0.55122  0.90893  Biso   1.000  S
  S18      1.0000 0.70916  0.51018  0.07361  Biso   1.000  S
  Br6      1.0000 0.61697  0.63602  0.92393  Biso   1.000  Br
  C126     1.0000 0.67010  0.28980  0.11850  Biso   1.000  C
  H101     1.0000 0.65590  0.27050  0.07180  Biso   1.000  H
  C127     1.0000 0.67840  0.25240  0.18150  Biso   1.000  C
  H102     1.0000 0.67060  0.20790  0.17770  Biso   1.000  H
  C128     1.0000 0.69810  0.27910  0.25040  Biso   1.000  C
  C129     1.0000 0.70850  0.34330  0.25240  Biso   1.000  C
  H103     1.0000 0.72130  0.36370  0.29890  Biso   1.000  H
  C130     1.0000 0.70020  0.37860  0.18680  Biso   1.000  C
  H104     1.0000 0.70830  0.42320  0.18940  Biso   1.000  H
  C131     1.0000 0.71140  0.24040  0.31920  Biso   1.000  C
  C132     1.0000 0.67480  0.18860  0.33480  Biso   1.000  C
  H105     1.0000 0.63730  0.17860  0.30320  Biso   1.000  H
  C133     1.0000 0.69380  0.15150  0.39720  Biso   1.000  C
  H106     1.0000 0.66810  0.11620  0.40690  Biso   1.000  H
  C134     1.0000 0.77870  0.21330  0.42930  Biso   1.000  C
  H107     1.0000 0.81540  0.22260  0.46260  Biso   1.000  H
  C135     1.0000 0.76410  0.25320  0.37010  Biso   1.000  C
  H108     1.0000 0.78960  0.28950  0.36350  Biso   1.000  H
  C136     1.0000 0.31980  0.39670  0.77090  Biso   1.000  C
  H109     1.0000 0.28690  0.36630  0.77130  Biso   1.000  H
  C137     1.0000 0.37320  0.38820  0.82030  Biso   1.000  C
  H110     1.0000 0.37670  0.35260  0.85310  Biso   1.000  H
  C138     1.0000 0.42200  0.43210  0.82180  Biso   1.000  C
  C139     1.0000 0.41330  0.48240  0.77280  Biso   1.000  C
  H111     1.0000 0.44510  0.51410  0.77270  Biso   1.000  H
  C140     1.0000 0.35960  0.48750  0.72430  Biso   1.000  C
  H112     1.0000 0.35620  0.52230  0.69020  Biso   1.000  H
  C141     1.0000 0.47990  0.42450  0.87500  Biso   1.000  C
  C142     1.0000 0.50400  0.36650  0.89850  Biso   1.000  C
  H113     1.0000 0.48160  0.32880  0.88270  Biso   1.000  H
  C143     1.0000 0.56010  0.36190  0.94440  Biso   1.000  C
  H114     1.0000 0.57560  0.32070  0.95840  Biso   1.000  H
  C144     1.0000 0.56990  0.46870  0.94960  Biso   1.000  C
  H115     1.0000 0.59260  0.50550  0.96790  Biso   1.000  H
  C145     1.0000 0.51290  0.47740  0.90220  Biso   1.000  C
  H116     1.0000 0.49780  0.51900  0.88940  Biso   1.000  H
  C146     1.0000 0.85640  0.46110  0.74020  Biso   1.000  C
  H117     1.0000 0.82140  0.47700  0.70830  Biso   1.000  H
  C147     1.0000 0.91610  0.46240  0.71520  Biso   1.000  C
  H118     1.0000 0.92100  0.47690  0.66600  Biso   1.000  H
  C148     1.0000 0.96800  0.44250  0.76240  Biso   1.000  C
  C149     1.0000 0.95810  0.42090  0.83300  Biso   1.000  C
  H119     1.0000 0.99260  0.40790  0.86780  Biso   1.000  H
  C150     1.0000 0.89700  0.41840  0.85210  Biso   1.000  C
  H120     1.0000 0.89050  0.40170  0.89990  Biso   1.000  H
  N26      1.0000 0.68140  0.35280  0.12030  Biso   1.000  N
  N27      1.0000 0.74470  0.16170  0.44370  Biso   1.000  N
  N28      1.0000 0.31100  0.44600  0.72170  Biso   1.000  N
  N29      1.0000 0.59320  0.41220  0.97000  Biso   1.000  N
  N30      1.0000 0.84690  0.43820  0.80730  Biso   1.000  N
  W7       1.0000 0.71508  0.98019  0.49674  Biso   1.000  W
  Cu19     1.0000 0.81869  0.91022  0.47362  Biso   1.000  Cu
  Cu20     1.0000 0.73681  0.95260  0.64348  Biso   1.000  Cu
  Cu21     1.0000 0.78545  0.08834  0.51649  Biso   1.000  Cu
  S19      1.0000 0.74013  0.88265  0.54570  Biso   1.000  S
  S20      1.0000 0.71353  0.05122  0.59107  Biso   1.000  S
  S21      1.0000 0.79084  0.01018  0.42639  Biso   1.000  S
  Br7      1.0000 0.88303  0.13602  0.57607  Biso   1.000  Br
  C151     1.0000 0.82990  0.78980  0.38150  Biso   1.000  C
  H121     1.0000 0.84410  0.77050  0.42820  Biso   1.000  H
  C152     1.0000 0.82160  0.75240  0.31850  Biso   1.000  C
  H122     1.0000 0.82940  0.70790  0.32230  Biso   1.000  H
  C153     1.0000 0.80190  0.77910  0.24960  Biso   1.000  C
  C154     1.0000 0.79150  0.84330  0.24760  Biso   1.000  C
  H123     1.0000 0.77870  0.86370  0.20110  Biso   1.000  H
  C155     1.0000 0.79980  0.87860  0.31320  Biso   1.000  C
  H124     1.0000 0.79170  0.92320  0.31060  Biso   1.000  H
  C156     1.0000 0.78860  0.74040  0.18080  Biso   1.000  C
  C157     1.0000 0.82520  0.68860  0.16520  Biso   1.000  C
  H125     1.0000 0.86270  0.67860  0.19680  Biso   1.000  H
  C158     1.0000 0.80620  0.65150  0.10280  Biso   1.000  C
  H126     1.0000 0.83190  0.61620  0.09310  Biso   1.000  H
  C159     1.0000 0.72130  0.71330  0.07070  Biso   1.000  C
  H127     1.0000 0.68460  0.72260  0.03740  Biso   1.000  H
  C160     1.0000 0.73590  0.75320  0.12990  Biso   1.000  C
  H128     1.0000 0.71040  0.78950  0.13650  Biso   1.000  H
  C161     1.0000 0.18020  0.89670  0.72910  Biso   1.000  C
  H129     1.0000 0.21310  0.86630  0.72870  Biso   1.000  H
  C162     1.0000 0.12680  0.88820  0.67970  Biso   1.000  C
  H130     1.0000 0.12330  0.85260  0.64690  Biso   1.000  H
  C163     1.0000 0.07800  0.93210  0.67820  Biso   1.000  C
  C164     1.0000 0.08670  0.98240  0.72720  Biso   1.000  C
  H131     1.0000 0.05490  0.01410  0.72730  Biso   1.000  H
  C165     1.0000 0.14040  0.98750  0.77570  Biso   1.000  C
  H132     1.0000 0.14380  0.02230  0.80980  Biso   1.000  H
  C166     1.0000 0.02010  0.92450  0.62500  Biso   1.000  C
  C167     1.0000 0.99600  0.86650  0.60150  Biso   1.000  C
  H133     1.0000 0.01840  0.82880  0.61730  Biso   1.000  H
  C168     1.0000 0.93990  0.86190  0.55560  Biso   1.000  C
  H134     1.0000 0.92440  0.82070  0.54160  Biso   1.000  H
  C169     1.0000 0.93010  0.96870  0.55040  Biso   1.000  C
  H135     1.0000 0.90740  0.00550  0.53210  Biso   1.000  H
  C170     1.0000 0.98710  0.97740  0.59780  Biso   1.000  C
  H136     1.0000 0.00220  0.01900  0.61060  Biso   1.000  H
  C171     1.0000 0.64360  0.96110  0.75980  Biso   1.000  C
  H137     1.0000 0.67860  0.97700  0.79170  Biso   1.000  H
  C172     1.0000 0.58390  0.96240  0.78480  Biso   1.000  C
  H138     1.0000 0.57900  0.97690  0.83400  Biso   1.000  H
  C173     1.0000 0.53200  0.94250  0.73760  Biso   1.000  C
  C174     1.0000 0.54190  0.92090  0.66700  Biso   1.000  C
  H139     1.0000 0.50740  0.90790  0.63220  Biso   1.000  H
  C175     1.0000 0.60300  0.91840  0.64790  Biso   1.000  C
  H140     1.0000 0.60950  0.90170  0.60010  Biso   1.000  H
  N31      1.0000 0.81860  0.85280  0.37970  Biso   1.000  N
  N32      1.0000 0.75530  0.66170  0.05630  Biso   1.000  N
  N33      1.0000 0.18900  0.94600  0.77830  Biso   1.000  N
  N34      1.0000 0.90680  0.91220  0.53000  Biso   1.000  N
  N35      1.0000 0.65310  0.93820  0.69270  Biso   1.000  N
  W8       1.0000 0.21508  0.48019  0.49674  Biso   1.000  W
  Cu22     1.0000 0.31869  0.41022  0.47362  Biso   1.000  Cu
  Cu23     1.0000 0.23681  0.45260  0.64348  Biso   1.000  Cu
  Cu24     1.0000 0.28545  0.58834  0.51649  Biso   1.000  Cu
  S22      1.0000 0.24013  0.38265  0.54570  Biso   1.000  S
  S23      1.0000 0.21353  0.55122  0.59107  Biso   1.000  S
  S24      1.0000 0.29084  0.51018  0.42639  Biso   1.000  S
  Br8      1.0000 0.38303  0.63602  0.57607  Biso   1.000  Br
  C176     1.0000 0.32990  0.28980  0.38150  Biso   1.000  C
  H141     1.0000 0.34410  0.27050  0.42820  Biso   1.000  H
  C177     1.0000 0.32160  0.25240  0.31850  Biso   1.000  C
  H142     1.0000 0.32940  0.20790  0.32230  Biso   1.000  H
  C178     1.0000 0.30190  0.27910  0.24960  Biso   1.000  C
  C179     1.0000 0.29150  0.34330  0.24760  Biso   1.000  C
  H143     1.0000 0.27870  0.36370  0.20110  Biso   1.000  H
  C180     1.0000 0.29980  0.37860  0.31320  Biso   1.000  C
  H144     1.0000 0.29170  0.42320  0.31060  Biso   1.000  H
  C181     1.0000 0.28860  0.24040  0.18080  Biso   1.000  C
  C182     1.0000 0.32520  0.18860  0.16520  Biso   1.000  C
  H145     1.0000 0.36270  0.17860  0.19680  Biso   1.000  H
  C183     1.0000 0.30620  0.15150  0.10280  Biso   1.000  C
  H146     1.0000 0.33190  0.11620  0.09310  Biso   1.000  H
  C184     1.0000 0.22130  0.21330  0.07070  Biso   1.000  C
  H147     1.0000 0.18460  0.22260  0.03740  Biso   1.000  H
  C185     1.0000 0.23590  0.25320  0.12990  Biso   1.000  C
  H148     1.0000 0.21040  0.28950  0.13650  Biso   1.000  H
  C186     1.0000 0.68020  0.39670  0.72910  Biso   1.000  C
  H149     1.0000 0.71310  0.36630  0.72870  Biso   1.000  H
  C187     1.0000 0.62680  0.38820  0.67970  Biso   1.000  C
  H150     1.0000 0.62330  0.35260  0.64690  Biso   1.000  H
  C188     1.0000 0.57800  0.43210  0.67820  Biso   1.000  C
  C189     1.0000 0.58670  0.48240  0.72720  Biso   1.000  C
  H151     1.0000 0.55490  0.51410  0.72730  Biso   1.000  H
  C190     1.0000 0.64040  0.48750  0.77570  Biso   1.000  C
  H152     1.0000 0.64380  0.52230  0.80980  Biso   1.000  H
  C191     1.0000 0.52010  0.42450  0.62500  Biso   1.000  C
  C192     1.0000 0.49600  0.36650  0.60150  Biso   1.000  C
  H153     1.0000 0.51840  0.32880  0.61730  Biso   1.000  H
  C193     1.0000 0.43990  0.36190  0.55560  Biso   1.000  C
  H154     1.0000 0.42440  0.32070  0.54160  Biso   1.000  H
  C194     1.0000 0.43010  0.46870  0.55040  Biso   1.000  C
  H155     1.0000 0.40740  0.50550  0.53210  Biso   1.000  H
  C195     1.0000 0.48710  0.47740  0.59780  Biso   1.000  C
  H156     1.0000 0.50220  0.51900  0.61060  Biso   1.000  H
  C196     1.0000 0.14360  0.46110  0.75980  Biso   1.000  C
  H157     1.0000 0.17860  0.47700  0.79170  Biso   1.000  H
  C197     1.0000 0.08390  0.46240  0.78480  Biso   1.000  C
  H158     1.0000 0.07900  0.47690  0.83400  Biso   1.000  H
  C198     1.0000 0.03200  0.44250  0.73760  Biso   1.000  C
  C199     1.0000 0.04190  0.42090  0.66700  Biso   1.000  C
  H159     1.0000 0.00740  0.40790  0.63220  Biso   1.000  H
  C200     1.0000 0.10300  0.41840  0.64790  Biso   1.000  C
  H160     1.0000 0.10950  0.40170  0.60010  Biso   1.000  H
  N36      1.0000 0.31860  0.35280  0.37970  Biso   1.000  N
  N37      1.0000 0.25530  0.16170  0.05630  Biso   1.000  N
  N38      1.0000 0.68900  0.44600  0.77830  Biso   1.000  N
  N39      1.0000 0.40680  0.41220  0.53000  Biso   1.000  N
  N40      1.0000 0.15310  0.43820  0.69270  Biso   1.000  N
