data_IBITUK_clean
_audit_creation_date              2014-07-02
_audit_creation_method            'Materials Studio'
_symmetry_space_group_name_H-M    'P1'
_symmetry_Int_Tables_number       1
_symmetry_cell_setting            triclinic
loop_
_symmetry_equiv_pos_as_xyz
  x,y,z
_cell_length_a                    12.1080
_cell_length_b                    13.1150
_cell_length_c                    14.5300
_cell_angle_alpha                 73.3800
_cell_angle_beta                  68.4800
_cell_angle_gamma                 79.9500
loop_
_atom_site_label
_atom_site_type_symbol
_atom_site_fract_x
_atom_site_fract_y
_atom_site_fract_z
_atom_site_U_iso_or_equiv
_atom_site_adp_type
_atom_site_occupancy
Cu1    Cu    0.21127   0.27021   0.28957   0.01267  Uiso   1.00
Cu2    Cu    0.78873   0.72979   0.71043   0.01267  Uiso   1.00
Cu3    Cu    0.50000  -0.00000   0.00000   0.01267  Uiso   1.00
H1     H     0.48660   0.07370   0.83380   0.01267  Uiso   1.00
H2     H     0.66670   0.09990   0.06950   0.01267  Uiso   1.00
H3     H     0.89280   0.39340   0.26240   0.01267  Uiso   1.00
H4     H     0.39250   0.11370   0.60210   0.01267  Uiso   1.00
H5     H     0.13900   0.37860   0.92460   0.01267  Uiso   1.00
H6     H     0.95030   0.26070   0.29700   0.01267  Uiso   1.00
H7     H     0.16540   0.02170   0.37350   0.01267  Uiso   1.00
H8     H     0.25180   0.51180   0.24640   0.01267  Uiso   1.00
H9     H     0.49280   0.27480   0.22550   0.01267  Uiso   1.00
H10    H     0.80820   0.01990   0.33950   0.01267  Uiso   1.00
H11    H     0.75190   0.10660   0.40270   0.01267  Uiso   1.00
H12    H     0.95530   0.14780   0.96120   0.01267  Uiso   1.00
H13    H     0.90680   0.26110   0.91180   0.01267  Uiso   1.00
H14    H     0.66130   0.49620   0.11400   0.01267  Uiso   1.00
H15    H     0.64420   0.47040   0.23060   0.01267  Uiso   1.00
H16    H     0.68970   0.34290   0.95820   0.01267  Uiso   1.00
H17    H     0.66850   0.44170   0.00480   0.01267  Uiso   1.00
H18    H     0.79550   0.41190   0.93260   0.01267  Uiso   1.00
H19    H     0.72220   0.07720   0.79610   0.01267  Uiso   1.00
H20    H     0.65390   0.36890   0.35170   0.01267  Uiso   1.00
H21    H     0.58700   0.26440   0.39200   0.01267  Uiso   1.00
H22    H     0.71180   0.26160   0.40260   0.01267  Uiso   1.00
H23    H     0.91640   0.99850   0.20840   0.01267  Uiso   1.00
H24    H     0.90000   0.00850   0.10390   0.01267  Uiso   1.00
H25    H     0.00570   0.06030   0.10670   0.01267  Uiso   1.00
H26    H     0.51340   0.92630   0.16620   0.01267  Uiso   1.00
H27    H     0.33330   0.90010   0.93050   0.01267  Uiso   1.00
H28    H     0.10720   0.60660   0.73760   0.01267  Uiso   1.00
H29    H     0.60750   0.88630   0.39790   0.01267  Uiso   1.00
H30    H     0.86100   0.62140   0.07540   0.01267  Uiso   1.00
H31    H     0.04970   0.73930   0.70300   0.01267  Uiso   1.00
H32    H     0.83460   0.97830   0.62650   0.01267  Uiso   1.00
H33    H     0.74820   0.48820   0.75360   0.01267  Uiso   1.00
H34    H     0.50720   0.72520   0.77450   0.01267  Uiso   1.00
H35    H     0.19180   0.98010   0.66050   0.01267  Uiso   1.00
H36    H     0.24810   0.89340   0.59730   0.01267  Uiso   1.00
H37    H     0.04470   0.85220   0.03880   0.01267  Uiso   1.00
H38    H     0.09320   0.73890   0.08820   0.01267  Uiso   1.00
H39    H     0.33870   0.50380   0.88600   0.01267  Uiso   1.00
H40    H     0.35580   0.52960   0.76940   0.01267  Uiso   1.00
H41    H     0.31030   0.65710   0.04180   0.01267  Uiso   1.00
H42    H     0.33150   0.55830   0.99520   0.01267  Uiso   1.00
H43    H     0.20450   0.58810   0.06740   0.01267  Uiso   1.00
H44    H     0.27780   0.92280   0.20390   0.01267  Uiso   1.00
H45    H     0.34610   0.63110   0.64830   0.01267  Uiso   1.00
H46    H     0.41300   0.73560   0.60800   0.01267  Uiso   1.00
H47    H     0.28820   0.73840   0.59740   0.01267  Uiso   1.00
H48    H     0.08360   0.00150   0.79160   0.01267  Uiso   1.00
H49    H     0.10000   0.99150   0.89610   0.01267  Uiso   1.00
H50    H     0.99430   0.93970   0.89330   0.01267  Uiso   1.00
C1     C     0.69984   0.10413   0.99986   0.01267  Uiso   1.00
C2     C     0.48466   0.02436   0.29882   0.01267  Uiso   1.00
C3     C     0.98210   0.50169   0.10079   0.01267  Uiso   1.00
C4     C     0.42103   0.08227   0.46721   0.01267  Uiso   1.00
C5     C     0.48768   0.01346   0.40508   0.01267  Uiso   1.00
C6     C     0.43562   0.06758   0.56083   0.01267  Uiso   1.00
C7     C     0.08273   0.42775   0.95507   0.01267  Uiso   1.00
C8     C     0.06689   0.42744   0.05592   0.01267  Uiso   1.00
C9     C     0.95682   0.51158   0.20881   0.01267  Uiso   1.00
C10    C     0.98340   0.19231   0.31769   0.01267  Uiso   1.00
C11    C     0.09905   0.06088   0.35961   0.01267  Uiso   1.00
C12    C     0.32526   0.47261   0.23592   0.01267  Uiso   1.00
C13    C     0.45468   0.34283   0.22503   0.01267  Uiso   1.00
C14    C     0.14261   0.35020   0.11132   0.01267  Uiso   1.00
C15    C     0.33315   0.16869   0.43702   0.01267  Uiso   1.00
C16    C     0.81301   0.09229   0.34138   0.01267  Uiso   1.00
C17    C     0.82798   0.21899   0.06670   0.01267  Uiso   1.00
C18    C     0.70681   0.33904   0.17108   0.01267  Uiso   1.00
C19    C     0.75479   0.31269   0.07607   0.01267  Uiso   1.00
C20    C     0.79237   0.17052   0.24772   0.01267  Uiso   1.00
C21    C     0.84597   0.14669   0.15256   0.01267  Uiso   1.00
C22    C     0.88387   0.19533   0.96307   0.01267  Uiso   1.00
C23    C     0.72296   0.26755   0.25852   0.01267  Uiso   1.00
C24    C     0.63394   0.44406   0.17847   0.01267  Uiso   1.00
C25    C     0.72433   0.38386   0.98449   0.01267  Uiso   1.00
C26    C     0.73230   0.09283   0.85095   0.01267  Uiso   1.00
C27    C     0.66361   0.29287   0.36028   0.01267  Uiso   1.00
C28    C     0.92418   0.04407   0.14192   0.01267  Uiso   1.00
C29    C     0.30016   0.89587   0.00014   0.01267  Uiso   1.00
C30    C     0.51534   0.97564   0.70118   0.01267  Uiso   1.00
C31    C     0.01790   0.49831   0.89921   0.01267  Uiso   1.00
C32    C     0.57897   0.91773   0.53279   0.01267  Uiso   1.00
C33    C     0.51232   0.98654   0.59492   0.01267  Uiso   1.00
C34    C     0.56438   0.93242   0.43917   0.01267  Uiso   1.00
C35    C     0.91727   0.57225   0.04493   0.01267  Uiso   1.00
C36    C     0.93311   0.57256   0.94408   0.01267  Uiso   1.00
C37    C     0.04318   0.48842   0.79119   0.01267  Uiso   1.00
C38    C     0.01660   0.80769   0.68231   0.01267  Uiso   1.00
C39    C     0.90095   0.93912   0.64039   0.01267  Uiso   1.00
C40    C     0.67474   0.52739   0.76408   0.01267  Uiso   1.00
C41    C     0.54532   0.65717   0.77497   0.01267  Uiso   1.00
C42    C     0.85739   0.64980   0.88868   0.01267  Uiso   1.00
C43    C     0.66685   0.83131   0.56298   0.01267  Uiso   1.00
C44    C     0.18699   0.90771   0.65862   0.01267  Uiso   1.00
C45    C     0.17202   0.78101   0.93330   0.01267  Uiso   1.00
C46    C     0.29319   0.66096   0.82892   0.01267  Uiso   1.00
C47    C     0.24521   0.68731   0.92393   0.01267  Uiso   1.00
C48    C     0.20763   0.82948   0.75228   0.01267  Uiso   1.00
C49    C     0.15403   0.85331   0.84744   0.01267  Uiso   1.00
C50    C     0.11613   0.80467   0.03693   0.01267  Uiso   1.00
C51    C     0.27704   0.73245   0.74148   0.01267  Uiso   1.00
C52    C     0.36606   0.55594   0.82153   0.01267  Uiso   1.00
C53    C     0.27567   0.61614   0.01551   0.01267  Uiso   1.00
C54    C     0.26770   0.90717   0.14905   0.01267  Uiso   1.00
C55    C     0.33639   0.70713   0.63972   0.01267  Uiso   1.00
C56    C     0.07582   0.95593   0.85808   0.01267  Uiso   1.00
N1     N     0.33865   0.36642   0.24547   0.01267  Uiso   1.00
N2     N     0.09075   0.16888   0.32640   0.01267  Uiso   1.00
N3     N     0.65277   0.06965   0.94706   0.01267  Uiso   1.00
N4     N     0.93098   0.10338   0.34303   0.01267  Uiso   1.00
N5     N     0.80133   0.14576   0.93929   0.01267  Uiso   1.00
N6     N     0.50806   0.43033   0.20388   0.01267  Uiso   1.00
N7     N     0.42556   0.51545   0.21043   0.01267  Uiso   1.00
N8     N     0.00509   0.01779   0.37004   0.01267  Uiso   1.00
N9     N     0.82416   0.13895   0.84208   0.01267  Uiso   1.00
N10    N     0.66135   0.63358   0.75453   0.01267  Uiso   1.00
N11    N     0.90925   0.83112   0.67360   0.01267  Uiso   1.00
N12    N     0.34723   0.93035   0.05294   0.01267  Uiso   1.00
N13    N     0.06902   0.89662   0.65697   0.01267  Uiso   1.00
N14    N     0.19867   0.85424   0.06071   0.01267  Uiso   1.00
N15    N     0.49194   0.56967   0.79612   0.01267  Uiso   1.00
N16    N     0.57444   0.48455   0.78957   0.01267  Uiso   1.00
N17    N     0.99491   0.98221   0.62996   0.01267  Uiso   1.00
N18    N     0.17584   0.86105   0.15792   0.01267  Uiso   1.00
O1     O     0.14170   0.36806   0.19215   0.01267  Uiso   1.00
O2     O     0.45206   0.09549   0.88558   0.01267  Uiso   1.00
O3     O     0.29660   0.15865   0.36830   0.01267  Uiso   1.00
O4     O     0.52998   0.10049   0.22951   0.01267  Uiso   1.00
O5     O     0.89478   0.44600   0.28146   0.01267  Uiso   1.00
O6     O     0.29986   0.24242   0.48062   0.01267  Uiso   1.00
O7     O     0.43968   0.95042   0.28936   0.01267  Uiso   1.00
O8     O     0.99467   0.59089   0.21634   0.01267  Uiso   1.00
O9     O     0.20029   0.27310   0.07636   0.01267  Uiso   1.00
O10    O     0.85830   0.63194   0.80785   0.01267  Uiso   1.00
O11    O     0.54794   0.90451   0.11442   0.01267  Uiso   1.00
O12    O     0.70340   0.84135   0.63170   0.01267  Uiso   1.00
O13    O     0.47002   0.89951   0.77049   0.01267  Uiso   1.00
O14    O     0.10522   0.55400   0.71854   0.01267  Uiso   1.00
O15    O     0.70014   0.75758   0.51938   0.01267  Uiso   1.00
O16    O     0.56032   0.04958   0.71064   0.01267  Uiso   1.00
O17    O     0.00533   0.40911   0.78366   0.01267  Uiso   1.00
O18    O     0.79971   0.72690   0.92364   0.01267  Uiso   1.00
