data_image0
_cell_length_a       13.2242
_cell_length_b       38.366
_cell_length_c       13.2515
_cell_angle_alpha    90
_cell_angle_beta     99.752
_cell_angle_gamma    90

_symmetry_space_group_name_H-M    "P 1"
_symmetry_int_tables_number       1

loop_
  _symmetry_equiv_pos_as_xyz
  'x, y, z'

loop_
  _atom_site_label
  _atom_site_occupancy
  _atom_site_fract_x
  _atom_site_fract_y
  _atom_site_fract_z
  _atom_site_thermal_displace_type
  _atom_site_B_iso_or_equiv
  _atom_site_type_symbol
  La1      1.0000 0.24087  0.37495  0.72859  Biso   1.000  La
  O1       1.0000 0.31490  0.43533  0.76770  Biso   1.000  O
  O2       1.0000 0.22820  0.31230  0.68190  Biso   1.000  O
  O3       1.0000 0.80940  0.59557  0.44090  Biso   1.000  O
  O4       1.0000 0.55780  0.13942  0.15650  Biso   1.000  O
  O5       1.0000 0.37920  0.36782  0.62290  Biso   1.000  O
  O6       1.0000 0.40460  0.36464  0.84020  Biso   1.000  O
  O7       1.0000 0.21930  0.34339  0.88630  Biso   1.000  O
  O8       1.0000 0.11880  0.41062  0.81080  Biso   1.000  O
  N1       1.0000 0.26300  0.46377  0.73100  Biso   1.000  N
  N2       1.0000 0.27410  0.28729  0.74390  Biso   1.000  N
  N3       1.0000 0.89240  0.57953  0.48880  Biso   1.000  N
  N4       1.0000 0.51400  0.16290  0.08880  Biso   1.000  N
  N5       1.0000 0.36450  0.36470  0.52170  Biso   1.000  N
  N6       1.0000 0.50320  0.37098  0.83750  Biso   1.000  N
  N7       1.0000 0.24650  0.34782  0.98710  Biso   1.000  N
  N8       1.0000 0.02200  0.40401  0.82330  Biso   1.000  N
  C1       1.0000 0.20070  0.47970  0.78480  Biso   1.000  C
  H1       1.0000 0.19970  0.47260  0.85330  Biso   1.000  H
  C2       1.0000 0.13800  0.50622  0.74340  Biso   1.000  C
  H2       1.0000 0.09450  0.51730  0.78380  Biso   1.000  H
  C3       1.0000 0.13670  0.51704  0.64400  Biso   1.000  C
  C4       1.0000 0.20840  0.50184  0.59250  Biso   1.000  C
  H3       1.0000 0.21360  0.50970  0.52560  Biso   1.000  H
  C5       1.0000 0.27250  0.47539  0.63660  Biso   1.000  C
  H4       1.0000 0.32240  0.46560  0.60120  Biso   1.000  H
  C6       1.0000 0.21640  0.26774  0.79640  Biso   1.000  C
  H5       1.0000 0.14440  0.27140  0.78750  Biso   1.000  H
  C7       1.0000 0.26120  0.24236  0.86280  Biso   1.000  C
  H6       1.0000 0.22050  0.22890  0.90090  Biso   1.000  H
  C8       1.0000 0.36720  0.23653  0.87380  Biso   1.000  C
  C9       1.0000 0.42230  0.25686  0.81760  Biso   1.000  C
  H7       1.0000 0.49410  0.25330  0.82320  Biso   1.000  H
  C10      1.0000 0.37570  0.28229  0.75340  Biso   1.000  C
  H8       1.0000 0.41520  0.29630  0.71570  Biso   1.000  H
  C11      1.0000 0.95780  0.56407  0.43570  Biso   1.000  C
  H9       1.0000 0.94740  0.56640  0.36330  Biso   1.000  H
  C12      1.0000 0.03900  0.54507  0.48430  Biso   1.000  C
  H10      1.0000 0.08450  0.53460  0.44500  Biso   1.000  H
  C13      1.0000 0.05660  0.54075  0.58990  Biso   1.000  C
  C14      1.0000 0.99000  0.55859  0.64310  Biso   1.000  C
  H11      1.0000 0.00080  0.55770  0.71580  Biso   1.000  H
  C15      1.0000 0.90890  0.57736  0.59150  Biso   1.000  C
  H12      1.0000 0.86370  0.58900  0.62890  Biso   1.000  H
  C16      1.0000 0.55290  0.16918  0.00370  Biso   1.000  C
  H13      1.0000 0.61290  0.15720  0.99240  Biso   1.000  H
  C17      1.0000 0.50690  0.19265  0.93280  Biso   1.000  C
  H14      1.0000 0.53500  0.19680  0.87250  Biso   1.000  H
  C18      1.0000 0.41950  0.21042  0.94840  Biso   1.000  C
  C19      1.0000 0.38090  0.20290  0.03770  Biso   1.000  C
  H15      1.0000 0.32010  0.21400  0.05030  Biso   1.000  H
  C20      1.0000 0.43040  0.17956  0.10710  Biso   1.000  C
  H16      1.0000 0.40500  0.17520  0.16880  Biso   1.000  H
  C21      1.0000 0.32990  0.33443  0.47890  Biso   1.000  C
  H17      1.0000 0.31890  0.31520  0.52100  Biso   1.000  H
  C22      1.0000 0.31000  0.33095  0.37330  Biso   1.000  C
  H18      1.0000 0.28570  0.30930  0.34370  Biso   1.000  H
  C23      1.0000 0.32510  0.35858  0.31040  Biso   1.000  C
  C24      1.0000 0.36330  0.38893  0.35810  Biso   1.000  C
  H19      1.0000 0.37670  0.40830  0.31790  Biso   1.000  H
  C25      1.0000 0.38220  0.39158  0.46340  Biso   1.000  C
  H20      1.0000 0.40810  0.41280  0.49460  Biso   1.000  H
  C26      1.0000 0.57390  0.34779  0.88030  Biso   1.000  C
  H21      1.0000 0.55290  0.32700  0.90990  Biso   1.000  H
  C27      1.0000 0.67720  0.35402  0.88120  Biso   1.000  C
  H22      1.0000 0.72660  0.33750  0.91170  Biso   1.000  H
  C28      1.0000 0.70910  0.38392  0.83850  Biso   1.000  C
  C29      1.0000 0.63320  0.40704  0.79390  Biso   1.000  C
  H23      1.0000 0.65220  0.42790  0.76320  Biso   1.000  H
  C30      1.0000 0.53180  0.40017  0.79360  Biso   1.000  C
  H24      1.0000 0.48110  0.41610  0.76220  Biso   1.000  H
  C31      1.0000 0.29600  0.37703  0.02740  Biso   1.000  C
  H25      1.0000 0.31240  0.39490  0.98310  Biso   1.000  H
  C32      1.0000 0.32240  0.38092  0.13100  Biso   1.000  C
  H26      1.0000 0.35680  0.40150  0.15810  Biso   1.000  H
  C33      1.0000 0.29950  0.35513  0.19730  Biso   1.000  C
  C34      1.0000 0.24880  0.32575  0.15260  Biso   1.000  C
  H27      1.0000 0.23170  0.30750  0.19500  Biso   1.000  H
  C35      1.0000 0.22320  0.32276  0.04860  Biso   1.000  C
  H28      1.0000 0.18820  0.30250  0.01980  Biso   1.000  H
  C36      1.0000 0.99530  0.37266  0.85410  Biso   1.000  C
  H29      1.0000 0.04590  0.35510  0.87170  Biso   1.000  H
  C37      1.0000 0.89250  0.36575  0.86030  Biso   1.000  C
  H30      1.0000 0.87360  0.34330  0.88120  Biso   1.000  H
  C38      1.0000 0.81840  0.39117  0.83630  Biso   1.000  C
  C39      1.0000 0.85240  0.42343  0.80910  Biso   1.000  C
  H31      1.0000 0.80440  0.44200  0.79500  Biso   1.000  H
  C40      1.0000 0.95260  0.42943  0.80200  Biso   1.000  C
  H32      1.0000 0.97320  0.45180  0.78190  Biso   1.000  H
  La2      1.0000 0.25913  0.87495  0.77141  Biso   1.000  La
  O9       1.0000 0.18510  0.93533  0.73230  Biso   1.000  O
  O10      1.0000 0.27180  0.81230  0.81810  Biso   1.000  O
  O11      1.0000 0.69060  0.09557  0.05910  Biso   1.000  O
  O12      1.0000 0.94220  0.63942  0.34350  Biso   1.000  O
  O13      1.0000 0.12080  0.86782  0.87710  Biso   1.000  O
  O14      1.0000 0.09540  0.86464  0.65980  Biso   1.000  O
  O15      1.0000 0.28070  0.84339  0.61370  Biso   1.000  O
  O16      1.0000 0.38120  0.91062  0.68920  Biso   1.000  O
  N9       1.0000 0.23700  0.96377  0.76900  Biso   1.000  N
  N10      1.0000 0.22590  0.78729  0.75610  Biso   1.000  N
  N11      1.0000 0.60760  0.07953  0.01120  Biso   1.000  N
  N12      1.0000 0.98600  0.66290  0.41120  Biso   1.000  N
  N13      1.0000 0.13550  0.86470  0.97830  Biso   1.000  N
  N14      1.0000 0.99680  0.87098  0.66250  Biso   1.000  N
  N15      1.0000 0.25350  0.84782  0.51290  Biso   1.000  N
  N16      1.0000 0.47800  0.90401  0.67670  Biso   1.000  N
  C41      1.0000 0.29930  0.97970  0.71520  Biso   1.000  C
  H33      1.0000 0.30030  0.97260  0.64670  Biso   1.000  H
  C42      1.0000 0.36200  0.00622  0.75660  Biso   1.000  C
  H34      1.0000 0.40550  0.01730  0.71620  Biso   1.000  H
  C43      1.0000 0.36330  0.01704  0.85600  Biso   1.000  C
  C44      1.0000 0.29160  0.00184  0.90750  Biso   1.000  C
  H35      1.0000 0.28640  0.00970  0.97440  Biso   1.000  H
  C45      1.0000 0.22750  0.97539  0.86340  Biso   1.000  C
  H36      1.0000 0.17760  0.96560  0.89880  Biso   1.000  H
  C46      1.0000 0.28360  0.76774  0.70360  Biso   1.000  C
  H37      1.0000 0.35560  0.77140  0.71250  Biso   1.000  H
  C47      1.0000 0.23880  0.74236  0.63720  Biso   1.000  C
  H38      1.0000 0.27950  0.72890  0.59910  Biso   1.000  H
  C48      1.0000 0.13280  0.73653  0.62620  Biso   1.000  C
  C49      1.0000 0.07770  0.75686  0.68240  Biso   1.000  C
  H39      1.0000 0.00590  0.75330  0.67680  Biso   1.000  H
  C50      1.0000 0.12430  0.78229  0.74660  Biso   1.000  C
  H40      1.0000 0.08480  0.79630  0.78430  Biso   1.000  H
  C51      1.0000 0.54220  0.06407  0.06430  Biso   1.000  C
  H41      1.0000 0.55260  0.06640  0.13670  Biso   1.000  H
  C52      1.0000 0.46100  0.04507  0.01570  Biso   1.000  C
  H42      1.0000 0.41550  0.03460  0.05500  Biso   1.000  H
  C53      1.0000 0.44340  0.04075  0.91010  Biso   1.000  C
  C54      1.0000 0.51000  0.05859  0.85690  Biso   1.000  C
  H43      1.0000 0.49920  0.05770  0.78420  Biso   1.000  H
  C55      1.0000 0.59110  0.07736  0.90850  Biso   1.000  C
  H44      1.0000 0.63630  0.08900  0.87110  Biso   1.000  H
  C56      1.0000 0.94710  0.66918  0.49630  Biso   1.000  C
  H45      1.0000 0.88710  0.65720  0.50760  Biso   1.000  H
  C57      1.0000 0.99310  0.69265  0.56720  Biso   1.000  C
  H46      1.0000 0.96500  0.69680  0.62750  Biso   1.000  H
  C58      1.0000 0.08050  0.71042  0.55160  Biso   1.000  C
  C59      1.0000 0.11910  0.70290  0.46230  Biso   1.000  C
  H47      1.0000 0.17990  0.71400  0.44970  Biso   1.000  H
  C60      1.0000 0.06960  0.67956  0.39290  Biso   1.000  C
  H48      1.0000 0.09500  0.67520  0.33120  Biso   1.000  H
  C61      1.0000 0.17010  0.83443  0.02110  Biso   1.000  C
  H49      1.0000 0.18110  0.81520  0.97900  Biso   1.000  H
  C62      1.0000 0.19000  0.83095  0.12670  Biso   1.000  C
  H50      1.0000 0.21430  0.80930  0.15630  Biso   1.000  H
  C63      1.0000 0.17490  0.85858  0.18960  Biso   1.000  C
  C64      1.0000 0.13670  0.88893  0.14190  Biso   1.000  C
  H51      1.0000 0.12330  0.90830  0.18210  Biso   1.000  H
  C65      1.0000 0.11780  0.89158  0.03660  Biso   1.000  C
  H52      1.0000 0.09190  0.91280  0.00540  Biso   1.000  H
  C66      1.0000 0.92610  0.84779  0.61970  Biso   1.000  C
  H53      1.0000 0.94710  0.82700  0.59010  Biso   1.000  H
  C67      1.0000 0.82280  0.85402  0.61880  Biso   1.000  C
  H54      1.0000 0.77340  0.83750  0.58830  Biso   1.000  H
  C68      1.0000 0.79090  0.88392  0.66150  Biso   1.000  C
  C69      1.0000 0.86680  0.90704  0.70610  Biso   1.000  C
  H55      1.0000 0.84780  0.92790  0.73680  Biso   1.000  H
  C70      1.0000 0.96820  0.90017  0.70640  Biso   1.000  C
  H56      1.0000 0.01890  0.91610  0.73780  Biso   1.000  H
  C71      1.0000 0.20400  0.87703  0.47260  Biso   1.000  C
  H57      1.0000 0.18760  0.89490  0.51690  Biso   1.000  H
  C72      1.0000 0.17760  0.88092  0.36900  Biso   1.000  C
  H58      1.0000 0.14320  0.90150  0.34190  Biso   1.000  H
  C73      1.0000 0.20050  0.85513  0.30270  Biso   1.000  C
  C74      1.0000 0.25120  0.82575  0.34740  Biso   1.000  C
  H59      1.0000 0.26830  0.80750  0.30500  Biso   1.000  H
  C75      1.0000 0.27680  0.82276  0.45140  Biso   1.000  C
  H60      1.0000 0.31180  0.80250  0.48020  Biso   1.000  H
  C76      1.0000 0.50470  0.87266  0.64590  Biso   1.000  C
  H61      1.0000 0.45410  0.85510  0.62830  Biso   1.000  H
  C77      1.0000 0.60750  0.86575  0.63970  Biso   1.000  C
  H62      1.0000 0.62640  0.84330  0.61880  Biso   1.000  H
  C78      1.0000 0.68160  0.89117  0.66370  Biso   1.000  C
  C79      1.0000 0.64760  0.92343  0.69090  Biso   1.000  C
  H63      1.0000 0.69560  0.94200  0.70500  Biso   1.000  H
  C80      1.0000 0.54740  0.92943  0.69800  Biso   1.000  C
  H64      1.0000 0.52680  0.95180  0.71810  Biso   1.000  H
  La3      1.0000 0.75913  0.62505  0.27141  Biso   1.000  La
  O17      1.0000 0.68510  0.56467  0.23230  Biso   1.000  O
  O18      1.0000 0.77180  0.68770  0.31810  Biso   1.000  O
  O19      1.0000 0.19060  0.40443  0.55910  Biso   1.000  O
  O20      1.0000 0.44220  0.86058  0.84350  Biso   1.000  O
  O21      1.0000 0.62080  0.63218  0.37710  Biso   1.000  O
  O22      1.0000 0.59540  0.63536  0.15980  Biso   1.000  O
  O23      1.0000 0.78070  0.65661  0.11370  Biso   1.000  O
  O24      1.0000 0.88120  0.58938  0.18920  Biso   1.000  O
  N17      1.0000 0.73700  0.53623  0.26900  Biso   1.000  N
  N18      1.0000 0.72590  0.71271  0.25610  Biso   1.000  N
  N19      1.0000 0.10760  0.42047  0.51120  Biso   1.000  N
  N20      1.0000 0.48600  0.83710  0.91120  Biso   1.000  N
  N21      1.0000 0.63550  0.63530  0.47830  Biso   1.000  N
  N22      1.0000 0.49680  0.62902  0.16250  Biso   1.000  N
  N23      1.0000 0.75350  0.65218  0.01290  Biso   1.000  N
  N24      1.0000 0.97800  0.59599  0.17670  Biso   1.000  N
  C81      1.0000 0.79930  0.52030  0.21520  Biso   1.000  C
  H65      1.0000 0.80030  0.52740  0.14670  Biso   1.000  H
  C82      1.0000 0.86200  0.49378  0.25660  Biso   1.000  C
  H66      1.0000 0.90550  0.48270  0.21620  Biso   1.000  H
  C83      1.0000 0.86330  0.48296  0.35600  Biso   1.000  C
  C84      1.0000 0.79160  0.49816  0.40750  Biso   1.000  C
  H67      1.0000 0.78640  0.49030  0.47440  Biso   1.000  H
  C85      1.0000 0.72750  0.52461  0.36340  Biso   1.000  C
  H68      1.0000 0.67760  0.53440  0.39880  Biso   1.000  H
  C86      1.0000 0.78360  0.73226  0.20360  Biso   1.000  C
  H69      1.0000 0.85560  0.72860  0.21250  Biso   1.000  H
  C87      1.0000 0.73880  0.75764  0.13720  Biso   1.000  C
  H70      1.0000 0.77950  0.77110  0.09910  Biso   1.000  H
  C88      1.0000 0.63280  0.76347  0.12620  Biso   1.000  C
  C89      1.0000 0.57770  0.74314  0.18240  Biso   1.000  C
  H71      1.0000 0.50590  0.74670  0.17680  Biso   1.000  H
  C90      1.0000 0.62430  0.71771  0.24660  Biso   1.000  C
  H72      1.0000 0.58480  0.70370  0.28430  Biso   1.000  H
  C91      1.0000 0.04220  0.43593  0.56430  Biso   1.000  C
  H73      1.0000 0.05260  0.43360  0.63670  Biso   1.000  H
  C92      1.0000 0.96100  0.45493  0.51570  Biso   1.000  C
  H74      1.0000 0.91550  0.46540  0.55500  Biso   1.000  H
  C93      1.0000 0.94340  0.45925  0.41010  Biso   1.000  C
  C94      1.0000 0.01000  0.44141  0.35690  Biso   1.000  C
  H75      1.0000 0.99920  0.44230  0.28420  Biso   1.000  H
  C95      1.0000 0.09110  0.42264  0.40850  Biso   1.000  C
  H76      1.0000 0.13630  0.41100  0.37110  Biso   1.000  H
  C96      1.0000 0.44710  0.83082  0.99630  Biso   1.000  C
  H77      1.0000 0.38710  0.84280  0.00760  Biso   1.000  H
  C97      1.0000 0.49310  0.80735  0.06720  Biso   1.000  C
  H78      1.0000 0.46500  0.80320  0.12750  Biso   1.000  H
  C98      1.0000 0.58050  0.78958  0.05160  Biso   1.000  C
  C99      1.0000 0.61910  0.79710  0.96230  Biso   1.000  C
  H79      1.0000 0.67990  0.78600  0.94970  Biso   1.000  H
  C100     1.0000 0.56960  0.82044  0.89290  Biso   1.000  C
  H80      1.0000 0.59500  0.82480  0.83120  Biso   1.000  H
  C101     1.0000 0.67010  0.66557  0.52110  Biso   1.000  C
  H81      1.0000 0.68110  0.68480  0.47900  Biso   1.000  H
  C102     1.0000 0.69000  0.66905  0.62670  Biso   1.000  C
  H82      1.0000 0.71430  0.69070  0.65630  Biso   1.000  H
  C103     1.0000 0.67490  0.64142  0.68960  Biso   1.000  C
  C104     1.0000 0.63670  0.61107  0.64190  Biso   1.000  C
  H83      1.0000 0.62330  0.59170  0.68210  Biso   1.000  H
  C105     1.0000 0.61780  0.60842  0.53660  Biso   1.000  C
  H84      1.0000 0.59190  0.58720  0.50540  Biso   1.000  H
  C106     1.0000 0.42610  0.65221  0.11970  Biso   1.000  C
  H85      1.0000 0.44710  0.67300  0.09010  Biso   1.000  H
  C107     1.0000 0.32280  0.64598  0.11880  Biso   1.000  C
  H86      1.0000 0.27340  0.66250  0.08830  Biso   1.000  H
  C108     1.0000 0.29090  0.61608  0.16150  Biso   1.000  C
  C109     1.0000 0.36680  0.59296  0.20610  Biso   1.000  C
  H87      1.0000 0.34780  0.57210  0.23680  Biso   1.000  H
  C110     1.0000 0.46820  0.59983  0.20640  Biso   1.000  C
  H88      1.0000 0.51890  0.58390  0.23780  Biso   1.000  H
  C111     1.0000 0.70400  0.62297  0.97260  Biso   1.000  C
  H89      1.0000 0.68760  0.60510  0.01690  Biso   1.000  H
  C112     1.0000 0.67760  0.61908  0.86900  Biso   1.000  C
  H90      1.0000 0.64320  0.59850  0.84190  Biso   1.000  H
  C113     1.0000 0.70050  0.64487  0.80270  Biso   1.000  C
  C114     1.0000 0.75120  0.67425  0.84740  Biso   1.000  C
  H91      1.0000 0.76830  0.69250  0.80500  Biso   1.000  H
  C115     1.0000 0.77680  0.67724  0.95140  Biso   1.000  C
  H92      1.0000 0.81180  0.69750  0.98020  Biso   1.000  H
  C116     1.0000 0.00470  0.62734  0.14590  Biso   1.000  C
  H93      1.0000 0.95410  0.64490  0.12830  Biso   1.000  H
  C117     1.0000 0.10750  0.63425  0.13970  Biso   1.000  C
  H94      1.0000 0.12640  0.65670  0.11880  Biso   1.000  H
  C118     1.0000 0.18160  0.60883  0.16370  Biso   1.000  C
  C119     1.0000 0.14760  0.57657  0.19090  Biso   1.000  C
  H95      1.0000 0.19560  0.55800  0.20500  Biso   1.000  H
  C120     1.0000 0.04740  0.57057  0.19800  Biso   1.000  C
  H96      1.0000 0.02680  0.54820  0.21810  Biso   1.000  H
  La4      1.0000 0.74087  0.12505  0.22859  Biso   1.000  La
  O25      1.0000 0.81490  0.06467  0.26770  Biso   1.000  O
  O26      1.0000 0.72820  0.18770  0.18190  Biso   1.000  O
  O27      1.0000 0.30940  0.90443  0.94090  Biso   1.000  O
  O28      1.0000 0.05780  0.36058  0.65650  Biso   1.000  O
  O29      1.0000 0.87920  0.13218  0.12290  Biso   1.000  O
  O30      1.0000 0.90460  0.13536  0.34020  Biso   1.000  O
  O31      1.0000 0.71930  0.15661  0.38630  Biso   1.000  O
  O32      1.0000 0.61880  0.08938  0.31080  Biso   1.000  O
  N25      1.0000 0.76300  0.03623  0.23100  Biso   1.000  N
  N26      1.0000 0.77410  0.21271  0.24390  Biso   1.000  N
  N27      1.0000 0.39240  0.92047  0.98880  Biso   1.000  N
  N28      1.0000 0.01400  0.33710  0.58880  Biso   1.000  N
  N29      1.0000 0.86450  0.13530  0.02170  Biso   1.000  N
  N30      1.0000 0.00320  0.12902  0.33750  Biso   1.000  N
  N31      1.0000 0.74650  0.15218  0.48710  Biso   1.000  N
  N32      1.0000 0.52200  0.09599  0.32330  Biso   1.000  N
  C121     1.0000 0.70070  0.02030  0.28480  Biso   1.000  C
  H97      1.0000 0.69970  0.02740  0.35330  Biso   1.000  H
  C122     1.0000 0.63800  0.99378  0.24340  Biso   1.000  C
  H98      1.0000 0.59450  0.98270  0.28380  Biso   1.000  H
  C123     1.0000 0.63670  0.98296  0.14400  Biso   1.000  C
  C124     1.0000 0.70840  0.99816  0.09250  Biso   1.000  C
  H99      1.0000 0.71360  0.99030  0.02560  Biso   1.000  H
  C125     1.0000 0.77250  0.02461  0.13660  Biso   1.000  C
  H100     1.0000 0.82240  0.03440  0.10120  Biso   1.000  H
  C126     1.0000 0.71640  0.23226  0.29640  Biso   1.000  C
  H101     1.0000 0.64440  0.22860  0.28750  Biso   1.000  H
  C127     1.0000 0.76120  0.25764  0.36280  Biso   1.000  C
  H102     1.0000 0.72050  0.27110  0.40090  Biso   1.000  H
  C128     1.0000 0.86720  0.26347  0.37380  Biso   1.000  C
  C129     1.0000 0.92230  0.24314  0.31760  Biso   1.000  C
  H103     1.0000 0.99410  0.24670  0.32320  Biso   1.000  H
  C130     1.0000 0.87570  0.21771  0.25340  Biso   1.000  C
  H104     1.0000 0.91520  0.20370  0.21570  Biso   1.000  H
  C131     1.0000 0.45780  0.93593  0.93570  Biso   1.000  C
  H105     1.0000 0.44740  0.93360  0.86330  Biso   1.000  H
  C132     1.0000 0.53900  0.95493  0.98430  Biso   1.000  C
  H106     1.0000 0.58450  0.96540  0.94500  Biso   1.000  H
  C133     1.0000 0.55660  0.95925  0.08990  Biso   1.000  C
  C134     1.0000 0.49000  0.94141  0.14310  Biso   1.000  C
  H107     1.0000 0.50080  0.94230  0.21580  Biso   1.000  H
  C135     1.0000 0.40890  0.92264  0.09150  Biso   1.000  C
  H108     1.0000 0.36370  0.91100  0.12890  Biso   1.000  H
  C136     1.0000 0.05290  0.33082  0.50370  Biso   1.000  C
  H109     1.0000 0.11290  0.34280  0.49240  Biso   1.000  H
  C137     1.0000 0.00690  0.30735  0.43280  Biso   1.000  C
  H110     1.0000 0.03500  0.30320  0.37250  Biso   1.000  H
  C138     1.0000 0.91950  0.28958  0.44840  Biso   1.000  C
  C139     1.0000 0.88090  0.29710  0.53770  Biso   1.000  C
  H111     1.0000 0.82010  0.28600  0.55030  Biso   1.000  H
  C140     1.0000 0.93040  0.32044  0.60710  Biso   1.000  C
  H112     1.0000 0.90500  0.32480  0.66880  Biso   1.000  H
  C141     1.0000 0.82990  0.16557  0.97890  Biso   1.000  C
  H113     1.0000 0.81890  0.18480  0.02100  Biso   1.000  H
  C142     1.0000 0.81000  0.16905  0.87330  Biso   1.000  C
  H114     1.0000 0.78570  0.19070  0.84370  Biso   1.000  H
  C143     1.0000 0.82510  0.14142  0.81040  Biso   1.000  C
  C144     1.0000 0.86330  0.11107  0.85810  Biso   1.000  C
  H115     1.0000 0.87670  0.09170  0.81790  Biso   1.000  H
  C145     1.0000 0.88220  0.10842  0.96340  Biso   1.000  C
  H116     1.0000 0.90810  0.08720  0.99460  Biso   1.000  H
  C146     1.0000 0.07390  0.15221  0.38030  Biso   1.000  C
  H117     1.0000 0.05290  0.17300  0.40990  Biso   1.000  H
  C147     1.0000 0.17720  0.14598  0.38120  Biso   1.000  C
  H118     1.0000 0.22660  0.16250  0.41170  Biso   1.000  H
  C148     1.0000 0.20910  0.11608  0.33850  Biso   1.000  C
  C149     1.0000 0.13320  0.09296  0.29390  Biso   1.000  C
  H119     1.0000 0.15220  0.07210  0.26320  Biso   1.000  H
  C150     1.0000 0.03180  0.09983  0.29360  Biso   1.000  C
  H120     1.0000 0.98110  0.08390  0.26220  Biso   1.000  H
  C151     1.0000 0.79600  0.12297  0.52740  Biso   1.000  C
  H121     1.0000 0.81240  0.10510  0.48310  Biso   1.000  H
  C152     1.0000 0.82240  0.11908  0.63100  Biso   1.000  C
  H122     1.0000 0.85680  0.09850  0.65810  Biso   1.000  H
  C153     1.0000 0.79950  0.14487  0.69730  Biso   1.000  C
  C154     1.0000 0.74880  0.17425  0.65260  Biso   1.000  C
  H123     1.0000 0.73170  0.19250  0.69500  Biso   1.000  H
  C155     1.0000 0.72320  0.17724  0.54860  Biso   1.000  C
  H124     1.0000 0.68820  0.19750  0.51980  Biso   1.000  H
  C156     1.0000 0.49530  0.12734  0.35410  Biso   1.000  C
  H125     1.0000 0.54590  0.14490  0.37170  Biso   1.000  H
  C157     1.0000 0.39250  0.13425  0.36030  Biso   1.000  C
  H126     1.0000 0.37360  0.15670  0.38120  Biso   1.000  H
  C158     1.0000 0.31840  0.10883  0.33630  Biso   1.000  C
  C159     1.0000 0.35240  0.07657  0.30910  Biso   1.000  C
  H127     1.0000 0.30440  0.05800  0.29500  Biso   1.000  H
  C160     1.0000 0.45260  0.07057  0.30200  Biso   1.000  C
  H128     1.0000 0.47320  0.04820  0.28190  Biso   1.000  H
