data_image0
_cell_length_a       9.477
_cell_length_b       34.8
_cell_length_c       25.01
_cell_angle_alpha    90
_cell_angle_beta     90
_cell_angle_gamma    90

_symmetry_space_group_name_H-M    "P 1"
_symmetry_int_tables_number       1

loop_
  _symmetry_equiv_pos_as_xyz
  'x, y, z'

loop_
  _atom_site_label
  _atom_site_occupancy
  _atom_site_fract_x
  _atom_site_fract_y
  _atom_site_fract_z
  _atom_site_thermal_displace_type
  _atom_site_B_iso_or_equiv
  _atom_site_type_symbol
  N1       1.0000 0.15540  0.92291  0.00810  Biso   1.000  N
  N2       1.0000 0.33350  0.92487  0.94940  Biso   1.000  N
  C1       1.0000 0.26260  0.90390  0.98630  Biso   1.000  C
  H1       1.0000 0.28650  0.87880  0.99540  Biso   1.000  H
  N3       1.0000 0.15710  0.95849  0.98450  Biso   1.000  N
  C2       1.0000 0.26090  0.95790  0.95040  Biso   1.000  C
  H2       1.0000 0.28290  0.97870  0.92860  Biso   1.000  H
  N4       1.0000 0.65540  0.42291  0.50810  Biso   1.000  N
  N5       1.0000 0.83350  0.42487  0.44940  Biso   1.000  N
  C3       1.0000 0.76260  0.40390  0.48630  Biso   1.000  C
  H3       1.0000 0.78650  0.37880  0.49540  Biso   1.000  H
  N6       1.0000 0.65710  0.45849  0.48450  Biso   1.000  N
  C4       1.0000 0.76090  0.45790  0.45040  Biso   1.000  C
  H4       1.0000 0.78290  0.47870  0.42860  Biso   1.000  H
  N7       1.0000 0.84460  0.57709  0.00810  Biso   1.000  N
  N8       1.0000 0.66650  0.57513  0.94940  Biso   1.000  N
  C5       1.0000 0.73740  0.59610  0.98630  Biso   1.000  C
  H5       1.0000 0.71350  0.62120  0.99540  Biso   1.000  H
  N9       1.0000 0.84290  0.54151  0.98450  Biso   1.000  N
  C6       1.0000 0.73910  0.54210  0.95040  Biso   1.000  C
  H6       1.0000 0.71710  0.52130  0.92860  Biso   1.000  H
  N10      1.0000 0.34460  0.07709  0.50810  Biso   1.000  N
  N11      1.0000 0.16650  0.07513  0.44940  Biso   1.000  N
  C7       1.0000 0.23740  0.09610  0.48630  Biso   1.000  C
  H7       1.0000 0.21350  0.12120  0.49540  Biso   1.000  H
  N12      1.0000 0.34290  0.04151  0.48450  Biso   1.000  N
  C8       1.0000 0.23910  0.04210  0.45040  Biso   1.000  C
  H8       1.0000 0.21710  0.02130  0.42860  Biso   1.000  H
  N13      1.0000 0.84460  0.42291  0.99190  Biso   1.000  N
  N14      1.0000 0.66650  0.42487  0.05060  Biso   1.000  N
  C9       1.0000 0.73740  0.40390  0.01370  Biso   1.000  C
  H9       1.0000 0.71350  0.37880  0.00460  Biso   1.000  H
  N15      1.0000 0.84290  0.45849  0.01550  Biso   1.000  N
  C10      1.0000 0.73910  0.45790  0.04960  Biso   1.000  C
  H10      1.0000 0.71710  0.47870  0.07140  Biso   1.000  H
  N16      1.0000 0.34460  0.92291  0.49190  Biso   1.000  N
  N17      1.0000 0.16650  0.92487  0.55060  Biso   1.000  N
  C11      1.0000 0.23740  0.90390  0.51370  Biso   1.000  C
  H11      1.0000 0.21350  0.87880  0.50460  Biso   1.000  H
  N18      1.0000 0.34290  0.95849  0.51550  Biso   1.000  N
  C12      1.0000 0.23910  0.95790  0.54960  Biso   1.000  C
  H12      1.0000 0.21710  0.97870  0.57140  Biso   1.000  H
  N19      1.0000 0.15540  0.07709  0.99190  Biso   1.000  N
  N20      1.0000 0.33350  0.07513  0.05060  Biso   1.000  N
  C13      1.0000 0.26260  0.09610  0.01370  Biso   1.000  C
  H13      1.0000 0.28650  0.12120  0.00460  Biso   1.000  H
  N21      1.0000 0.15710  0.04151  0.01550  Biso   1.000  N
  C14      1.0000 0.26090  0.04210  0.04960  Biso   1.000  C
  H14      1.0000 0.28290  0.02130  0.07140  Biso   1.000  H
  N22      1.0000 0.65540  0.57709  0.49190  Biso   1.000  N
  N23      1.0000 0.83350  0.57513  0.55060  Biso   1.000  N
  C15      1.0000 0.76260  0.59610  0.51370  Biso   1.000  C
  H15      1.0000 0.78650  0.62120  0.50460  Biso   1.000  H
  N24      1.0000 0.65710  0.54151  0.51550  Biso   1.000  N
  C16      1.0000 0.76090  0.54210  0.54960  Biso   1.000  C
  H16      1.0000 0.78290  0.52130  0.57140  Biso   1.000  H
  N25      1.0000 0.84460  0.07709  0.99190  Biso   1.000  N
  N26      1.0000 0.66650  0.07513  0.05060  Biso   1.000  N
  C17      1.0000 0.73740  0.09610  0.01370  Biso   1.000  C
  H17      1.0000 0.71350  0.12120  0.00460  Biso   1.000  H
  N27      1.0000 0.84290  0.04151  0.01550  Biso   1.000  N
  C18      1.0000 0.73910  0.04210  0.04960  Biso   1.000  C
  H18      1.0000 0.71710  0.02130  0.07140  Biso   1.000  H
  N28      1.0000 0.34460  0.57709  0.49190  Biso   1.000  N
  N29      1.0000 0.16650  0.57513  0.55060  Biso   1.000  N
  C19      1.0000 0.23740  0.59610  0.51370  Biso   1.000  C
  H19      1.0000 0.21350  0.62120  0.50460  Biso   1.000  H
  N30      1.0000 0.34290  0.54151  0.51550  Biso   1.000  N
  C20      1.0000 0.23910  0.54210  0.54960  Biso   1.000  C
  H20      1.0000 0.21710  0.52130  0.57140  Biso   1.000  H
  N31      1.0000 0.15540  0.42291  0.99190  Biso   1.000  N
  N32      1.0000 0.33350  0.42487  0.05060  Biso   1.000  N
  C21      1.0000 0.26260  0.40390  0.01370  Biso   1.000  C
  H21      1.0000 0.28650  0.37880  0.00460  Biso   1.000  H
  N33      1.0000 0.15710  0.45849  0.01550  Biso   1.000  N
  C22      1.0000 0.26090  0.45790  0.04960  Biso   1.000  C
  H22      1.0000 0.28290  0.47870  0.07140  Biso   1.000  H
  N34      1.0000 0.65540  0.92291  0.49190  Biso   1.000  N
  N35      1.0000 0.83350  0.92487  0.55060  Biso   1.000  N
  C23      1.0000 0.76260  0.90390  0.51370  Biso   1.000  C
  H23      1.0000 0.78650  0.87880  0.50460  Biso   1.000  H
  N36      1.0000 0.65710  0.95849  0.51550  Biso   1.000  N
  C24      1.0000 0.76090  0.95790  0.54960  Biso   1.000  C
  H24      1.0000 0.78290  0.97870  0.57140  Biso   1.000  H
  N37      1.0000 0.15540  0.57709  0.00810  Biso   1.000  N
  N38      1.0000 0.33350  0.57513  0.94940  Biso   1.000  N
  C25      1.0000 0.26260  0.59610  0.98630  Biso   1.000  C
  H25      1.0000 0.28650  0.62120  0.99540  Biso   1.000  H
  N39      1.0000 0.15710  0.54151  0.98450  Biso   1.000  N
  C26      1.0000 0.26090  0.54210  0.95040  Biso   1.000  C
  H26      1.0000 0.28290  0.52130  0.92860  Biso   1.000  H
  N40      1.0000 0.65540  0.07709  0.50810  Biso   1.000  N
  N41      1.0000 0.83350  0.07513  0.44940  Biso   1.000  N
  C27      1.0000 0.76260  0.09610  0.48630  Biso   1.000  C
  H27      1.0000 0.78650  0.12120  0.49540  Biso   1.000  H
  N42      1.0000 0.65710  0.04151  0.48450  Biso   1.000  N
  C28      1.0000 0.76090  0.04210  0.45040  Biso   1.000  C
  H28      1.0000 0.78290  0.02130  0.42860  Biso   1.000  H
  N43      1.0000 0.84460  0.92291  0.00810  Biso   1.000  N
  N44      1.0000 0.66650  0.92487  0.94940  Biso   1.000  N
  C29      1.0000 0.73740  0.90390  0.98630  Biso   1.000  C
  H29      1.0000 0.71350  0.87880  0.99540  Biso   1.000  H
  N45      1.0000 0.84290  0.95849  0.98450  Biso   1.000  N
  C30      1.0000 0.73910  0.95790  0.95040  Biso   1.000  C
  H30      1.0000 0.71710  0.97870  0.92860  Biso   1.000  H
  N46      1.0000 0.34460  0.42291  0.50810  Biso   1.000  N
  N47      1.0000 0.16650  0.42487  0.44940  Biso   1.000  N
  C31      1.0000 0.23740  0.40390  0.48630  Biso   1.000  C
  H31      1.0000 0.21350  0.37880  0.49540  Biso   1.000  H
  N48      1.0000 0.34290  0.45849  0.48450  Biso   1.000  N
  C32      1.0000 0.23910  0.45790  0.45040  Biso   1.000  C
  H32      1.0000 0.21710  0.47870  0.42860  Biso   1.000  H
  Zn1      1.0000 0.00000  0.90543  0.05524  Biso   1.000  Zn
  Zn2      1.0000 0.00000  0.09144  0.40838  Biso   1.000  Zn
  O1       1.0000 0.00000  0.01740  0.37210  Biso   1.000  O
  O2       1.0000 0.00000  0.93020  0.12400  Biso   1.000  O
  O3       1.0000 0.00000  0.98590  0.08440  Biso   1.000  O
  C33      1.0000 0.00000  0.02180  0.27840  Biso   1.000  C
  O4       1.0000 0.00000  0.07450  0.33350  Biso   1.000  O
  C34      1.0000 0.00000  0.96620  0.12410  Biso   1.000  C
  O5       1.0000 0.00000  0.14830  0.39980  Biso   1.000  O
  C35      1.0000 0.00000  0.98520  0.17560  Biso   1.000  C
  C36      1.0000 0.00000  0.96590  0.22240  Biso   1.000  C
  H33      1.0000 0.00000  0.93920  0.22110  Biso   1.000  H
  C37      1.0000 0.00000  0.03810  0.33230  Biso   1.000  C
  C38      1.0000 0.00000  0.02350  0.18260  Biso   1.000  C
  H34      1.0000 0.00000  0.03910  0.15240  Biso   1.000  H
  C39      1.0000 0.00000  0.04090  0.23190  Biso   1.000  C
  H35      1.0000 0.00000  0.06760  0.23310  Biso   1.000  H
  O6       1.0000 0.00000  0.15600  0.48330  Biso   1.000  O
  C40      1.0000 0.00000  0.21100  0.42390  Biso   1.000  C
  C41      1.0000 0.00000  0.98330  0.27220  Biso   1.000  C
  H36      1.0000 0.00000  0.96780  0.30250  Biso   1.000  H
  C42      1.0000 0.00000  0.23020  0.47220  Biso   1.000  C
  H37      1.0000 0.00000  0.21660  0.50420  Biso   1.000  H
  C43      1.0000 0.00000  0.22960  0.37530  Biso   1.000  C
  H38      1.0000 0.00000  0.21590  0.34340  Biso   1.000  H
  C44      1.0000 0.00000  0.16830  0.43450  Biso   1.000  C
  Zn3      1.0000 0.50000  0.40543  0.55524  Biso   1.000  Zn
  Zn4      1.0000 0.50000  0.59144  0.90838  Biso   1.000  Zn
  O7       1.0000 0.50000  0.51740  0.87210  Biso   1.000  O
  O8       1.0000 0.50000  0.43020  0.62400  Biso   1.000  O
  O9       1.0000 0.50000  0.48590  0.58440  Biso   1.000  O
  C45      1.0000 0.50000  0.52180  0.77840  Biso   1.000  C
  O10      1.0000 0.50000  0.57450  0.83350  Biso   1.000  O
  C46      1.0000 0.50000  0.46620  0.62410  Biso   1.000  C
  O11      1.0000 0.50000  0.64830  0.89980  Biso   1.000  O
  C47      1.0000 0.50000  0.48520  0.67560  Biso   1.000  C
  C48      1.0000 0.50000  0.46590  0.72240  Biso   1.000  C
  H39      1.0000 0.50000  0.43920  0.72110  Biso   1.000  H
  C49      1.0000 0.50000  0.53810  0.83230  Biso   1.000  C
  C50      1.0000 0.50000  0.52350  0.68260  Biso   1.000  C
  H40      1.0000 0.50000  0.53910  0.65240  Biso   1.000  H
  C51      1.0000 0.50000  0.54090  0.73190  Biso   1.000  C
  H41      1.0000 0.50000  0.56760  0.73310  Biso   1.000  H
  O12      1.0000 0.50000  0.65600  0.98330  Biso   1.000  O
  C52      1.0000 0.50000  0.71100  0.92390  Biso   1.000  C
  C53      1.0000 0.50000  0.48330  0.77220  Biso   1.000  C
  H42      1.0000 0.50000  0.46780  0.80250  Biso   1.000  H
  C54      1.0000 0.50000  0.73020  0.97220  Biso   1.000  C
  H43      1.0000 0.50000  0.71660  0.00420  Biso   1.000  H
  C55      1.0000 0.50000  0.72960  0.87530  Biso   1.000  C
  H44      1.0000 0.50000  0.71590  0.84340  Biso   1.000  H
  C56      1.0000 0.50000  0.66830  0.93450  Biso   1.000  C
  Zn5      1.0000 0.00000  0.59457  0.05524  Biso   1.000  Zn
  Zn6      1.0000 0.00000  0.40856  0.40838  Biso   1.000  Zn
  O13      1.0000 0.00000  0.48260  0.37210  Biso   1.000  O
  O14      1.0000 0.00000  0.56980  0.12400  Biso   1.000  O
  O15      1.0000 0.00000  0.51410  0.08440  Biso   1.000  O
  C57      1.0000 0.00000  0.47820  0.27840  Biso   1.000  C
  O16      1.0000 0.00000  0.42550  0.33350  Biso   1.000  O
  C58      1.0000 0.00000  0.53380  0.12410  Biso   1.000  C
  O17      1.0000 0.00000  0.35170  0.39980  Biso   1.000  O
  C59      1.0000 0.00000  0.51480  0.17560  Biso   1.000  C
  C60      1.0000 0.00000  0.53410  0.22240  Biso   1.000  C
  H45      1.0000 0.00000  0.56080  0.22110  Biso   1.000  H
  C61      1.0000 0.00000  0.46190  0.33230  Biso   1.000  C
  C62      1.0000 0.00000  0.47650  0.18260  Biso   1.000  C
  H46      1.0000 0.00000  0.46090  0.15240  Biso   1.000  H
  C63      1.0000 0.00000  0.45910  0.23190  Biso   1.000  C
  H47      1.0000 0.00000  0.43240  0.23310  Biso   1.000  H
  O18      1.0000 0.00000  0.34400  0.48330  Biso   1.000  O
  C64      1.0000 0.00000  0.28900  0.42390  Biso   1.000  C
  C65      1.0000 0.00000  0.51670  0.27220  Biso   1.000  C
  H48      1.0000 0.00000  0.53220  0.30250  Biso   1.000  H
  C66      1.0000 0.00000  0.26980  0.47220  Biso   1.000  C
  H49      1.0000 0.00000  0.28340  0.50420  Biso   1.000  H
  C67      1.0000 0.00000  0.27040  0.37530  Biso   1.000  C
  H50      1.0000 0.00000  0.28410  0.34340  Biso   1.000  H
  C68      1.0000 0.00000  0.33170  0.43450  Biso   1.000  C
  Zn7      1.0000 0.50000  0.09457  0.55524  Biso   1.000  Zn
  Zn8      1.0000 0.50000  0.90856  0.90838  Biso   1.000  Zn
  O19      1.0000 0.50000  0.98260  0.87210  Biso   1.000  O
  O20      1.0000 0.50000  0.06980  0.62400  Biso   1.000  O
  O21      1.0000 0.50000  0.01410  0.58440  Biso   1.000  O
  C69      1.0000 0.50000  0.97820  0.77840  Biso   1.000  C
  O22      1.0000 0.50000  0.92550  0.83350  Biso   1.000  O
  C70      1.0000 0.50000  0.03380  0.62410  Biso   1.000  C
  O23      1.0000 0.50000  0.85170  0.89980  Biso   1.000  O
  C71      1.0000 0.50000  0.01480  0.67560  Biso   1.000  C
  C72      1.0000 0.50000  0.03410  0.72240  Biso   1.000  C
  H51      1.0000 0.50000  0.06080  0.72110  Biso   1.000  H
  C73      1.0000 0.50000  0.96190  0.83230  Biso   1.000  C
  C74      1.0000 0.50000  0.97650  0.68260  Biso   1.000  C
  H52      1.0000 0.50000  0.96090  0.65240  Biso   1.000  H
  C75      1.0000 0.50000  0.95910  0.73190  Biso   1.000  C
  H53      1.0000 0.50000  0.93240  0.73310  Biso   1.000  H
  O24      1.0000 0.50000  0.84400  0.98330  Biso   1.000  O
  C76      1.0000 0.50000  0.78900  0.92390  Biso   1.000  C
  C77      1.0000 0.50000  0.01670  0.77220  Biso   1.000  C
  H54      1.0000 0.50000  0.03220  0.80250  Biso   1.000  H
  C78      1.0000 0.50000  0.76980  0.97220  Biso   1.000  C
  H55      1.0000 0.50000  0.78340  0.00420  Biso   1.000  H
  C79      1.0000 0.50000  0.77040  0.87530  Biso   1.000  C
  H56      1.0000 0.50000  0.78410  0.84340  Biso   1.000  H
  C80      1.0000 0.50000  0.83170  0.93450  Biso   1.000  C
  Zn9      1.0000 0.00000  0.40543  0.94476  Biso   1.000  Zn
  Zn10     1.0000 0.00000  0.59144  0.59162  Biso   1.000  Zn
  O25      1.0000 0.00000  0.51740  0.62790  Biso   1.000  O
  O26      1.0000 0.00000  0.43020  0.87600  Biso   1.000  O
  O27      1.0000 0.00000  0.48590  0.91560  Biso   1.000  O
  C81      1.0000 0.00000  0.52180  0.72160  Biso   1.000  C
  O28      1.0000 0.00000  0.57450  0.66650  Biso   1.000  O
  C82      1.0000 0.00000  0.46620  0.87590  Biso   1.000  C
  O29      1.0000 0.00000  0.64830  0.60020  Biso   1.000  O
  C83      1.0000 0.00000  0.48520  0.82440  Biso   1.000  C
  C84      1.0000 0.00000  0.46590  0.77760  Biso   1.000  C
  H57      1.0000 0.00000  0.43920  0.77890  Biso   1.000  H
  C85      1.0000 0.00000  0.53810  0.66770  Biso   1.000  C
  C86      1.0000 0.00000  0.52350  0.81740  Biso   1.000  C
  H58      1.0000 0.00000  0.53910  0.84760  Biso   1.000  H
  C87      1.0000 0.00000  0.54090  0.76810  Biso   1.000  C
  H59      1.0000 0.00000  0.56760  0.76690  Biso   1.000  H
  O30      1.0000 0.00000  0.65600  0.51670  Biso   1.000  O
  C88      1.0000 0.00000  0.71100  0.57610  Biso   1.000  C
  C89      1.0000 0.00000  0.48330  0.72780  Biso   1.000  C
  H60      1.0000 0.00000  0.46780  0.69750  Biso   1.000  H
  C90      1.0000 0.00000  0.73020  0.52780  Biso   1.000  C
  H61      1.0000 0.00000  0.71660  0.49580  Biso   1.000  H
  C91      1.0000 0.00000  0.72960  0.62470  Biso   1.000  C
  H62      1.0000 0.00000  0.71590  0.65660  Biso   1.000  H
  C92      1.0000 0.00000  0.66830  0.56550  Biso   1.000  C
  Zn11     1.0000 0.50000  0.90543  0.44476  Biso   1.000  Zn
  Zn12     1.0000 0.50000  0.09144  0.09162  Biso   1.000  Zn
  O31      1.0000 0.50000  0.01740  0.12790  Biso   1.000  O
  O32      1.0000 0.50000  0.93020  0.37600  Biso   1.000  O
  O33      1.0000 0.50000  0.98590  0.41560  Biso   1.000  O
  C93      1.0000 0.50000  0.02180  0.22160  Biso   1.000  C
  O34      1.0000 0.50000  0.07450  0.16650  Biso   1.000  O
  C94      1.0000 0.50000  0.96620  0.37590  Biso   1.000  C
  O35      1.0000 0.50000  0.14830  0.10020  Biso   1.000  O
  C95      1.0000 0.50000  0.98520  0.32440  Biso   1.000  C
  C96      1.0000 0.50000  0.96590  0.27760  Biso   1.000  C
  H63      1.0000 0.50000  0.93920  0.27890  Biso   1.000  H
  C97      1.0000 0.50000  0.03810  0.16770  Biso   1.000  C
  C98      1.0000 0.50000  0.02350  0.31740  Biso   1.000  C
  H64      1.0000 0.50000  0.03910  0.34760  Biso   1.000  H
  C99      1.0000 0.50000  0.04090  0.26810  Biso   1.000  C
  H65      1.0000 0.50000  0.06760  0.26690  Biso   1.000  H
  O36      1.0000 0.50000  0.15600  0.01670  Biso   1.000  O
  C100     1.0000 0.50000  0.21100  0.07610  Biso   1.000  C
  C101     1.0000 0.50000  0.98330  0.22780  Biso   1.000  C
  H66      1.0000 0.50000  0.96780  0.19750  Biso   1.000  H
  C102     1.0000 0.50000  0.23020  0.02780  Biso   1.000  C
  H67      1.0000 0.50000  0.21660  0.99580  Biso   1.000  H
  C103     1.0000 0.50000  0.22960  0.12470  Biso   1.000  C
  H68      1.0000 0.50000  0.21590  0.15660  Biso   1.000  H
  C104     1.0000 0.50000  0.16830  0.06550  Biso   1.000  C
  Zn13     1.0000 0.00000  0.09457  0.94476  Biso   1.000  Zn
  Zn14     1.0000 0.00000  0.90856  0.59162  Biso   1.000  Zn
  O37      1.0000 0.00000  0.98260  0.62790  Biso   1.000  O
  O38      1.0000 0.00000  0.06980  0.87600  Biso   1.000  O
  O39      1.0000 0.00000  0.01410  0.91560  Biso   1.000  O
  C105     1.0000 0.00000  0.97820  0.72160  Biso   1.000  C
  O40      1.0000 0.00000  0.92550  0.66650  Biso   1.000  O
  C106     1.0000 0.00000  0.03380  0.87590  Biso   1.000  C
  O41      1.0000 0.00000  0.85170  0.60020  Biso   1.000  O
  C107     1.0000 0.00000  0.01480  0.82440  Biso   1.000  C
  C108     1.0000 0.00000  0.03410  0.77760  Biso   1.000  C
  H69      1.0000 0.00000  0.06080  0.77890  Biso   1.000  H
  C109     1.0000 0.00000  0.96190  0.66770  Biso   1.000  C
  C110     1.0000 0.00000  0.97650  0.81740  Biso   1.000  C
  H70      1.0000 0.00000  0.96090  0.84760  Biso   1.000  H
  C111     1.0000 0.00000  0.95910  0.76810  Biso   1.000  C
  H71      1.0000 0.00000  0.93240  0.76690  Biso   1.000  H
  O42      1.0000 0.00000  0.84400  0.51670  Biso   1.000  O
  C112     1.0000 0.00000  0.78900  0.57610  Biso   1.000  C
  C113     1.0000 0.00000  0.01670  0.72780  Biso   1.000  C
  H72      1.0000 0.00000  0.03220  0.69750  Biso   1.000  H
  C114     1.0000 0.00000  0.76980  0.52780  Biso   1.000  C
  H73      1.0000 0.00000  0.78340  0.49580  Biso   1.000  H
  C115     1.0000 0.00000  0.77040  0.62470  Biso   1.000  C
  H74      1.0000 0.00000  0.78410  0.65660  Biso   1.000  H
  C116     1.0000 0.00000  0.83170  0.56550  Biso   1.000  C
  Zn15     1.0000 0.50000  0.59457  0.44476  Biso   1.000  Zn
  Zn16     1.0000 0.50000  0.40856  0.09162  Biso   1.000  Zn
  O43      1.0000 0.50000  0.48260  0.12790  Biso   1.000  O
  O44      1.0000 0.50000  0.56980  0.37600  Biso   1.000  O
  O45      1.0000 0.50000  0.51410  0.41560  Biso   1.000  O
  C117     1.0000 0.50000  0.47820  0.22160  Biso   1.000  C
  O46      1.0000 0.50000  0.42550  0.16650  Biso   1.000  O
  C118     1.0000 0.50000  0.53380  0.37590  Biso   1.000  C
  O47      1.0000 0.50000  0.35170  0.10020  Biso   1.000  O
  C119     1.0000 0.50000  0.51480  0.32440  Biso   1.000  C
  C120     1.0000 0.50000  0.53410  0.27760  Biso   1.000  C
  H75      1.0000 0.50000  0.56080  0.27890  Biso   1.000  H
  C121     1.0000 0.50000  0.46190  0.16770  Biso   1.000  C
  C122     1.0000 0.50000  0.47650  0.31740  Biso   1.000  C
  H76      1.0000 0.50000  0.46090  0.34760  Biso   1.000  H
  C123     1.0000 0.50000  0.45910  0.26810  Biso   1.000  C
  H77      1.0000 0.50000  0.43240  0.26690  Biso   1.000  H
  O48      1.0000 0.50000  0.34400  0.01670  Biso   1.000  O
  C124     1.0000 0.50000  0.28900  0.07610  Biso   1.000  C
  C125     1.0000 0.50000  0.51670  0.22780  Biso   1.000  C
  H78      1.0000 0.50000  0.53220  0.19750  Biso   1.000  H
  C126     1.0000 0.50000  0.26980  0.02780  Biso   1.000  C
  H79      1.0000 0.50000  0.28340  0.99580  Biso   1.000  H
  C127     1.0000 0.50000  0.27040  0.12470  Biso   1.000  C
  H80      1.0000 0.50000  0.28410  0.15660  Biso   1.000  H
  C128     1.0000 0.50000  0.33170  0.06550  Biso   1.000  C
  Zn17     1.0000 0.00000  0.00000  0.00000  Biso   1.000  Zn
  Zn18     1.0000 0.50000  0.50000  0.50000  Biso   1.000  Zn
  Zn19     1.0000 0.00000  0.50000  0.00000  Biso   1.000  Zn
  Zn20     1.0000 0.50000  0.00000  0.50000  Biso   1.000  Zn
