data_image0
_cell_length_a       37.941
_cell_length_b       19.9026
_cell_length_c       14.3533
_cell_angle_alpha    90
_cell_angle_beta     90
_cell_angle_gamma    90

_symmetry_space_group_name_H-M    "P 1"
_symmetry_int_tables_number       1

loop_
  _symmetry_equiv_pos_as_xyz
  'x, y, z'

loop_
  _atom_site_label
  _atom_site_occupancy
  _atom_site_fract_x
  _atom_site_fract_y
  _atom_site_fract_z
  _atom_site_thermal_displace_type
  _atom_site_B_iso_or_equiv
  _atom_site_type_symbol
  Cd1      1.0000 0.61576  0.23933  0.50153  Biso   1.000  Cd
  Cd2      1.0000 0.24773  0.18304  0.75122  Biso   1.000  Cd
  Cd3      1.0000 0.32394  0.29005  0.41037  Biso   1.000  Cd
  Cd4      1.0000 0.31985  0.17015  0.58817  Biso   1.000  Cd
  C1       1.0000 0.36090  0.27890  0.20320  Biso   1.000  C
  C2       1.0000 0.22230  0.10230  0.36730  Biso   1.000  C
  H1       1.0000 0.20960  0.14100  0.35400  Biso   1.000  H
  C3       1.0000 0.45060  0.26440  0.44500  Biso   1.000  C
  H2       1.0000 0.43840  0.29420  0.40700  Biso   1.000  H
  C4       1.0000 0.27700  0.04830  0.39670  Biso   1.000  C
  H3       1.0000 0.30120  0.05050  0.40670  Biso   1.000  H
  C5       1.0000 0.26050  0.98690  0.39580  Biso   1.000  C
  H4       1.0000 0.27380  0.94780  0.40130  Biso   1.000  H
  C6       1.0000 0.23430  0.48470  0.62970  Biso   1.000  C
  C7       1.0000 0.21650  0.55230  0.62520  Biso   1.000  C
  C8       1.0000 0.31520  0.19540  0.88210  Biso   1.000  C
  H5       1.0000 0.30130  0.20180  0.93470  Biso   1.000  H
  C9       1.0000 0.28540  0.29610  0.60410  Biso   1.000  C
  C10      1.0000 0.35900  0.19170  0.79460  Biso   1.000  C
  C11      1.0000 0.22430  0.98290  0.38680  Biso   1.000  C
  C12      1.0000 0.26770  0.36170  0.61850  Biso   1.000  C
  C13      1.0000 0.54560  0.22810  0.50700  Biso   1.000  C
  C14      1.0000 0.45130  0.17690  0.55640  Biso   1.000  C
  H6       1.0000 0.43940  0.14610  0.59360  Biso   1.000  H
  C15      1.0000 0.20620  0.91660  0.39370  Biso   1.000  C
  C16      1.0000 0.48790  0.17980  0.55900  Biso   1.000  C
  H7       1.0000 0.50030  0.15060  0.59760  Biso   1.000  H
  C17      1.0000 0.27110  0.48120  0.62950  Biso   1.000  C
  H8       1.0000 0.28440  0.52020  0.63510  Biso   1.000  H
  C18      1.0000 0.50580  0.22450  0.50600  Biso   1.000  C
  C19      1.0000 0.20550  0.04060  0.37130  Biso   1.000  C
  H9       1.0000 0.18120  0.03830  0.36340  Biso   1.000  H
  C20      1.0000 0.23140  0.36580  0.62470  Biso   1.000  C
  H10      1.0000 0.21810  0.32650  0.62610  Biso   1.000  H
  C21      1.0000 0.43250  0.21920  0.49920  Biso   1.000  C
  C22      1.0000 0.39340  0.21800  0.49790  Biso   1.000  C
  C23      1.0000 0.28730  0.42060  0.62100  Biso   1.000  C
  H11      1.0000 0.31170  0.41860  0.61670  Biso   1.000  H
  C24      1.0000 0.31920  0.30720  0.11110  Biso   1.000  C
  C25      1.0000 0.25820  0.10620  0.38300  Biso   1.000  C
  C26      1.0000 0.27520  0.17330  0.38490  Biso   1.000  C
  C27      1.0000 0.48710  0.26550  0.44700  Biso   1.000  C
  H12      1.0000 0.49910  0.29450  0.40750  Biso   1.000  H
  C28      1.0000 0.21470  0.42670  0.62890  Biso   1.000  C
  H13      1.0000 0.19020  0.42880  0.63110  Biso   1.000  H
  O1       1.0000 0.17360  0.91400  0.40610  Biso   1.000  O
  O2       1.0000 0.26240  0.22060  0.34110  Biso   1.000  O
  O3       1.0000 0.22399  0.86350  0.38720  Biso   1.000  O
  O4       1.0000 0.30373  0.18050  0.43200  Biso   1.000  O
  O5       1.0000 0.23530  0.60460  0.63960  Biso   1.000  O
  O6       1.0000 0.56080  0.26130  0.44440  Biso   1.000  O
  O7       1.0000 0.18516  0.55630  0.59930  Biso   1.000  O
  O8       1.0000 0.56120  0.19660  0.56730  Biso   1.000  O
  O9       1.0000 0.37739  0.17990  0.55310  Biso   1.000  O
  O10      1.0000 0.31630  0.29430  0.57090  Biso   1.000  O
  O11      1.0000 0.37887  0.25720  0.44070  Biso   1.000  O
  O12      1.0000 0.26892  0.24290  0.62090  Biso   1.000  O
  N1       1.0000 0.33403  0.29100  0.25720  Biso   1.000  N
  N2       1.0000 0.30699  0.31070  0.19750  Biso   1.000  N
  N3       1.0000 0.35374  0.28680  0.11240  Biso   1.000  N
  N4       1.0000 0.30190  0.32630  0.03930  Biso   1.000  N
  H14      1.0000 0.28100  0.34270  0.04560  Biso   1.000  H
  H15      1.0000 0.31110  0.32280  0.98480  Biso   1.000  H
  N5       1.0000 0.39280  0.19050  0.76250  Biso   1.000  N
  H16      1.0000 0.39690  0.18270  0.70460  Biso   1.000  H
  H17      1.0000 0.41000  0.19750  0.80020  Biso   1.000  H
  N6       1.0000 0.33066  0.18150  0.74260  Biso   1.000  N
  N7       1.0000 0.30177  0.18230  0.80290  Biso   1.000  N
  N8       1.0000 0.35060  0.19950  0.88570  Biso   1.000  N
  N9       1.0000 0.39180  0.26910  0.23290  Biso   1.000  N
  H18      1.0000 0.39600  0.27020  0.29180  Biso   1.000  H
  H19      1.0000 0.40870  0.26120  0.19440  Biso   1.000  H
  Cd5      1.0000 0.88424  0.26067  0.00153  Biso   1.000  Cd
  Cd6      1.0000 0.25227  0.31696  0.25122  Biso   1.000  Cd
  Cd7      1.0000 0.17606  0.20995  0.91037  Biso   1.000  Cd
  Cd8      1.0000 0.18015  0.32985  0.08817  Biso   1.000  Cd
  C29      1.0000 0.13910  0.22110  0.70320  Biso   1.000  C
  C30      1.0000 0.27770  0.39770  0.86730  Biso   1.000  C
  H20      1.0000 0.29040  0.35900  0.85400  Biso   1.000  H
  C31      1.0000 0.04940  0.23560  0.94500  Biso   1.000  C
  H21      1.0000 0.06160  0.20580  0.90700  Biso   1.000  H
  C32      1.0000 0.22300  0.45170  0.89670  Biso   1.000  C
  H22      1.0000 0.19880  0.44950  0.90670  Biso   1.000  H
  C33      1.0000 0.23950  0.51310  0.89580  Biso   1.000  C
  H23      1.0000 0.22620  0.55220  0.90130  Biso   1.000  H
  C34      1.0000 0.26570  0.01530  0.12970  Biso   1.000  C
  C35      1.0000 0.28350  0.94770  0.12520  Biso   1.000  C
  C36      1.0000 0.18480  0.30460  0.38210  Biso   1.000  C
  H24      1.0000 0.19870  0.29820  0.43470  Biso   1.000  H
  C37      1.0000 0.21460  0.20390  0.10410  Biso   1.000  C
  C38      1.0000 0.14100  0.30830  0.29460  Biso   1.000  C
  C39      1.0000 0.27570  0.51710  0.88680  Biso   1.000  C
  C40      1.0000 0.23230  0.13830  0.11850  Biso   1.000  C
  C41      1.0000 0.95440  0.27190  0.00700  Biso   1.000  C
  C42      1.0000 0.04870  0.32310  0.05640  Biso   1.000  C
  H25      1.0000 0.06060  0.35390  0.09360  Biso   1.000  H
  C43      1.0000 0.29380  0.58340  0.89370  Biso   1.000  C
  C44      1.0000 0.01210  0.32020  0.05900  Biso   1.000  C
  H26      1.0000 0.99970  0.34940  0.09760  Biso   1.000  H
  C45      1.0000 0.22890  0.01880  0.12950  Biso   1.000  C
  H27      1.0000 0.21560  0.97980  0.13510  Biso   1.000  H
  C46      1.0000 0.99420  0.27550  0.00600  Biso   1.000  C
  C47      1.0000 0.29450  0.45940  0.87130  Biso   1.000  C
  H28      1.0000 0.31880  0.46170  0.86340  Biso   1.000  H
  C48      1.0000 0.26860  0.13420  0.12470  Biso   1.000  C
  H29      1.0000 0.28190  0.17350  0.12610  Biso   1.000  H
  C49      1.0000 0.06750  0.28080  0.99920  Biso   1.000  C
  C50      1.0000 0.10660  0.28200  0.99790  Biso   1.000  C
  C51      1.0000 0.21270  0.07940  0.12100  Biso   1.000  C
  H30      1.0000 0.18830  0.08140  0.11670  Biso   1.000  H
  C52      1.0000 0.18080  0.19280  0.61110  Biso   1.000  C
  C53      1.0000 0.24180  0.39380  0.88300  Biso   1.000  C
  C54      1.0000 0.22480  0.32670  0.88490  Biso   1.000  C
  C55      1.0000 0.01290  0.23450  0.94700  Biso   1.000  C
  H31      1.0000 0.00090  0.20550  0.90750  Biso   1.000  H
  C56      1.0000 0.28530  0.07330  0.12890  Biso   1.000  C
  H32      1.0000 0.30980  0.07120  0.13110  Biso   1.000  H
  O13      1.0000 0.32640  0.58600  0.90610  Biso   1.000  O
  O14      1.0000 0.23760  0.27940  0.84110  Biso   1.000  O
  O15      1.0000 0.27601  0.63650  0.88720  Biso   1.000  O
  O16      1.0000 0.19627  0.31950  0.93200  Biso   1.000  O
  O17      1.0000 0.26470  0.89540  0.13960  Biso   1.000  O
  O18      1.0000 0.93920  0.23870  0.94440  Biso   1.000  O
  O19      1.0000 0.31484  0.94370  0.09930  Biso   1.000  O
  O20      1.0000 0.93880  0.30340  0.06730  Biso   1.000  O
  O21      1.0000 0.12261  0.32010  0.05310  Biso   1.000  O
  O22      1.0000 0.18370  0.20570  0.07090  Biso   1.000  O
  O23      1.0000 0.12113  0.24280  0.94070  Biso   1.000  O
  O24      1.0000 0.23108  0.25710  0.12090  Biso   1.000  O
  N10      1.0000 0.16597  0.20900  0.75720  Biso   1.000  N
  N11      1.0000 0.19301  0.18930  0.69750  Biso   1.000  N
  N12      1.0000 0.14626  0.21320  0.61240  Biso   1.000  N
  N13      1.0000 0.19810  0.17370  0.53930  Biso   1.000  N
  H33      1.0000 0.21900  0.15730  0.54560  Biso   1.000  H
  H34      1.0000 0.18890  0.17720  0.48480  Biso   1.000  H
  N14      1.0000 0.10720  0.30950  0.26250  Biso   1.000  N
  H35      1.0000 0.10310  0.31730  0.20460  Biso   1.000  H
  H36      1.0000 0.09000  0.30250  0.30020  Biso   1.000  H
  N15      1.0000 0.16934  0.31850  0.24260  Biso   1.000  N
  N16      1.0000 0.19823  0.31770  0.30290  Biso   1.000  N
  N17      1.0000 0.14940  0.30050  0.38570  Biso   1.000  N
  N18      1.0000 0.10820  0.23090  0.73290  Biso   1.000  N
  H37      1.0000 0.10400  0.22980  0.79180  Biso   1.000  H
  H38      1.0000 0.09130  0.23880  0.69440  Biso   1.000  H
  Cd9      1.0000 0.38424  0.23933  0.99847  Biso   1.000  Cd
  Cd10     1.0000 0.75227  0.18304  0.74878  Biso   1.000  Cd
  Cd11     1.0000 0.67606  0.29005  0.08963  Biso   1.000  Cd
  Cd12     1.0000 0.68015  0.17015  0.91183  Biso   1.000  Cd
  C57      1.0000 0.63910  0.27890  0.29680  Biso   1.000  C
  C58      1.0000 0.77770  0.10230  0.13270  Biso   1.000  C
  H39      1.0000 0.79040  0.14100  0.14600  Biso   1.000  H
  C59      1.0000 0.54940  0.26440  0.05500  Biso   1.000  C
  H40      1.0000 0.56160  0.29420  0.09300  Biso   1.000  H
  C60      1.0000 0.72300  0.04830  0.10330  Biso   1.000  C
  H41      1.0000 0.69880  0.05050  0.09330  Biso   1.000  H
  C61      1.0000 0.73950  0.98690  0.10420  Biso   1.000  C
  H42      1.0000 0.72620  0.94780  0.09870  Biso   1.000  H
  C62      1.0000 0.76570  0.48470  0.87030  Biso   1.000  C
  C63      1.0000 0.78350  0.55230  0.87480  Biso   1.000  C
  C64      1.0000 0.68480  0.19540  0.61790  Biso   1.000  C
  H43      1.0000 0.69870  0.20180  0.56530  Biso   1.000  H
  C65      1.0000 0.71460  0.29610  0.89590  Biso   1.000  C
  C66      1.0000 0.64100  0.19170  0.70540  Biso   1.000  C
  C67      1.0000 0.77570  0.98290  0.11320  Biso   1.000  C
  C68      1.0000 0.73230  0.36170  0.88150  Biso   1.000  C
  C69      1.0000 0.45440  0.22810  0.99300  Biso   1.000  C
  C70      1.0000 0.54870  0.17690  0.94360  Biso   1.000  C
  H44      1.0000 0.56060  0.14610  0.90640  Biso   1.000  H
  C71      1.0000 0.79380  0.91660  0.10630  Biso   1.000  C
  C72      1.0000 0.51210  0.17980  0.94100  Biso   1.000  C
  H45      1.0000 0.49970  0.15060  0.90240  Biso   1.000  H
  C73      1.0000 0.72890  0.48120  0.87050  Biso   1.000  C
  H46      1.0000 0.71560  0.52020  0.86490  Biso   1.000  H
  C74      1.0000 0.49420  0.22450  0.99400  Biso   1.000  C
  C75      1.0000 0.79450  0.04060  0.12870  Biso   1.000  C
  H47      1.0000 0.81880  0.03830  0.13660  Biso   1.000  H
  C76      1.0000 0.76860  0.36580  0.87530  Biso   1.000  C
  H48      1.0000 0.78190  0.32650  0.87390  Biso   1.000  H
  C77      1.0000 0.56750  0.21920  0.00080  Biso   1.000  C
  C78      1.0000 0.60660  0.21800  0.00210  Biso   1.000  C
  C79      1.0000 0.71270  0.42060  0.87900  Biso   1.000  C
  H49      1.0000 0.68830  0.41860  0.88330  Biso   1.000  H
  C80      1.0000 0.68080  0.30720  0.38890  Biso   1.000  C
  C81      1.0000 0.74180  0.10620  0.11700  Biso   1.000  C
  C82      1.0000 0.72480  0.17330  0.11510  Biso   1.000  C
  C83      1.0000 0.51290  0.26550  0.05300  Biso   1.000  C
  H50      1.0000 0.50090  0.29450  0.09250  Biso   1.000  H
  C84      1.0000 0.78530  0.42670  0.87110  Biso   1.000  C
  H51      1.0000 0.80980  0.42880  0.86890  Biso   1.000  H
  O25      1.0000 0.82640  0.91400  0.09390  Biso   1.000  O
  O26      1.0000 0.73760  0.22060  0.15890  Biso   1.000  O
  O27      1.0000 0.77601  0.86350  0.11280  Biso   1.000  O
  O28      1.0000 0.69627  0.18050  0.06800  Biso   1.000  O
  O29      1.0000 0.76470  0.60460  0.86040  Biso   1.000  O
  O30      1.0000 0.43920  0.26130  0.05560  Biso   1.000  O
  O31      1.0000 0.81484  0.55630  0.90070  Biso   1.000  O
  O32      1.0000 0.43880  0.19660  0.93270  Biso   1.000  O
  O33      1.0000 0.62261  0.17990  0.94690  Biso   1.000  O
  O34      1.0000 0.68370  0.29430  0.92910  Biso   1.000  O
  O35      1.0000 0.62113  0.25720  0.05930  Biso   1.000  O
  O36      1.0000 0.73108  0.24290  0.87910  Biso   1.000  O
  N19      1.0000 0.66597  0.29100  0.24280  Biso   1.000  N
  N20      1.0000 0.69301  0.31070  0.30250  Biso   1.000  N
  N21      1.0000 0.64626  0.28680  0.38760  Biso   1.000  N
  N22      1.0000 0.69810  0.32630  0.46070  Biso   1.000  N
  H52      1.0000 0.71900  0.34270  0.45440  Biso   1.000  H
  H53      1.0000 0.68890  0.32280  0.51520  Biso   1.000  H
  N23      1.0000 0.60720  0.19050  0.73750  Biso   1.000  N
  H54      1.0000 0.60310  0.18270  0.79540  Biso   1.000  H
  H55      1.0000 0.59000  0.19750  0.69980  Biso   1.000  H
  N24      1.0000 0.66934  0.18150  0.75740  Biso   1.000  N
  N25      1.0000 0.69823  0.18230  0.69710  Biso   1.000  N
  N26      1.0000 0.64940  0.19950  0.61430  Biso   1.000  N
  N27      1.0000 0.60820  0.26910  0.26710  Biso   1.000  N
  H56      1.0000 0.60400  0.27020  0.20820  Biso   1.000  H
  H57      1.0000 0.59130  0.26120  0.30560  Biso   1.000  H
  Cd13     1.0000 0.11576  0.26067  0.49847  Biso   1.000  Cd
  Cd14     1.0000 0.74773  0.31696  0.24878  Biso   1.000  Cd
  Cd15     1.0000 0.82394  0.20995  0.58963  Biso   1.000  Cd
  Cd16     1.0000 0.81985  0.32985  0.41183  Biso   1.000  Cd
  C85      1.0000 0.86090  0.22110  0.79680  Biso   1.000  C
  C86      1.0000 0.72230  0.39770  0.63270  Biso   1.000  C
  H58      1.0000 0.70960  0.35900  0.64600  Biso   1.000  H
  C87      1.0000 0.95060  0.23560  0.55500  Biso   1.000  C
  H59      1.0000 0.93840  0.20580  0.59300  Biso   1.000  H
  C88      1.0000 0.77700  0.45170  0.60330  Biso   1.000  C
  H60      1.0000 0.80120  0.44950  0.59330  Biso   1.000  H
  C89      1.0000 0.76050  0.51310  0.60420  Biso   1.000  C
  H61      1.0000 0.77380  0.55220  0.59870  Biso   1.000  H
  C90      1.0000 0.73430  0.01530  0.37030  Biso   1.000  C
  C91      1.0000 0.71650  0.94770  0.37480  Biso   1.000  C
  C92      1.0000 0.81520  0.30460  0.11790  Biso   1.000  C
  H62      1.0000 0.80130  0.29820  0.06530  Biso   1.000  H
  C93      1.0000 0.78540  0.20390  0.39590  Biso   1.000  C
  C94      1.0000 0.85900  0.30830  0.20540  Biso   1.000  C
  C95      1.0000 0.72430  0.51710  0.61320  Biso   1.000  C
  C96      1.0000 0.76770  0.13830  0.38150  Biso   1.000  C
  C97      1.0000 0.04560  0.27190  0.49300  Biso   1.000  C
  C98      1.0000 0.95130  0.32310  0.44360  Biso   1.000  C
  H63      1.0000 0.93940  0.35390  0.40640  Biso   1.000  H
  C99      1.0000 0.70620  0.58340  0.60630  Biso   1.000  C
  C100     1.0000 0.98790  0.32020  0.44100  Biso   1.000  C
  H64      1.0000 0.00030  0.34940  0.40240  Biso   1.000  H
  C101     1.0000 0.77110  0.01880  0.37050  Biso   1.000  C
  H65      1.0000 0.78440  0.97980  0.36490  Biso   1.000  H
  C102     1.0000 0.00580  0.27550  0.49400  Biso   1.000  C
  C103     1.0000 0.70550  0.45940  0.62870  Biso   1.000  C
  H66      1.0000 0.68120  0.46170  0.63660  Biso   1.000  H
  C104     1.0000 0.73140  0.13420  0.37530  Biso   1.000  C
  H67      1.0000 0.71810  0.17350  0.37390  Biso   1.000  H
  C105     1.0000 0.93250  0.28080  0.50080  Biso   1.000  C
  C106     1.0000 0.89340  0.28200  0.50210  Biso   1.000  C
  C107     1.0000 0.78730  0.07940  0.37900  Biso   1.000  C
  H68      1.0000 0.81170  0.08140  0.38330  Biso   1.000  H
  C108     1.0000 0.81920  0.19280  0.88890  Biso   1.000  C
  C109     1.0000 0.75820  0.39380  0.61700  Biso   1.000  C
  C110     1.0000 0.77520  0.32670  0.61510  Biso   1.000  C
  C111     1.0000 0.98710  0.23450  0.55300  Biso   1.000  C
  H69      1.0000 0.99910  0.20550  0.59250  Biso   1.000  H
  C112     1.0000 0.71470  0.07330  0.37110  Biso   1.000  C
  H70      1.0000 0.69020  0.07120  0.36890  Biso   1.000  H
  O37      1.0000 0.67360  0.58600  0.59390  Biso   1.000  O
  O38      1.0000 0.76240  0.27940  0.65890  Biso   1.000  O
  O39      1.0000 0.72399  0.63650  0.61280  Biso   1.000  O
  O40      1.0000 0.80373  0.31950  0.56800  Biso   1.000  O
  O41      1.0000 0.73530  0.89540  0.36040  Biso   1.000  O
  O42      1.0000 0.06080  0.23870  0.55560  Biso   1.000  O
  O43      1.0000 0.68516  0.94370  0.40070  Biso   1.000  O
  O44      1.0000 0.06120  0.30340  0.43270  Biso   1.000  O
  O45      1.0000 0.87739  0.32010  0.44690  Biso   1.000  O
  O46      1.0000 0.81630  0.20570  0.42910  Biso   1.000  O
  O47      1.0000 0.87887  0.24280  0.55930  Biso   1.000  O
  O48      1.0000 0.76892  0.25710  0.37910  Biso   1.000  O
  N28      1.0000 0.83403  0.20900  0.74280  Biso   1.000  N
  N29      1.0000 0.80699  0.18930  0.80250  Biso   1.000  N
  N30      1.0000 0.85374  0.21320  0.88760  Biso   1.000  N
  N31      1.0000 0.80190  0.17370  0.96070  Biso   1.000  N
  H71      1.0000 0.78100  0.15730  0.95440  Biso   1.000  H
  H72      1.0000 0.81110  0.17720  0.01520  Biso   1.000  H
  N32      1.0000 0.89280  0.30950  0.23750  Biso   1.000  N
  H73      1.0000 0.89690  0.31730  0.29540  Biso   1.000  H
  H74      1.0000 0.91000  0.30250  0.19980  Biso   1.000  H
  N33      1.0000 0.83066  0.31850  0.25740  Biso   1.000  N
  N34      1.0000 0.80177  0.31770  0.19710  Biso   1.000  N
  N35      1.0000 0.85060  0.30050  0.11430  Biso   1.000  N
  N36      1.0000 0.89180  0.23090  0.76710  Biso   1.000  N
  H75      1.0000 0.89600  0.22980  0.70820  Biso   1.000  H
  H76      1.0000 0.90870  0.23880  0.80560  Biso   1.000  H
  Cd17     1.0000 0.38424  0.76067  0.49847  Biso   1.000  Cd
  Cd18     1.0000 0.75227  0.81696  0.24878  Biso   1.000  Cd
  Cd19     1.0000 0.67606  0.70995  0.58963  Biso   1.000  Cd
  Cd20     1.0000 0.68015  0.82985  0.41183  Biso   1.000  Cd
  C113     1.0000 0.63910  0.72110  0.79680  Biso   1.000  C
  C114     1.0000 0.77770  0.89770  0.63270  Biso   1.000  C
  H77      1.0000 0.79040  0.85900  0.64600  Biso   1.000  H
  C115     1.0000 0.54940  0.73560  0.55500  Biso   1.000  C
  H78      1.0000 0.56160  0.70580  0.59300  Biso   1.000  H
  C116     1.0000 0.72300  0.95170  0.60330  Biso   1.000  C
  H79      1.0000 0.69880  0.94950  0.59330  Biso   1.000  H
  C117     1.0000 0.73950  0.01310  0.60420  Biso   1.000  C
  H80      1.0000 0.72620  0.05220  0.59870  Biso   1.000  H
  C118     1.0000 0.76570  0.51530  0.37030  Biso   1.000  C
  C119     1.0000 0.78350  0.44770  0.37480  Biso   1.000  C
  C120     1.0000 0.68480  0.80460  0.11790  Biso   1.000  C
  H81      1.0000 0.69870  0.79820  0.06530  Biso   1.000  H
  C121     1.0000 0.71460  0.70390  0.39590  Biso   1.000  C
  C122     1.0000 0.64100  0.80830  0.20540  Biso   1.000  C
  C123     1.0000 0.77570  0.01710  0.61320  Biso   1.000  C
  C124     1.0000 0.73230  0.63830  0.38150  Biso   1.000  C
  C125     1.0000 0.45440  0.77190  0.49300  Biso   1.000  C
  C126     1.0000 0.54870  0.82310  0.44360  Biso   1.000  C
  H82      1.0000 0.56060  0.85390  0.40640  Biso   1.000  H
  C127     1.0000 0.79380  0.08340  0.60630  Biso   1.000  C
  C128     1.0000 0.51210  0.82020  0.44100  Biso   1.000  C
  H83      1.0000 0.49970  0.84940  0.40240  Biso   1.000  H
  C129     1.0000 0.72890  0.51880  0.37050  Biso   1.000  C
  H84      1.0000 0.71560  0.47980  0.36490  Biso   1.000  H
  C130     1.0000 0.49420  0.77550  0.49400  Biso   1.000  C
  C131     1.0000 0.79450  0.95940  0.62870  Biso   1.000  C
  H85      1.0000 0.81880  0.96170  0.63660  Biso   1.000  H
  C132     1.0000 0.76860  0.63420  0.37530  Biso   1.000  C
  H86      1.0000 0.78190  0.67350  0.37390  Biso   1.000  H
  C133     1.0000 0.56750  0.78080  0.50080  Biso   1.000  C
  C134     1.0000 0.60660  0.78200  0.50210  Biso   1.000  C
  C135     1.0000 0.71270  0.57940  0.37900  Biso   1.000  C
  H87      1.0000 0.68830  0.58140  0.38330  Biso   1.000  H
  C136     1.0000 0.68080  0.69280  0.88890  Biso   1.000  C
  C137     1.0000 0.74180  0.89380  0.61700  Biso   1.000  C
  C138     1.0000 0.72480  0.82670  0.61510  Biso   1.000  C
  C139     1.0000 0.51290  0.73450  0.55300  Biso   1.000  C
  H88      1.0000 0.50090  0.70550  0.59250  Biso   1.000  H
  C140     1.0000 0.78530  0.57330  0.37110  Biso   1.000  C
  H89      1.0000 0.80980  0.57120  0.36890  Biso   1.000  H
  O49      1.0000 0.82640  0.08600  0.59390  Biso   1.000  O
  O50      1.0000 0.73760  0.77940  0.65890  Biso   1.000  O
  O51      1.0000 0.77601  0.13650  0.61280  Biso   1.000  O
  O52      1.0000 0.69627  0.81950  0.56800  Biso   1.000  O
  O53      1.0000 0.76470  0.39540  0.36040  Biso   1.000  O
  O54      1.0000 0.43920  0.73870  0.55560  Biso   1.000  O
  O55      1.0000 0.81484  0.44370  0.40070  Biso   1.000  O
  O56      1.0000 0.43880  0.80340  0.43270  Biso   1.000  O
  O57      1.0000 0.62261  0.82010  0.44690  Biso   1.000  O
  O58      1.0000 0.68370  0.70570  0.42910  Biso   1.000  O
  O59      1.0000 0.62113  0.74280  0.55930  Biso   1.000  O
  O60      1.0000 0.73108  0.75710  0.37910  Biso   1.000  O
  N37      1.0000 0.66597  0.70900  0.74280  Biso   1.000  N
  N38      1.0000 0.69301  0.68930  0.80250  Biso   1.000  N
  N39      1.0000 0.64626  0.71320  0.88760  Biso   1.000  N
  N40      1.0000 0.69810  0.67370  0.96070  Biso   1.000  N
  H90      1.0000 0.71900  0.65730  0.95440  Biso   1.000  H
  H91      1.0000 0.68890  0.67720  0.01520  Biso   1.000  H
  N41      1.0000 0.60720  0.80950  0.23750  Biso   1.000  N
  H92      1.0000 0.60310  0.81730  0.29540  Biso   1.000  H
  H93      1.0000 0.59000  0.80250  0.19980  Biso   1.000  H
  N42      1.0000 0.66934  0.81850  0.25740  Biso   1.000  N
  N43      1.0000 0.69823  0.81770  0.19710  Biso   1.000  N
  N44      1.0000 0.64940  0.80050  0.11430  Biso   1.000  N
  N45      1.0000 0.60820  0.73090  0.76710  Biso   1.000  N
  H94      1.0000 0.60400  0.72980  0.70820  Biso   1.000  H
  H95      1.0000 0.59130  0.73880  0.80560  Biso   1.000  H
  Cd21     1.0000 0.11576  0.73933  0.99847  Biso   1.000  Cd
  Cd22     1.0000 0.74773  0.68304  0.74878  Biso   1.000  Cd
  Cd23     1.0000 0.82394  0.79005  0.08963  Biso   1.000  Cd
  Cd24     1.0000 0.81985  0.67015  0.91183  Biso   1.000  Cd
  C141     1.0000 0.86090  0.77890  0.29680  Biso   1.000  C
  C142     1.0000 0.72230  0.60230  0.13270  Biso   1.000  C
  H96      1.0000 0.70960  0.64100  0.14600  Biso   1.000  H
  C143     1.0000 0.95060  0.76440  0.05500  Biso   1.000  C
  H97      1.0000 0.93840  0.79420  0.09300  Biso   1.000  H
  C144     1.0000 0.77700  0.54830  0.10330  Biso   1.000  C
  H98      1.0000 0.80120  0.55050  0.09330  Biso   1.000  H
  C145     1.0000 0.76050  0.48690  0.10420  Biso   1.000  C
  H99      1.0000 0.77380  0.44780  0.09870  Biso   1.000  H
  C146     1.0000 0.73430  0.98470  0.87030  Biso   1.000  C
  C147     1.0000 0.71650  0.05230  0.87480  Biso   1.000  C
  C148     1.0000 0.81520  0.69540  0.61790  Biso   1.000  C
  H100     1.0000 0.80130  0.70180  0.56530  Biso   1.000  H
  C149     1.0000 0.78540  0.79610  0.89590  Biso   1.000  C
  C150     1.0000 0.85900  0.69170  0.70540  Biso   1.000  C
  C151     1.0000 0.72430  0.48290  0.11320  Biso   1.000  C
  C152     1.0000 0.76770  0.86170  0.88150  Biso   1.000  C
  C153     1.0000 0.04560  0.72810  0.99300  Biso   1.000  C
  C154     1.0000 0.95130  0.67690  0.94360  Biso   1.000  C
  H101     1.0000 0.93940  0.64610  0.90640  Biso   1.000  H
  C155     1.0000 0.70620  0.41660  0.10630  Biso   1.000  C
  C156     1.0000 0.98790  0.67980  0.94100  Biso   1.000  C
  H102     1.0000 0.00030  0.65060  0.90240  Biso   1.000  H
  C157     1.0000 0.77110  0.98120  0.87050  Biso   1.000  C
  H103     1.0000 0.78440  0.02020  0.86490  Biso   1.000  H
  C158     1.0000 0.00580  0.72450  0.99400  Biso   1.000  C
  C159     1.0000 0.70550  0.54060  0.12870  Biso   1.000  C
  H104     1.0000 0.68120  0.53830  0.13660  Biso   1.000  H
  C160     1.0000 0.73140  0.86580  0.87530  Biso   1.000  C
  H105     1.0000 0.71810  0.82650  0.87390  Biso   1.000  H
  C161     1.0000 0.93250  0.71920  0.00080  Biso   1.000  C
  C162     1.0000 0.89340  0.71800  0.00210  Biso   1.000  C
  C163     1.0000 0.78730  0.92060  0.87900  Biso   1.000  C
  H106     1.0000 0.81170  0.91860  0.88330  Biso   1.000  H
  C164     1.0000 0.81920  0.80720  0.38890  Biso   1.000  C
  C165     1.0000 0.75820  0.60620  0.11700  Biso   1.000  C
  C166     1.0000 0.77520  0.67330  0.11510  Biso   1.000  C
  C167     1.0000 0.98710  0.76550  0.05300  Biso   1.000  C
  H107     1.0000 0.99910  0.79450  0.09250  Biso   1.000  H
  C168     1.0000 0.71470  0.92670  0.87110  Biso   1.000  C
  H108     1.0000 0.69020  0.92880  0.86890  Biso   1.000  H
  O61      1.0000 0.67360  0.41400  0.09390  Biso   1.000  O
  O62      1.0000 0.76240  0.72060  0.15890  Biso   1.000  O
  O63      1.0000 0.72399  0.36350  0.11280  Biso   1.000  O
  O64      1.0000 0.80373  0.68050  0.06800  Biso   1.000  O
  O65      1.0000 0.73530  0.10460  0.86040  Biso   1.000  O
  O66      1.0000 0.06080  0.76130  0.05560  Biso   1.000  O
  O67      1.0000 0.68516  0.05630  0.90070  Biso   1.000  O
  O68      1.0000 0.06120  0.69660  0.93270  Biso   1.000  O
  O69      1.0000 0.87739  0.67990  0.94690  Biso   1.000  O
  O70      1.0000 0.81630  0.79430  0.92910  Biso   1.000  O
  O71      1.0000 0.87887  0.75720  0.05930  Biso   1.000  O
  O72      1.0000 0.76892  0.74290  0.87910  Biso   1.000  O
  N46      1.0000 0.83403  0.79100  0.24280  Biso   1.000  N
  N47      1.0000 0.80699  0.81070  0.30250  Biso   1.000  N
  N48      1.0000 0.85374  0.78680  0.38760  Biso   1.000  N
  N49      1.0000 0.80190  0.82630  0.46070  Biso   1.000  N
  H109     1.0000 0.78100  0.84270  0.45440  Biso   1.000  H
  H110     1.0000 0.81110  0.82280  0.51520  Biso   1.000  H
  N50      1.0000 0.89280  0.69050  0.73750  Biso   1.000  N
  H111     1.0000 0.89690  0.68270  0.79540  Biso   1.000  H
  H112     1.0000 0.91000  0.69750  0.69980  Biso   1.000  H
  N51      1.0000 0.83066  0.68150  0.75740  Biso   1.000  N
  N52      1.0000 0.80177  0.68230  0.69710  Biso   1.000  N
  N53      1.0000 0.85060  0.69950  0.61430  Biso   1.000  N
  N54      1.0000 0.89180  0.76910  0.26710  Biso   1.000  N
  H113     1.0000 0.89600  0.77020  0.20820  Biso   1.000  H
  H114     1.0000 0.90870  0.76120  0.30560  Biso   1.000  H
  Cd25     1.0000 0.61576  0.76067  0.00153  Biso   1.000  Cd
  Cd26     1.0000 0.24773  0.81696  0.25122  Biso   1.000  Cd
  Cd27     1.0000 0.32394  0.70995  0.91037  Biso   1.000  Cd
  Cd28     1.0000 0.31985  0.82985  0.08817  Biso   1.000  Cd
  C169     1.0000 0.36090  0.72110  0.70320  Biso   1.000  C
  C170     1.0000 0.22230  0.89770  0.86730  Biso   1.000  C
  H115     1.0000 0.20960  0.85900  0.85400  Biso   1.000  H
  C171     1.0000 0.45060  0.73560  0.94500  Biso   1.000  C
  H116     1.0000 0.43840  0.70580  0.90700  Biso   1.000  H
  C172     1.0000 0.27700  0.95170  0.89670  Biso   1.000  C
  H117     1.0000 0.30120  0.94950  0.90670  Biso   1.000  H
  C173     1.0000 0.26050  0.01310  0.89580  Biso   1.000  C
  H118     1.0000 0.27380  0.05220  0.90130  Biso   1.000  H
  C174     1.0000 0.23430  0.51530  0.12970  Biso   1.000  C
  C175     1.0000 0.21650  0.44770  0.12520  Biso   1.000  C
  C176     1.0000 0.31520  0.80460  0.38210  Biso   1.000  C
  H119     1.0000 0.30130  0.79820  0.43470  Biso   1.000  H
  C177     1.0000 0.28540  0.70390  0.10410  Biso   1.000  C
  C178     1.0000 0.35900  0.80830  0.29460  Biso   1.000  C
  C179     1.0000 0.22430  0.01710  0.88680  Biso   1.000  C
  C180     1.0000 0.26770  0.63830  0.11850  Biso   1.000  C
  C181     1.0000 0.54560  0.77190  0.00700  Biso   1.000  C
  C182     1.0000 0.45130  0.82310  0.05640  Biso   1.000  C
  H120     1.0000 0.43940  0.85390  0.09360  Biso   1.000  H
  C183     1.0000 0.20620  0.08340  0.89370  Biso   1.000  C
  C184     1.0000 0.48790  0.82020  0.05900  Biso   1.000  C
  H121     1.0000 0.50030  0.84940  0.09760  Biso   1.000  H
  C185     1.0000 0.27110  0.51880  0.12950  Biso   1.000  C
  H122     1.0000 0.28440  0.47980  0.13510  Biso   1.000  H
  C186     1.0000 0.50580  0.77550  0.00600  Biso   1.000  C
  C187     1.0000 0.20550  0.95940  0.87130  Biso   1.000  C
  H123     1.0000 0.18120  0.96170  0.86340  Biso   1.000  H
  C188     1.0000 0.23140  0.63420  0.12470  Biso   1.000  C
  H124     1.0000 0.21810  0.67350  0.12610  Biso   1.000  H
  C189     1.0000 0.43250  0.78080  0.99920  Biso   1.000  C
  C190     1.0000 0.39340  0.78200  0.99790  Biso   1.000  C
  C191     1.0000 0.28730  0.57940  0.12100  Biso   1.000  C
  H125     1.0000 0.31170  0.58140  0.11670  Biso   1.000  H
  C192     1.0000 0.31920  0.69280  0.61110  Biso   1.000  C
  C193     1.0000 0.25820  0.89380  0.88300  Biso   1.000  C
  C194     1.0000 0.27520  0.82670  0.88490  Biso   1.000  C
  C195     1.0000 0.48710  0.73450  0.94700  Biso   1.000  C
  H126     1.0000 0.49910  0.70550  0.90750  Biso   1.000  H
  C196     1.0000 0.21470  0.57330  0.12890  Biso   1.000  C
  H127     1.0000 0.19020  0.57120  0.13110  Biso   1.000  H
  O73      1.0000 0.17360  0.08600  0.90610  Biso   1.000  O
  O74      1.0000 0.26240  0.77940  0.84110  Biso   1.000  O
  O75      1.0000 0.22399  0.13650  0.88720  Biso   1.000  O
  O76      1.0000 0.30373  0.81950  0.93200  Biso   1.000  O
  O77      1.0000 0.23530  0.39540  0.13960  Biso   1.000  O
  O78      1.0000 0.56080  0.73870  0.94440  Biso   1.000  O
  O79      1.0000 0.18516  0.44370  0.09930  Biso   1.000  O
  O80      1.0000 0.56120  0.80340  0.06730  Biso   1.000  O
  O81      1.0000 0.37739  0.82010  0.05310  Biso   1.000  O
  O82      1.0000 0.31630  0.70570  0.07090  Biso   1.000  O
  O83      1.0000 0.37887  0.74280  0.94070  Biso   1.000  O
  O84      1.0000 0.26892  0.75710  0.12090  Biso   1.000  O
  N55      1.0000 0.33403  0.70900  0.75720  Biso   1.000  N
  N56      1.0000 0.30699  0.68930  0.69750  Biso   1.000  N
  N57      1.0000 0.35374  0.71320  0.61240  Biso   1.000  N
  N58      1.0000 0.30190  0.67370  0.53930  Biso   1.000  N
  H128     1.0000 0.28100  0.65730  0.54560  Biso   1.000  H
  H129     1.0000 0.31110  0.67720  0.48480  Biso   1.000  H
  N59      1.0000 0.39280  0.80950  0.26250  Biso   1.000  N
  H130     1.0000 0.39690  0.81730  0.20460  Biso   1.000  H
  H131     1.0000 0.41000  0.80250  0.30020  Biso   1.000  H
  N60      1.0000 0.33066  0.81850  0.24260  Biso   1.000  N
  N61      1.0000 0.30177  0.81770  0.30290  Biso   1.000  N
  N62      1.0000 0.35060  0.80050  0.38570  Biso   1.000  N
  N63      1.0000 0.39180  0.73090  0.73290  Biso   1.000  N
  H132     1.0000 0.39600  0.72980  0.79180  Biso   1.000  H
  H133     1.0000 0.40870  0.73880  0.69440  Biso   1.000  H
  Cd29     1.0000 0.88424  0.73933  0.50153  Biso   1.000  Cd
  Cd30     1.0000 0.25227  0.68304  0.75122  Biso   1.000  Cd
  Cd31     1.0000 0.17606  0.79005  0.41037  Biso   1.000  Cd
  Cd32     1.0000 0.18015  0.67015  0.58817  Biso   1.000  Cd
  C197     1.0000 0.13910  0.77890  0.20320  Biso   1.000  C
  C198     1.0000 0.27770  0.60230  0.36730  Biso   1.000  C
  H134     1.0000 0.29040  0.64100  0.35400  Biso   1.000  H
  C199     1.0000 0.04940  0.76440  0.44500  Biso   1.000  C
  H135     1.0000 0.06160  0.79420  0.40700  Biso   1.000  H
  C200     1.0000 0.22300  0.54830  0.39670  Biso   1.000  C
  H136     1.0000 0.19880  0.55050  0.40670  Biso   1.000  H
  C201     1.0000 0.23950  0.48690  0.39580  Biso   1.000  C
  H137     1.0000 0.22620  0.44780  0.40130  Biso   1.000  H
  C202     1.0000 0.26570  0.98470  0.62970  Biso   1.000  C
  C203     1.0000 0.28350  0.05230  0.62520  Biso   1.000  C
  C204     1.0000 0.18480  0.69540  0.88210  Biso   1.000  C
  H138     1.0000 0.19870  0.70180  0.93470  Biso   1.000  H
  C205     1.0000 0.21460  0.79610  0.60410  Biso   1.000  C
  C206     1.0000 0.14100  0.69170  0.79460  Biso   1.000  C
  C207     1.0000 0.27570  0.48290  0.38680  Biso   1.000  C
  C208     1.0000 0.23230  0.86170  0.61850  Biso   1.000  C
  C209     1.0000 0.95440  0.72810  0.50700  Biso   1.000  C
  C210     1.0000 0.04870  0.67690  0.55640  Biso   1.000  C
  H139     1.0000 0.06060  0.64610  0.59360  Biso   1.000  H
  C211     1.0000 0.29380  0.41660  0.39370  Biso   1.000  C
  C212     1.0000 0.01210  0.67980  0.55900  Biso   1.000  C
  H140     1.0000 0.99970  0.65060  0.59760  Biso   1.000  H
  C213     1.0000 0.22890  0.98120  0.62950  Biso   1.000  C
  H141     1.0000 0.21560  0.02020  0.63510  Biso   1.000  H
  C214     1.0000 0.99420  0.72450  0.50600  Biso   1.000  C
  C215     1.0000 0.29450  0.54060  0.37130  Biso   1.000  C
  H142     1.0000 0.31880  0.53830  0.36340  Biso   1.000  H
  C216     1.0000 0.26860  0.86580  0.62470  Biso   1.000  C
  H143     1.0000 0.28190  0.82650  0.62610  Biso   1.000  H
  C217     1.0000 0.06750  0.71920  0.49920  Biso   1.000  C
  C218     1.0000 0.10660  0.71800  0.49790  Biso   1.000  C
  C219     1.0000 0.21270  0.92060  0.62100  Biso   1.000  C
  H144     1.0000 0.18830  0.91860  0.61670  Biso   1.000  H
  C220     1.0000 0.18080  0.80720  0.11110  Biso   1.000  C
  C221     1.0000 0.24180  0.60620  0.38300  Biso   1.000  C
  C222     1.0000 0.22480  0.67330  0.38490  Biso   1.000  C
  C223     1.0000 0.01290  0.76550  0.44700  Biso   1.000  C
  H145     1.0000 0.00090  0.79450  0.40750  Biso   1.000  H
  C224     1.0000 0.28530  0.92670  0.62890  Biso   1.000  C
  H146     1.0000 0.30980  0.92880  0.63110  Biso   1.000  H
  O85      1.0000 0.32640  0.41400  0.40610  Biso   1.000  O
  O86      1.0000 0.23760  0.72060  0.34110  Biso   1.000  O
  O87      1.0000 0.27601  0.36350  0.38720  Biso   1.000  O
  O88      1.0000 0.19627  0.68050  0.43200  Biso   1.000  O
  O89      1.0000 0.26470  0.10460  0.63960  Biso   1.000  O
  O90      1.0000 0.93920  0.76130  0.44440  Biso   1.000  O
  O91      1.0000 0.31484  0.05630  0.59930  Biso   1.000  O
  O92      1.0000 0.93880  0.69660  0.56730  Biso   1.000  O
  O93      1.0000 0.12261  0.67990  0.55310  Biso   1.000  O
  O94      1.0000 0.18370  0.79430  0.57090  Biso   1.000  O
  O95      1.0000 0.12113  0.75720  0.44070  Biso   1.000  O
  O96      1.0000 0.23108  0.74290  0.62090  Biso   1.000  O
  N64      1.0000 0.16597  0.79100  0.25720  Biso   1.000  N
  N65      1.0000 0.19301  0.81070  0.19750  Biso   1.000  N
  N66      1.0000 0.14626  0.78680  0.11240  Biso   1.000  N
  N67      1.0000 0.19810  0.82630  0.03930  Biso   1.000  N
  H147     1.0000 0.21900  0.84270  0.04560  Biso   1.000  H
  H148     1.0000 0.18890  0.82280  0.98480  Biso   1.000  H
  N68      1.0000 0.10720  0.69050  0.76250  Biso   1.000  N
  H149     1.0000 0.10310  0.68270  0.70460  Biso   1.000  H
  H150     1.0000 0.09000  0.69750  0.80020  Biso   1.000  H
  N69      1.0000 0.16934  0.68150  0.74260  Biso   1.000  N
  N70      1.0000 0.19823  0.68230  0.80290  Biso   1.000  N
  N71      1.0000 0.14940  0.69950  0.88570  Biso   1.000  N
  N72      1.0000 0.10820  0.76910  0.23290  Biso   1.000  N
  H151     1.0000 0.10400  0.77020  0.29180  Biso   1.000  H
  H152     1.0000 0.09130  0.76120  0.19440  Biso   1.000  H
