data_ic049498msi20040906_121120_clean
_audit_creation_date              2015-08-19
_audit_creation_method            'Materials Studio'
_symmetry_space_group_name_H-M    'P1'
_symmetry_Int_Tables_number       1
_symmetry_cell_setting            triclinic
loop_
_symmetry_equiv_pos_as_xyz
  x,y,z
_cell_length_a                    20.5060
_cell_length_b                    20.5060
_cell_length_c                    20.5060
_cell_angle_alpha                 90.0000
_cell_angle_beta                  90.0000
_cell_angle_gamma                 90.0000
loop_
_atom_site_label
_atom_site_type_symbol
_atom_site_fract_x
_atom_site_fract_y
_atom_site_fract_z
_atom_site_U_iso_or_equiv
_atom_site_adp_type
_atom_site_occupancy
Pr1    Pr    0.02032   0.74228   0.14371   0.01267  Uiso   1.00
Pr2    Pr    0.52032   0.75772   0.85629   0.01267  Uiso   1.00
Pr3    Pr    0.74228   0.35629   0.52032   0.01267  Uiso   1.00
Pr4    Pr    0.14371   0.02032   0.74228   0.01267  Uiso   1.00
Pr5    Pr    0.24228   0.14371   0.47968   0.01267  Uiso   1.00
Pr6    Pr    0.74228   0.14371   0.02032   0.01267  Uiso   1.00
Pr7    Pr    0.97968   0.25772   0.85629   0.01267  Uiso   1.00
Pr8    Pr    0.75772   0.64371   0.02032   0.01267  Uiso   1.00
Pr9    Pr    0.35629   0.97968   0.24228   0.01267  Uiso   1.00
Pr10   Pr    0.52032   0.74228   0.35629   0.01267  Uiso   1.00
Pr11   Pr    0.85629   0.97968   0.25772   0.01267  Uiso   1.00
Pr12   Pr    0.25772   0.64371   0.47968   0.01267  Uiso   1.00
Pr13   Pr    0.64371   0.02032   0.75772   0.01267  Uiso   1.00
Pr14   Pr    0.35629   0.52032   0.74228   0.01267  Uiso   1.00
Pr15   Pr    0.02032   0.75772   0.64371   0.01267  Uiso   1.00
Pr16   Pr    0.14371   0.47968   0.24228   0.01267  Uiso   1.00
Pr17   Pr    0.85629   0.52032   0.75772   0.01267  Uiso   1.00
Pr18   Pr    0.47968   0.25772   0.64371   0.01267  Uiso   1.00
Pr19   Pr    0.47968   0.24228   0.14371   0.01267  Uiso   1.00
Pr20   Pr    0.25772   0.85629   0.97968   0.01267  Uiso   1.00
Pr21   Pr    0.75772   0.85629   0.52032   0.01267  Uiso   1.00
Pr22   Pr    0.97968   0.24228   0.35629   0.01267  Uiso   1.00
Pr23   Pr    0.64371   0.47968   0.25772   0.01267  Uiso   1.00
Pr24   Pr    0.24228   0.35629   0.97968   0.01267  Uiso   1.00
H1     H     0.21670   0.05150   0.01150   0.01267  Uiso   1.00
H2     H     0.88840   0.03900   0.86520   0.01267  Uiso   1.00
H3     H     0.55120   0.30800   0.39440   0.01267  Uiso   1.00
H4     H     0.38840   0.46100   0.13480   0.01267  Uiso   1.00
H5     H     0.94880   0.80800   0.39440   0.01267  Uiso   1.00
H6     H     0.53900   0.63480   0.11160   0.01267  Uiso   1.00
H7     H     0.94880   0.69200   0.89440   0.01267  Uiso   1.00
H8     H     0.48850   0.78330   0.55150   0.01267  Uiso   1.00
H9     H     0.39440   0.94880   0.80800   0.01267  Uiso   1.00
H10    H     0.89440   0.94880   0.69200   0.01267  Uiso   1.00
H11    H     0.28330   0.55150   0.01150   0.01267  Uiso   1.00
H12    H     0.11160   0.53900   0.63480   0.01267  Uiso   1.00
H13    H     0.44880   0.69200   0.60560   0.01267  Uiso   1.00
H14    H     0.05120   0.19200   0.60560   0.01267  Uiso   1.00
H15    H     0.44850   0.51150   0.21670   0.01267  Uiso   1.00
H16    H     0.05150   0.48850   0.71670   0.01267  Uiso   1.00
H17    H     0.96100   0.13480   0.11160   0.01267  Uiso   1.00
H18    H     0.05150   0.01150   0.21670   0.01267  Uiso   1.00
H19    H     0.53900   0.86520   0.61160   0.01267  Uiso   1.00
H20    H     0.69200   0.89440   0.94880   0.01267  Uiso   1.00
H21    H     0.61160   0.96100   0.36520   0.01267  Uiso   1.00
H22    H     0.71670   0.05150   0.48850   0.01267  Uiso   1.00
H23    H     0.48850   0.71670   0.05150   0.01267  Uiso   1.00
H24    H     0.05120   0.30800   0.10560   0.01267  Uiso   1.00
H25    H     0.19200   0.60560   0.05120   0.01267  Uiso   1.00
H26    H     0.13480   0.11160   0.96100   0.01267  Uiso   1.00
H27    H     0.63480   0.38840   0.03900   0.01267  Uiso   1.00
H28    H     0.51150   0.21670   0.44850   0.01267  Uiso   1.00
H29    H     0.60560   0.05120   0.19200   0.01267  Uiso   1.00
H30    H     0.63480   0.11160   0.53900   0.01267  Uiso   1.00
H31    H     0.86520   0.88840   0.03900   0.01267  Uiso   1.00
H32    H     0.21670   0.44850   0.51150   0.01267  Uiso   1.00
H33    H     0.11160   0.96100   0.13480   0.01267  Uiso   1.00
H34    H     0.03900   0.86520   0.88840   0.01267  Uiso   1.00
H35    H     0.44850   0.98850   0.71670   0.01267  Uiso   1.00
H36    H     0.30800   0.10560   0.05120   0.01267  Uiso   1.00
H37    H     0.88840   0.46100   0.36520   0.01267  Uiso   1.00
H38    H     0.30800   0.39440   0.55120   0.01267  Uiso   1.00
H39    H     0.44880   0.80800   0.10560   0.01267  Uiso   1.00
H40    H     0.60560   0.44880   0.69200   0.01267  Uiso   1.00
H41    H     0.10560   0.05120   0.30800   0.01267  Uiso   1.00
H42    H     0.94850   0.98850   0.78330   0.01267  Uiso   1.00
H43    H     0.80800   0.10560   0.44880   0.01267  Uiso   1.00
H44    H     0.13480   0.38840   0.46100   0.01267  Uiso   1.00
H45    H     0.71670   0.44850   0.98850   0.01267  Uiso   1.00
H46    H     0.86520   0.61160   0.53900   0.01267  Uiso   1.00
H47    H     0.98850   0.78330   0.94850   0.01267  Uiso   1.00
H48    H     0.36520   0.88840   0.46100   0.01267  Uiso   1.00
H49    H     0.80800   0.39440   0.94880   0.01267  Uiso   1.00
H50    H     0.78330   0.94850   0.98850   0.01267  Uiso   1.00
H51    H     0.69200   0.60560   0.44880   0.01267  Uiso   1.00
H52    H     0.55150   0.01150   0.28330   0.01267  Uiso   1.00
H53    H     0.36520   0.61160   0.96100   0.01267  Uiso   1.00
H54    H     0.51150   0.28330   0.94850   0.01267  Uiso   1.00
H55    H     0.55150   0.48850   0.78330   0.01267  Uiso   1.00
H56    H     0.46100   0.36520   0.88840   0.01267  Uiso   1.00
H57    H     0.10560   0.44880   0.80800   0.01267  Uiso   1.00
H58    H     0.89440   0.55120   0.19200   0.01267  Uiso   1.00
H59    H     0.94850   0.51150   0.28330   0.01267  Uiso   1.00
H60    H     0.61160   0.53900   0.86520   0.01267  Uiso   1.00
H61    H     0.19200   0.89440   0.55120   0.01267  Uiso   1.00
H62    H     0.01150   0.21670   0.05150   0.01267  Uiso   1.00
H63    H     0.38840   0.03900   0.63480   0.01267  Uiso   1.00
H64    H     0.46100   0.13480   0.38840   0.01267  Uiso   1.00
H65    H     0.01150   0.28330   0.55150   0.01267  Uiso   1.00
H66    H     0.78330   0.55150   0.48850   0.01267  Uiso   1.00
H67    H     0.98850   0.71670   0.44850   0.01267  Uiso   1.00
H68    H     0.28330   0.94850   0.51150   0.01267  Uiso   1.00
H69    H     0.03900   0.63480   0.38840   0.01267  Uiso   1.00
H70    H     0.96100   0.36520   0.61160   0.01267  Uiso   1.00
H71    H     0.39440   0.55120   0.30800   0.01267  Uiso   1.00
H72    H     0.55120   0.19200   0.89440   0.01267  Uiso   1.00
C1     C     0.83345   0.26318   0.95008   0.01267  Uiso   1.00
C2     C     0.62880   0.24226   0.56015   0.01267  Uiso   1.00
C3     C     0.80429   0.97495   0.72238   0.01267  Uiso   1.00
C4     C     0.63230   0.97750   0.32840   0.01267  Uiso   1.00
C5     C     0.72040   0.40350   0.99250   0.01267  Uiso   1.00
C6     C     0.00750   0.27960   0.59650   0.01267  Uiso   1.00
C7     C     0.77762   0.19571   0.47495   0.01267  Uiso   1.00
C8     C     0.43985   0.37120   0.75774   0.01267  Uiso   1.00
C9     C     0.13230   0.52250   0.67160   0.01267  Uiso   1.00
C10    C     0.32167   0.69880   0.97238   0.01267  Uiso   1.00
C11    C     0.26318   0.54992   0.33345   0.01267  Uiso   1.00
C12    C     0.22040   0.09650   0.00750   0.01267  Uiso   1.00
C13    C     0.19571   0.02505   0.27762   0.01267  Uiso   1.00
C14    C     0.02505   0.22238   0.69571   0.01267  Uiso   1.00
C15    C     0.69571   0.47495   0.72238   0.01267  Uiso   1.00
C16    C     0.47750   0.17160   0.36770   0.01267  Uiso   1.00
C17    C     0.22560   0.62860   0.03130   0.01267  Uiso   1.00
C18    C     0.73682   0.04992   0.16655   0.01267  Uiso   1.00
C19    C     0.99250   0.72040   0.40350   0.01267  Uiso   1.00
C20    C     0.52250   0.82840   0.63230   0.01267  Uiso   1.00
C21    C     0.52505   0.27762   0.30429   0.01267  Uiso   1.00
C22    C     0.27440   0.12860   0.03130   0.01267  Uiso   1.00
C23    C     0.77762   0.30429   0.97495   0.01267  Uiso   1.00
C24    C     0.12860   0.46870   0.77440   0.01267  Uiso   1.00
C25    C     0.09650   0.49250   0.72040   0.01267  Uiso   1.00
C26    C     0.67833   0.30120   0.02762   0.01267  Uiso   1.00
C27    C     0.95008   0.66655   0.76318   0.01267  Uiso   1.00
C28    C     0.45008   0.66655   0.73682   0.01267  Uiso   1.00
C29    C     0.56015   0.62880   0.24226   0.01267  Uiso   1.00
C30    C     0.97495   0.77762   0.30429   0.01267  Uiso   1.00
C31    C     0.46870   0.77440   0.12860   0.01267  Uiso   1.00
C32    C     0.24226   0.93985   0.12880   0.01267  Uiso   1.00
C33    C     0.50750   0.22040   0.40350   0.01267  Uiso   1.00
C34    C     0.59650   0.00750   0.27960   0.01267  Uiso   1.00
C35    C     0.32167   0.80120   0.47238   0.01267  Uiso   1.00
C36    C     0.69571   0.02505   0.22238   0.01267  Uiso   1.00
C37    C     0.52762   0.67833   0.19880   0.01267  Uiso   1.00
C38    C     0.72238   0.69571   0.47495   0.01267  Uiso   1.00
C39    C     0.37140   0.96870   0.77440   0.01267  Uiso   1.00
C40    C     0.27762   0.30429   0.52505   0.01267  Uiso   1.00
C41    C     0.72560   0.62860   0.46870   0.01267  Uiso   1.00
C42    C     0.25774   0.06015   0.62880   0.01267  Uiso   1.00
C43    C     0.87140   0.96870   0.72560   0.01267  Uiso   1.00
C44    C     0.72238   0.80429   0.97495   0.01267  Uiso   1.00
C45    C     0.33345   0.23682   0.04992   0.01267  Uiso   1.00
C46    C     0.12860   0.03130   0.27440   0.01267  Uiso   1.00
C47    C     0.52762   0.82167   0.69880   0.01267  Uiso   1.00
C48    C     0.27762   0.19571   0.02505   0.01267  Uiso   1.00
C49    C     0.77440   0.12860   0.46870   0.01267  Uiso   1.00
C50    C     0.30429   0.52505   0.27762   0.01267  Uiso   1.00
C51    C     0.83345   0.23682   0.45008   0.01267  Uiso   1.00
C52    C     0.99250   0.77960   0.90350   0.01267  Uiso   1.00
C53    C     0.53130   0.27440   0.37140   0.01267  Uiso   1.00
C54    C     0.12880   0.24226   0.93985   0.01267  Uiso   1.00
C55    C     0.12880   0.25774   0.43985   0.01267  Uiso   1.00
C56    C     0.17833   0.30120   0.47238   0.01267  Uiso   1.00
C57    C     0.90350   0.99250   0.77960   0.01267  Uiso   1.00
C58    C     0.86770   0.47750   0.32840   0.01267  Uiso   1.00
C59    C     0.04992   0.16655   0.73682   0.01267  Uiso   1.00
C60    C     0.17160   0.36770   0.47750   0.01267  Uiso   1.00
C61    C     0.13230   0.97750   0.17160   0.01267  Uiso   1.00
C62    C     0.22040   0.40350   0.50750   0.01267  Uiso   1.00
C63    C     0.87120   0.74226   0.56015   0.01267  Uiso   1.00
C64    C     0.40350   0.50750   0.22040   0.01267  Uiso   1.00
C65    C     0.17160   0.13230   0.97750   0.01267  Uiso   1.00
C66    C     0.69880   0.52762   0.82167   0.01267  Uiso   1.00
C67    C     0.30120   0.02762   0.67833   0.01267  Uiso   1.00
C68    C     0.97238   0.32167   0.69880   0.01267  Uiso   1.00
C69    C     0.23682   0.04992   0.33345   0.01267  Uiso   1.00
C70    C     0.62860   0.46870   0.72560   0.01267  Uiso   1.00
C71    C     0.06015   0.62880   0.25774   0.01267  Uiso   1.00
C72    C     0.97238   0.17833   0.19880   0.01267  Uiso   1.00
C73    C     0.32840   0.63230   0.97750   0.01267  Uiso   1.00
C74    C     0.76318   0.54992   0.16655   0.01267  Uiso   1.00
C75    C     0.47238   0.32167   0.80120   0.01267  Uiso   1.00
C76    C     0.56015   0.87120   0.74226   0.01267  Uiso   1.00
C77    C     0.37120   0.75774   0.43985   0.01267  Uiso   1.00
C78    C     0.16655   0.76318   0.54992   0.01267  Uiso   1.00
C79    C     0.77960   0.90350   0.99250   0.01267  Uiso   1.00
C80    C     0.72560   0.87140   0.96870   0.01267  Uiso   1.00
C81    C     0.22238   0.80429   0.52505   0.01267  Uiso   1.00
C82    C     0.24226   0.56015   0.62880   0.01267  Uiso   1.00
C83    C     0.19880   0.52762   0.67833   0.01267  Uiso   1.00
C84    C     0.67833   0.19880   0.52762   0.01267  Uiso   1.00
C85    C     0.97495   0.72238   0.80429   0.01267  Uiso   1.00
C86    C     0.45008   0.83345   0.23682   0.01267  Uiso   1.00
C87    C     0.03130   0.22560   0.62860   0.01267  Uiso   1.00
C88    C     0.86770   0.02250   0.82840   0.01267  Uiso   1.00
C89    C     0.96870   0.72560   0.87140   0.01267  Uiso   1.00
C90    C     0.62880   0.25774   0.06015   0.01267  Uiso   1.00
C91    C     0.16655   0.73682   0.04992   0.01267  Uiso   1.00
C92    C     0.40350   0.99250   0.72040   0.01267  Uiso   1.00
C93    C     0.67160   0.36770   0.02250   0.01267  Uiso   1.00
C94    C     0.37140   0.53130   0.27440   0.01267  Uiso   1.00
C95    C     0.02762   0.82167   0.80120   0.01267  Uiso   1.00
C96    C     0.97750   0.32840   0.63230   0.01267  Uiso   1.00
C97    C     0.22238   0.69571   0.02505   0.01267  Uiso   1.00
C98    C     0.82840   0.86770   0.02250   0.01267  Uiso   1.00
C99    C     0.49250   0.72040   0.09650   0.01267  Uiso   1.00
C100   C     0.82167   0.69880   0.52762   0.01267  Uiso   1.00
C101   C     0.37120   0.74226   0.93985   0.01267  Uiso   1.00
C102   C     0.95008   0.83345   0.26318   0.01267  Uiso   1.00
C103   C     0.04992   0.33345   0.23682   0.01267  Uiso   1.00
C104   C     0.54992   0.33345   0.26318   0.01267  Uiso   1.00
C105   C     0.93985   0.37120   0.74226   0.01267  Uiso   1.00
C106   C     0.36770   0.02250   0.67160   0.01267  Uiso   1.00
C107   C     0.62860   0.03130   0.22560   0.01267  Uiso   1.00
C108   C     0.23682   0.45008   0.83345   0.01267  Uiso   1.00
C109   C     0.47238   0.17833   0.30120   0.01267  Uiso   1.00
C110   C     0.02250   0.67160   0.36770   0.01267  Uiso   1.00
C111   C     0.30120   0.47238   0.17833   0.01267  Uiso   1.00
C112   C     0.02762   0.67833   0.30120   0.01267  Uiso   1.00
C113   C     0.80120   0.47238   0.32167   0.01267  Uiso   1.00
C114   C     0.27960   0.90350   0.50750   0.01267  Uiso   1.00
C115   C     0.82840   0.63230   0.52250   0.01267  Uiso   1.00
C116   C     0.80120   0.02762   0.82167   0.01267  Uiso   1.00
C117   C     0.66655   0.76318   0.95008   0.01267  Uiso   1.00
C118   C     0.19880   0.97238   0.17833   0.01267  Uiso   1.00
C119   C     0.43985   0.12880   0.25774   0.01267  Uiso   1.00
C120   C     0.52505   0.22238   0.80429   0.01267  Uiso   1.00
C121   C     0.00750   0.22040   0.09650   0.01267  Uiso   1.00
C122   C     0.36770   0.47750   0.17160   0.01267  Uiso   1.00
C123   C     0.27960   0.59650   0.00750   0.01267  Uiso   1.00
C124   C     0.46870   0.72560   0.62860   0.01267  Uiso   1.00
C125   C     0.80429   0.52505   0.22238   0.01267  Uiso   1.00
C126   C     0.47750   0.32840   0.86770   0.01267  Uiso   1.00
C127   C     0.47495   0.72238   0.69571   0.01267  Uiso   1.00
C128   C     0.33345   0.26318   0.54992   0.01267  Uiso   1.00
C129   C     0.26318   0.95008   0.83345   0.01267  Uiso   1.00
C130   C     0.75774   0.43985   0.37120   0.01267  Uiso   1.00
C131   C     0.97750   0.17160   0.13230   0.01267  Uiso   1.00
C132   C     0.72040   0.09650   0.49250   0.01267  Uiso   1.00
C133   C     0.69880   0.97238   0.32167   0.01267  Uiso   1.00
C134   C     0.02505   0.27762   0.19571   0.01267  Uiso   1.00
C135   C     0.63230   0.52250   0.82840   0.01267  Uiso   1.00
C136   C     0.02250   0.82840   0.86770   0.01267  Uiso   1.00
C137   C     0.52250   0.67160   0.13230   0.01267  Uiso   1.00
C138   C     0.87140   0.53130   0.22560   0.01267  Uiso   1.00
C139   C     0.73682   0.45008   0.66655   0.01267  Uiso   1.00
C140   C     0.27440   0.37140   0.53130   0.01267  Uiso   1.00
C141   C     0.77440   0.37140   0.96870   0.01267  Uiso   1.00
C142   C     0.19571   0.47495   0.77762   0.01267  Uiso   1.00
C143   C     0.74226   0.93985   0.37120   0.01267  Uiso   1.00
C144   C     0.93985   0.12880   0.24226   0.01267  Uiso   1.00
C145   C     0.90350   0.50750   0.27960   0.01267  Uiso   1.00
C146   C     0.49250   0.77960   0.59650   0.01267  Uiso   1.00
C147   C     0.30429   0.97495   0.77762   0.01267  Uiso   1.00
C148   C     0.47495   0.77762   0.19571   0.01267  Uiso   1.00
C149   C     0.96870   0.77440   0.37140   0.01267  Uiso   1.00
C150   C     0.06015   0.87120   0.75774   0.01267  Uiso   1.00
C151   C     0.17833   0.19880   0.97238   0.01267  Uiso   1.00
C152   C     0.75774   0.06015   0.87120   0.01267  Uiso   1.00
C153   C     0.74226   0.56015   0.87120   0.01267  Uiso   1.00
C154   C     0.22560   0.87140   0.53130   0.01267  Uiso   1.00
C155   C     0.32840   0.86770   0.47750   0.01267  Uiso   1.00
C156   C     0.77960   0.59650   0.49250   0.01267  Uiso   1.00
C157   C     0.76318   0.95008   0.66655   0.01267  Uiso   1.00
C158   C     0.50750   0.27960   0.90350   0.01267  Uiso   1.00
C159   C     0.67160   0.13230   0.52250   0.01267  Uiso   1.00
C160   C     0.82167   0.80120   0.02762   0.01267  Uiso   1.00
C161   C     0.09650   0.00750   0.22040   0.01267  Uiso   1.00
C162   C     0.03130   0.27440   0.12860   0.01267  Uiso   1.00
C163   C     0.54992   0.16655   0.76318   0.01267  Uiso   1.00
C164   C     0.66655   0.73682   0.45008   0.01267  Uiso   1.00
C165   C     0.25774   0.43985   0.12880   0.01267  Uiso   1.00
C166   C     0.59650   0.49250   0.77960   0.01267  Uiso   1.00
C167   C     0.53130   0.22560   0.87140   0.01267  Uiso   1.00
C168   C     0.87120   0.75774   0.06015   0.01267  Uiso   1.00
N1     N     0.23089   0.23016   0.99532   0.01267  Uiso   1.00
N2     N     0.76911   0.76984   0.00468   0.01267  Uiso   1.00
N3     N     0.73016   0.99532   0.26911   0.01267  Uiso   1.00
N4     N     0.73016   0.50468   0.76911   0.01267  Uiso   1.00
N5     N     0.23016   0.50468   0.73089   0.01267  Uiso   1.00
N6     N     0.99532   0.26911   0.73016   0.01267  Uiso   1.00
N7     N     0.00468   0.73089   0.26984   0.01267  Uiso   1.00
N8     N     0.00468   0.76911   0.76984   0.01267  Uiso   1.00
N9     N     0.73089   0.23016   0.50468   0.01267  Uiso   1.00
N10    N     0.49532   0.26911   0.76984   0.01267  Uiso   1.00
N11    N     0.26911   0.76984   0.49532   0.01267  Uiso   1.00
N12    N     0.76984   0.00468   0.76911   0.01267  Uiso   1.00
N13    N     0.50468   0.73089   0.23016   0.01267  Uiso   1.00
N14    N     0.26984   0.00468   0.73089   0.01267  Uiso   1.00
N15    N     0.26911   0.73016   0.99532   0.01267  Uiso   1.00
N16    N     0.23089   0.26984   0.49532   0.01267  Uiso   1.00
N17    N     0.73089   0.26984   0.00468   0.01267  Uiso   1.00
N18    N     0.23016   0.99532   0.23089   0.01267  Uiso   1.00
N19    N     0.76911   0.73016   0.50468   0.01267  Uiso   1.00
N20    N     0.50468   0.76911   0.73016   0.01267  Uiso   1.00
N21    N     0.99532   0.23089   0.23016   0.01267  Uiso   1.00
N22    N     0.76984   0.49532   0.26911   0.01267  Uiso   1.00
N23    N     0.49532   0.23089   0.26984   0.01267  Uiso   1.00
N24    N     0.26984   0.49532   0.23089   0.01267  Uiso   1.00
O1     O     0.58032   0.57739   0.21764   0.01267  Uiso   1.00
O2     O     0.41968   0.42261   0.78236   0.01267  Uiso   1.00
O3     O     0.35608   0.69787   0.43546   0.01267  Uiso   1.00
O4     O     0.58464   0.37571   0.28916   0.01267  Uiso   1.00
O5     O     0.42261   0.71764   0.91968   0.01267  Uiso   1.00
O6     O     0.78236   0.41968   0.42261   0.01267  Uiso   1.00
O7     O     0.06454   0.85608   0.69787   0.01267  Uiso   1.00
O8     O     0.28916   0.58464   0.37571   0.01267  Uiso   1.00
O9     O     0.83226   0.29638   0.46669   0.01267  Uiso   1.00
O10    O     0.69787   0.43546   0.35608   0.01267  Uiso   1.00
O11    O     0.03331   0.16774   0.79638   0.01267  Uiso   1.00
O12    O     0.70362   0.96669   0.66774   0.01267  Uiso   1.00
O13    O     0.12429   0.71084   0.08464   0.01267  Uiso   1.00
O14    O     0.91968   0.07739   0.21764   0.01267  Uiso   1.00
O15    O     0.43546   0.35608   0.69787   0.01267  Uiso   1.00
O16    O     0.80213   0.56454   0.85608   0.01267  Uiso   1.00
O17    O     0.28236   0.41968   0.07739   0.01267  Uiso   1.00
O18    O     0.62429   0.71084   0.41536   0.01267  Uiso   1.00
O19    O     0.71084   0.08464   0.12429   0.01267  Uiso   1.00
O20    O     0.33226   0.29638   0.03331   0.01267  Uiso   1.00
O21    O     0.78236   0.08032   0.92261   0.01267  Uiso   1.00
O22    O     0.53331   0.33226   0.20362   0.01267  Uiso   1.00
O23    O     0.66774   0.70362   0.96669   0.01267  Uiso   1.00
O24    O     0.96669   0.83226   0.20362   0.01267  Uiso   1.00
O25    O     0.28916   0.91536   0.87571   0.01267  Uiso   1.00
O26    O     0.19787   0.43546   0.14392   0.01267  Uiso   1.00
O27    O     0.87571   0.28916   0.91536   0.01267  Uiso   1.00
O28    O     0.14392   0.30213   0.93546   0.01267  Uiso   1.00
O29    O     0.71764   0.91968   0.42261   0.01267  Uiso   1.00
O30    O     0.43546   0.14392   0.19787   0.01267  Uiso   1.00
O31    O     0.20362   0.53331   0.33226   0.01267  Uiso   1.00
O32    O     0.30213   0.93546   0.14392   0.01267  Uiso   1.00
O33    O     0.85608   0.69787   0.06454   0.01267  Uiso   1.00
O34    O     0.16774   0.70362   0.53331   0.01267  Uiso   1.00
O35    O     0.56454   0.85608   0.80213   0.01267  Uiso   1.00
O36    O     0.37571   0.28916   0.58464   0.01267  Uiso   1.00
O37    O     0.41968   0.07739   0.28236   0.01267  Uiso   1.00
O38    O     0.93546   0.35608   0.80213   0.01267  Uiso   1.00
O39    O     0.64392   0.19787   0.06454   0.01267  Uiso   1.00
O40    O     0.71084   0.41536   0.62429   0.01267  Uiso   1.00
O41    O     0.28236   0.08032   0.57739   0.01267  Uiso   1.00
O42    O     0.96669   0.66774   0.70362   0.01267  Uiso   1.00
O43    O     0.21084   0.41536   0.87571   0.01267  Uiso   1.00
O44    O     0.41536   0.62429   0.71084   0.01267  Uiso   1.00
O45    O     0.56454   0.64392   0.30213   0.01267  Uiso   1.00
O46    O     0.03331   0.33226   0.29638   0.01267  Uiso   1.00
O47    O     0.29638   0.03331   0.33226   0.01267  Uiso   1.00
O48    O     0.70362   0.53331   0.16774   0.01267  Uiso   1.00
O49    O     0.21764   0.58032   0.57739   0.01267  Uiso   1.00
O50    O     0.87571   0.21084   0.41536   0.01267  Uiso   1.00
O51    O     0.92261   0.71764   0.58032   0.01267  Uiso   1.00
O52    O     0.69787   0.06454   0.85608   0.01267  Uiso   1.00
O53    O     0.20362   0.96669   0.83226   0.01267  Uiso   1.00
O54    O     0.92261   0.78236   0.08032   0.01267  Uiso   1.00
O55    O     0.79638   0.46669   0.66774   0.01267  Uiso   1.00
O56    O     0.16774   0.79638   0.03331   0.01267  Uiso   1.00
O57    O     0.08464   0.37571   0.21084   0.01267  Uiso   1.00
O58    O     0.08032   0.57739   0.28236   0.01267  Uiso   1.00
O59    O     0.21084   0.08464   0.37571   0.01267  Uiso   1.00
O60    O     0.35608   0.80213   0.93546   0.01267  Uiso   1.00
O61    O     0.06454   0.64392   0.19787   0.01267  Uiso   1.00
O62    O     0.21764   0.91968   0.07739   0.01267  Uiso   1.00
O63    O     0.83226   0.20362   0.96669   0.01267  Uiso   1.00
O64    O     0.79638   0.03331   0.16774   0.01267  Uiso   1.00
O65    O     0.46669   0.66774   0.79638   0.01267  Uiso   1.00
O66    O     0.78916   0.58464   0.12429   0.01267  Uiso   1.00
O67    O     0.19787   0.06454   0.64392   0.01267  Uiso   1.00
O68    O     0.07739   0.28236   0.41968   0.01267  Uiso   1.00
O69    O     0.53331   0.16774   0.70362   0.01267  Uiso   1.00
O70    O     0.07739   0.21764   0.91968   0.01267  Uiso   1.00
O71    O     0.64392   0.30213   0.56454   0.01267  Uiso   1.00
O72    O     0.66774   0.79638   0.46669   0.01267  Uiso   1.00
O73    O     0.80213   0.93546   0.35608   0.01267  Uiso   1.00
O74    O     0.78916   0.91536   0.62429   0.01267  Uiso   1.00
O75    O     0.30213   0.56454   0.64392   0.01267  Uiso   1.00
O76    O     0.57739   0.28236   0.08032   0.01267  Uiso   1.00
O77    O     0.29638   0.46669   0.83226   0.01267  Uiso   1.00
O78    O     0.91968   0.42261   0.71764   0.01267  Uiso   1.00
O79    O     0.41536   0.87571   0.21084   0.01267  Uiso   1.00
O80    O     0.46669   0.83226   0.29638   0.01267  Uiso   1.00
O81    O     0.57739   0.21764   0.58032   0.01267  Uiso   1.00
O82    O     0.58464   0.12429   0.78916   0.01267  Uiso   1.00
O83    O     0.93546   0.14392   0.30213   0.01267  Uiso   1.00
O84    O     0.42261   0.78236   0.41968   0.01267  Uiso   1.00
O85    O     0.91536   0.62429   0.78916   0.01267  Uiso   1.00
O86    O     0.08464   0.12429   0.71084   0.01267  Uiso   1.00
O87    O     0.14392   0.19787   0.43546   0.01267  Uiso   1.00
O88    O     0.91536   0.87571   0.28916   0.01267  Uiso   1.00
O89    O     0.71764   0.58032   0.92261   0.01267  Uiso   1.00
O90    O     0.33226   0.20362   0.53331   0.01267  Uiso   1.00
O91    O     0.12429   0.78916   0.58464   0.01267  Uiso   1.00
O92    O     0.08032   0.92261   0.78236   0.01267  Uiso   1.00
O93    O     0.58032   0.92261   0.71764   0.01267  Uiso   1.00
O94    O     0.37571   0.21084   0.08464   0.01267  Uiso   1.00
O95    O     0.62429   0.78916   0.91536   0.01267  Uiso   1.00
O96    O     0.85608   0.80213   0.56454   0.01267  Uiso   1.00
