data_ic051143vsi20050711_050730_clean
_audit_creation_date              2015-08-19
_audit_creation_method            'Materials Studio'
_symmetry_space_group_name_H-M    'P1'
_symmetry_Int_Tables_number       1
_symmetry_cell_setting            triclinic
loop_
_symmetry_equiv_pos_as_xyz
  x,y,z
_cell_length_a                    9.7651
_cell_length_b                    9.7651
_cell_length_c                    11.3280
_cell_angle_alpha                 104.5780
_cell_angle_beta                  104.5780
_cell_angle_gamma                 94.3408
loop_
_atom_site_label
_atom_site_type_symbol
_atom_site_fract_x
_atom_site_fract_y
_atom_site_fract_z
_atom_site_U_iso_or_equiv
_atom_site_adp_type
_atom_site_occupancy
Na1    Na    0.00000   0.00000   0.00000   0.01267  Uiso   1.00
Na2    Na    0.00000   0.00000   0.50000   0.01267  Uiso   1.00
Zn1    Zn    0.88503   0.11497   0.75000   0.01267  Uiso   1.00
Zn2    Zn    0.11497   0.88503   0.25000   0.01267  Uiso   1.00
H1     H     0.75300   0.50140   0.28820   0.01267  Uiso   1.00
H2     H     0.50140   0.75300   0.78820   0.01267  Uiso   1.00
H3     H     0.24700   0.49860   0.71180   0.01267  Uiso   1.00
H4     H     0.73020   0.78700   0.92300   0.01267  Uiso   1.00
H5     H     0.78740   0.30920   0.36980   0.01267  Uiso   1.00
H6     H     0.87850   0.57010   0.72170   0.01267  Uiso   1.00
H7     H     0.57010   0.87850   0.22170   0.01267  Uiso   1.00
H8     H     0.42990   0.12150   0.77830   0.01267  Uiso   1.00
H9     H     0.21260   0.69080   0.63020   0.01267  Uiso   1.00
H10    H     0.69080   0.21260   0.13020   0.01267  Uiso   1.00
H11    H     0.12150   0.42990   0.27830   0.01267  Uiso   1.00
H12    H     0.78700   0.73020   0.42300   0.01267  Uiso   1.00
H13    H     0.30920   0.78740   0.86980   0.01267  Uiso   1.00
H14    H     0.21300   0.26980   0.57700   0.01267  Uiso   1.00
H15    H     0.49860   0.24700   0.21180   0.01267  Uiso   1.00
H16    H     0.26980   0.21300   0.07700   0.01267  Uiso   1.00
C1     C     0.42030   0.83650   0.05340   0.01267  Uiso   1.00
C2     C     0.14190   0.70570   0.39470   0.01267  Uiso   1.00
C3     C     0.51570   0.77970   0.87570   0.01267  Uiso   1.00
C4     C     0.57970   0.16350   0.94660   0.01267  Uiso   1.00
C5     C     0.70570   0.14190   0.89470   0.01267  Uiso   1.00
C6     C     0.22030   0.48430   0.62430   0.01267  Uiso   1.00
C7     C     0.20060   0.34740   0.54380   0.01267  Uiso   1.00
C8     C     0.44330   0.14530   0.86570   0.01267  Uiso   1.00
C9     C     0.13680   0.17860   0.32330   0.01267  Uiso   1.00
C10    C     0.65260   0.79940   0.95620   0.01267  Uiso   1.00
C11    C     0.79930   0.40070   0.42450   0.01267  Uiso   1.00
C12    C     0.82140   0.86320   0.17670   0.01267  Uiso   1.00
C13    C     0.20070   0.59930   0.57550   0.01267  Uiso   1.00
C14    C     0.32620   0.16220   0.91350   0.01267  Uiso   1.00
C15    C     0.59930   0.20070   0.07550   0.01267  Uiso   1.00
C16    C     0.29430   0.85810   0.10530   0.01267  Uiso   1.00
C17    C     0.55670   0.85470   0.13430   0.01267  Uiso   1.00
C18    C     0.17860   0.13680   0.82330   0.01267  Uiso   1.00
C19    C     0.40070   0.79930   0.92450   0.01267  Uiso   1.00
C20    C     0.14530   0.44330   0.36570   0.01267  Uiso   1.00
C21    C     0.79940   0.65260   0.45620   0.01267  Uiso   1.00
C22    C     0.77970   0.51570   0.37570   0.01267  Uiso   1.00
C23    C     0.16220   0.32620   0.41350   0.01267  Uiso   1.00
C24    C     0.86320   0.82140   0.67670   0.01267  Uiso   1.00
C25    C     0.83650   0.42030   0.55340   0.01267  Uiso   1.00
C26    C     0.83780   0.67380   0.58650   0.01267  Uiso   1.00
C27    C     0.34740   0.20060   0.04380   0.01267  Uiso   1.00
C28    C     0.85470   0.55670   0.63430   0.01267  Uiso   1.00
C29    C     0.67380   0.83780   0.08650   0.01267  Uiso   1.00
C30    C     0.85810   0.29430   0.60530   0.01267  Uiso   1.00
C31    C     0.48430   0.22030   0.12430   0.01267  Uiso   1.00
C32    C     0.16350   0.57970   0.44660   0.01267  Uiso   1.00
O1     O     0.31380   0.88640   0.22350   0.01267  Uiso   1.00
O2     O     0.85654   0.92458   0.62550   0.01267  Uiso   1.00
O3     O     0.17370   0.84450   0.03150   0.01267  Uiso   1.00
O4     O     0.82630   0.15550   0.96850   0.01267  Uiso   1.00
O5     O     0.68620   0.11360   0.77650   0.01267  Uiso   1.00
O6     O     0.11260   0.16260   0.20840   0.01267  Uiso   1.00
O7     O     0.11360   0.68620   0.27650   0.01267  Uiso   1.00
O8     O     0.84450   0.17370   0.53150   0.01267  Uiso   1.00
O9     O     0.14346   0.07542   0.37450   0.01267  Uiso   1.00
O10    O     0.88640   0.31380   0.72350   0.01267  Uiso   1.00
O11    O     0.16260   0.11260   0.70840   0.01267  Uiso   1.00
O12    O     0.15550   0.82630   0.46850   0.01267  Uiso   1.00
O13    O     0.07542   0.14346   0.87450   0.01267  Uiso   1.00
O14    O     0.88740   0.83740   0.79160   0.01267  Uiso   1.00
O15    O     0.83740   0.88740   0.29160   0.01267  Uiso   1.00
O16    O     0.92458   0.85654   0.12550   0.01267  Uiso   1.00
