data_image0
_cell_length_a       7.0479
_cell_length_b       15.307
_cell_length_c       17.537
_cell_angle_alpha    90
_cell_angle_beta     90
_cell_angle_gamma    90

_symmetry_space_group_name_H-M    "P 1"
_symmetry_int_tables_number       1

loop_
  _symmetry_equiv_pos_as_xyz
  'x, y, z'

loop_
  _atom_site_label
  _atom_site_occupancy
  _atom_site_fract_x
  _atom_site_fract_y
  _atom_site_fract_z
  _atom_site_thermal_displace_type
  _atom_site_B_iso_or_equiv
  _atom_site_type_symbol
  P1       1.0000 0.25542  0.13521  0.40046  Biso   1.000  P
  O1       1.0000 0.29900  0.14619  0.31612  Biso   1.000  O
  O2       1.0000 0.43380  0.10747  0.44377  Biso   1.000  O
  O3       1.0000 0.09020  0.07294  0.41373  Biso   1.000  O
  O4       1.0000 0.37280  0.36590  0.45750  Biso   1.000  O
  O5       1.0000 0.31220  0.33010  0.33850  Biso   1.000  O
  C1       1.0000 0.29800  0.31700  0.41150  Biso   1.000  C
  C2       1.0000 0.18190  0.24010  0.43720  Biso   1.000  C
  H1       1.0000 0.05110  0.24990  0.42230  Biso   1.000  H
  H2       1.0000 0.18550  0.23770  0.49240  Biso   1.000  H
  P2       1.0000 0.24458  0.86479  0.40046  Biso   1.000  P
  O6       1.0000 0.20100  0.85381  0.31612  Biso   1.000  O
  O7       1.0000 0.06620  0.89253  0.44377  Biso   1.000  O
  O8       1.0000 0.40980  0.92706  0.41373  Biso   1.000  O
  O9       1.0000 0.12720  0.63410  0.45750  Biso   1.000  O
  O10      1.0000 0.18780  0.66990  0.33850  Biso   1.000  O
  C3       1.0000 0.20200  0.68300  0.41150  Biso   1.000  C
  C4       1.0000 0.31810  0.75990  0.43720  Biso   1.000  C
  H3       1.0000 0.44890  0.75010  0.42230  Biso   1.000  H
  H4       1.0000 0.31450  0.76230  0.49240  Biso   1.000  H
  P3       1.0000 0.24458  0.63521  0.09954  Biso   1.000  P
  O11      1.0000 0.20100  0.64619  0.18388  Biso   1.000  O
  O12      1.0000 0.06620  0.60747  0.05623  Biso   1.000  O
  O13      1.0000 0.40980  0.57294  0.08627  Biso   1.000  O
  O14      1.0000 0.12720  0.86590  0.04250  Biso   1.000  O
  O15      1.0000 0.18780  0.83010  0.16150  Biso   1.000  O
  C5       1.0000 0.20200  0.81700  0.08850  Biso   1.000  C
  C6       1.0000 0.31810  0.74010  0.06280  Biso   1.000  C
  H5       1.0000 0.44890  0.74990  0.07770  Biso   1.000  H
  H6       1.0000 0.31450  0.73770  0.00760  Biso   1.000  H
  P4       1.0000 0.25542  0.36479  0.09954  Biso   1.000  P
  O16      1.0000 0.29900  0.35381  0.18388  Biso   1.000  O
  O17      1.0000 0.43380  0.39253  0.05623  Biso   1.000  O
  O18      1.0000 0.09020  0.42706  0.08627  Biso   1.000  O
  O19      1.0000 0.37280  0.13410  0.04250  Biso   1.000  O
  O20      1.0000 0.31220  0.16990  0.16150  Biso   1.000  O
  C7       1.0000 0.29800  0.18300  0.08850  Biso   1.000  C
  C8       1.0000 0.18190  0.25990  0.06280  Biso   1.000  C
  H7       1.0000 0.05110  0.25010  0.07770  Biso   1.000  H
  H8       1.0000 0.18550  0.26230  0.00760  Biso   1.000  H
  P5       1.0000 0.74458  0.86479  0.59954  Biso   1.000  P
  O21      1.0000 0.70100  0.85381  0.68388  Biso   1.000  O
  O22      1.0000 0.56620  0.89253  0.55623  Biso   1.000  O
  O23      1.0000 0.90980  0.92706  0.58627  Biso   1.000  O
  O24      1.0000 0.62720  0.63410  0.54250  Biso   1.000  O
  O25      1.0000 0.68780  0.66990  0.66150  Biso   1.000  O
  C9       1.0000 0.70200  0.68300  0.58850  Biso   1.000  C
  C10      1.0000 0.81810  0.75990  0.56280  Biso   1.000  C
  H9       1.0000 0.94890  0.75010  0.57770  Biso   1.000  H
  H10      1.0000 0.81450  0.76230  0.50760  Biso   1.000  H
  P6       1.0000 0.75542  0.13521  0.59954  Biso   1.000  P
  O26      1.0000 0.79900  0.14619  0.68388  Biso   1.000  O
  O27      1.0000 0.93380  0.10747  0.55623  Biso   1.000  O
  O28      1.0000 0.59020  0.07294  0.58627  Biso   1.000  O
  O29      1.0000 0.87280  0.36590  0.54250  Biso   1.000  O
  O30      1.0000 0.81220  0.33010  0.66150  Biso   1.000  O
  C11      1.0000 0.79800  0.31700  0.58850  Biso   1.000  C
  C12      1.0000 0.68190  0.24010  0.56280  Biso   1.000  C
  H11      1.0000 0.55110  0.24990  0.57770  Biso   1.000  H
  H12      1.0000 0.68550  0.23770  0.50760  Biso   1.000  H
  P7       1.0000 0.75542  0.36479  0.90046  Biso   1.000  P
  O31      1.0000 0.79900  0.35381  0.81612  Biso   1.000  O
  O32      1.0000 0.93380  0.39253  0.94377  Biso   1.000  O
  O33      1.0000 0.59020  0.42706  0.91373  Biso   1.000  O
  O34      1.0000 0.87280  0.13410  0.95750  Biso   1.000  O
  O35      1.0000 0.81220  0.16990  0.83850  Biso   1.000  O
  C13      1.0000 0.79800  0.18300  0.91150  Biso   1.000  C
  C14      1.0000 0.68190  0.25990  0.93720  Biso   1.000  C
  H13      1.0000 0.55110  0.25010  0.92230  Biso   1.000  H
  H14      1.0000 0.68550  0.26230  0.99240  Biso   1.000  H
  P8       1.0000 0.74458  0.63521  0.90046  Biso   1.000  P
  O36      1.0000 0.70100  0.64619  0.81612  Biso   1.000  O
  O37      1.0000 0.56620  0.60747  0.94377  Biso   1.000  O
  O38      1.0000 0.90980  0.57294  0.91373  Biso   1.000  O
  O39      1.0000 0.62720  0.86590  0.95750  Biso   1.000  O
  O40      1.0000 0.68780  0.83010  0.83850  Biso   1.000  O
  C15      1.0000 0.70200  0.81700  0.91150  Biso   1.000  C
  C16      1.0000 0.81810  0.74010  0.93720  Biso   1.000  C
  H15      1.0000 0.94890  0.74990  0.92230  Biso   1.000  H
  H16      1.0000 0.81450  0.73770  0.99240  Biso   1.000  H
  V1       1.0000 0.25449  0.25000  0.25000  Biso   1.000  V
  V2       1.0000 0.24551  0.75000  0.25000  Biso   1.000  V
  V3       1.0000 0.74551  0.75000  0.75000  Biso   1.000  V
  V4       1.0000 0.75449  0.25000  0.75000  Biso   1.000  V
  V5       1.0000 0.00000  0.00000  0.50000  Biso   1.000  V
  V6       1.0000 0.50000  0.00000  0.50000  Biso   1.000  V
  V7       1.0000 0.50000  0.50000  0.00000  Biso   1.000  V
  V8       1.0000 0.00000  0.50000  0.00000  Biso   1.000  V
  O41      1.0000 0.25000  0.00000  0.54290  Biso   1.000  O
  H17      1.0000 0.25000  0.00000  0.59600  Biso   1.000  H
  O42      1.0000 0.25000  0.50000  0.95710  Biso   1.000  O
  H18      1.0000 0.25000  0.50000  0.90400  Biso   1.000  H
  O43      1.0000 0.75000  0.00000  0.45710  Biso   1.000  O
  H19      1.0000 0.75000  0.00000  0.40400  Biso   1.000  H
  O44      1.0000 0.75000  0.50000  0.04290  Biso   1.000  O
  H20      1.0000 0.75000  0.50000  0.09600  Biso   1.000  H
