data_ic060608urom20060410_101638_clean
_audit_creation_date              2015-08-19
_audit_creation_method            'Materials Studio'
_symmetry_space_group_name_H-M    'P1'
_symmetry_Int_Tables_number       1
_symmetry_cell_setting            triclinic
loop_
_symmetry_equiv_pos_as_xyz
  x,y,z
_cell_length_a                    8.8540
_cell_length_b                    9.8150
_cell_length_c                    13.4740
_cell_angle_alpha                 90.0000
_cell_angle_beta                  90.0000
_cell_angle_gamma                 98.5230
loop_
_atom_site_label
_atom_site_type_symbol
_atom_site_fract_x
_atom_site_fract_y
_atom_site_fract_z
_atom_site_U_iso_or_equiv
_atom_site_adp_type
_atom_site_occupancy
Zn1    Zn    0.36299   0.42426   0.64038   0.01267  Uiso   1.00
Zn2    Zn    0.63701   0.07574   0.14038   0.01267  Uiso   1.00
Zn3    Zn    0.36299   0.92426   0.85962   0.01267  Uiso   1.00
Zn4    Zn    0.63701   0.57574   0.35962   0.01267  Uiso   1.00
P1     P     0.29781   0.50345   0.41859   0.01267  Uiso   1.00
P2     P     0.70219   0.99655   0.91859   0.01267  Uiso   1.00
P3     P     0.70219   0.49655   0.58141   0.01267  Uiso   1.00
P4     P     0.29781   0.00345   0.08141   0.01267  Uiso   1.00
P5     P     0.77191   0.31714   0.28069   0.01267  Uiso   1.00
P6     P     0.22809   0.68286   0.71931   0.01267  Uiso   1.00
P7     P     0.77191   0.81714   0.21931   0.01267  Uiso   1.00
P8     P     0.22809   0.18286   0.78069   0.01267  Uiso   1.00
H1     H     0.87110   0.97230   0.79270   0.01267  Uiso   1.00
H2     H     0.96020   0.01010   0.89190   0.01267  Uiso   1.00
H3     H     0.06000   0.26060   0.37490   0.01267  Uiso   1.00
H4     H     0.98760   0.84950   0.31650   0.01267  Uiso   1.00
H5     H     0.17990   0.29080   0.28920   0.01267  Uiso   1.00
H6     H     0.06000   0.76060   0.12510   0.01267  Uiso   1.00
H7     H     0.01240   0.65050   0.81650   0.01267  Uiso   1.00
H8     H     0.94000   0.73940   0.62510   0.01267  Uiso   1.00
H9     H     0.12890   0.02770   0.20730   0.01267  Uiso   1.00
H10    H     0.03980   0.98990   0.10810   0.01267  Uiso   1.00
H11    H     0.03980   0.48990   0.39190   0.01267  Uiso   1.00
H12    H     0.71000   0.34040   0.48780   0.01267  Uiso   1.00
H13    H     0.04630   0.30400   0.71800   0.01267  Uiso   1.00
H14    H     0.98760   0.34950   0.18350   0.01267  Uiso   1.00
H15    H     0.94000   0.23940   0.87490   0.01267  Uiso   1.00
H16    H     0.95370   0.19600   0.21800   0.01267  Uiso   1.00
H17    H     0.96020   0.51010   0.60810   0.01267  Uiso   1.00
H18    H     0.87110   0.47230   0.70730   0.01267  Uiso   1.00
H19    H     0.29000   0.65960   0.51220   0.01267  Uiso   1.00
H20    H     0.17990   0.79080   0.21080   0.01267  Uiso   1.00
H21    H     0.82010   0.20920   0.78920   0.01267  Uiso   1.00
H22    H     0.71000   0.84040   0.01220   0.01267  Uiso   1.00
H23    H     0.12890   0.52770   0.29270   0.01267  Uiso   1.00
H24    H     0.95370   0.69600   0.28200   0.01267  Uiso   1.00
H25    H     0.82010   0.70920   0.71080   0.01267  Uiso   1.00
H26    H     0.04630   0.80400   0.78200   0.01267  Uiso   1.00
H27    H     0.01240   0.15050   0.68350   0.01267  Uiso   1.00
H28    H     0.29000   0.15960   0.98780   0.01267  Uiso   1.00
C1     C     0.87710   0.53160   0.64939   0.01267  Uiso   1.00
C2     C     0.91210   0.18200   0.81717   0.01267  Uiso   1.00
C3     C     0.04040   0.70940   0.75960   0.01267  Uiso   1.00
C4     C     0.95960   0.79060   0.25960   0.01267  Uiso   1.00
C5     C     0.91210   0.68200   0.68283   0.01267  Uiso   1.00
C6     C     0.12290   0.96840   0.14939   0.01267  Uiso   1.00
C7     C     0.95960   0.29060   0.24040   0.01267  Uiso   1.00
C8     C     0.87710   0.03160   0.85061   0.01267  Uiso   1.00
C9     C     0.12290   0.46840   0.35061   0.01267  Uiso   1.00
C10    C     0.08790   0.31800   0.31717   0.01267  Uiso   1.00
C11    C     0.04040   0.20940   0.74040   0.01267  Uiso   1.00
C12    C     0.08790   0.81800   0.18283   0.01267  Uiso   1.00
O1     O     0.71037   0.09534   0.00523   0.01267  Uiso   1.00
O2     O     0.57383   0.00786   0.84612   0.01267  Uiso   1.00
O3     O     0.31420   0.65700   0.45360   0.01267  Uiso   1.00
O4     O     0.73505   0.74268   0.12103   0.01267  Uiso   1.00
O5     O     0.33787   0.24042   0.69717   0.01267  Uiso   1.00
O6     O     0.68580   0.84300   0.95360   0.01267  Uiso   1.00
O7     O     0.66213   0.75958   0.30283   0.01267  Uiso   1.00
O8     O     0.26495   0.75732   0.62103   0.01267  Uiso   1.00
O9     O     0.33787   0.74042   0.80283   0.01267  Uiso   1.00
O10    O     0.57383   0.50786   0.65388   0.01267  Uiso   1.00
O11    O     0.42617   0.49214   0.34612   0.01267  Uiso   1.00
O12    O     0.42617   0.99214   0.15388   0.01267  Uiso   1.00
O13    O     0.26495   0.25732   0.87897   0.01267  Uiso   1.00
O14    O     0.28963   0.90466   0.99477   0.01267  Uiso   1.00
O15    O     0.31420   0.15700   0.04640   0.01267  Uiso   1.00
O16    O     0.68580   0.34300   0.54640   0.01267  Uiso   1.00
O17    O     0.77053   0.47222   0.28751   0.01267  Uiso   1.00
O18    O     0.22947   0.02778   0.78751   0.01267  Uiso   1.00
O19    O     0.28963   0.40466   0.50523   0.01267  Uiso   1.00
O20    O     0.77053   0.97222   0.21249   0.01267  Uiso   1.00
O21    O     0.66213   0.25958   0.19717   0.01267  Uiso   1.00
O22    O     0.22947   0.52778   0.71249   0.01267  Uiso   1.00
O23    O     0.71037   0.59534   0.49477   0.01267  Uiso   1.00
O24    O     0.73505   0.24268   0.37897   0.01267  Uiso   1.00
