data_ic070274o-file006_clean
_audit_creation_date              2015-08-19
_audit_creation_method            'Materials Studio'
_symmetry_space_group_name_H-M    'P1'
_symmetry_Int_Tables_number       1
_symmetry_cell_setting            triclinic
loop_
_symmetry_equiv_pos_as_xyz
  x,y,z
_cell_length_a                    20.0340
_cell_length_b                    20.0338
_cell_length_c                    20.0338
_cell_angle_alpha                 109.4710
_cell_angle_beta                  109.4710
_cell_angle_gamma                 109.4710
loop_
_atom_site_label
_atom_site_type_symbol
_atom_site_fract_x
_atom_site_fract_y
_atom_site_fract_z
_atom_site_U_iso_or_equiv
_atom_site_adp_type
_atom_site_occupancy
Ni1    Ni    0.00000   0.50000   0.00000   0.01267  Uiso   1.00
Ni2    Ni    0.50000   0.50000   0.50000   0.01267  Uiso   1.00
Ni3    Ni    0.50000   0.00000   0.00000   0.01267  Uiso   1.00
Ni4    Ni    0.00000   0.00000   0.50000   0.01267  Uiso   1.00
H1     H     0.08050   0.33540   0.96650   0.01267  Uiso   1.00
H2     H     0.42390   0.72130   0.61460   0.01267  Uiso   1.00
H3     H     0.06430   0.73010   0.88520   0.01267  Uiso   1.00
H4     H     0.19070   0.29740   0.57610   0.01267  Uiso   1.00
H5     H     0.66580   0.93570   0.82090   0.01267  Uiso   1.00
H6     H     0.61460   0.42390   0.72130   0.01267  Uiso   1.00
H7     H     0.88520   0.15510   0.82090   0.01267  Uiso   1.00
H8     H     0.25490   0.36890   0.33540   0.01267  Uiso   1.00
H9     H     0.80680   0.89830   0.38310   0.01267  Uiso   1.00
H10    H     0.11400   0.03350   0.36890   0.01267  Uiso   1.00
H11    H     0.27870   0.70260   0.89330   0.01267  Uiso   1.00
H12    H     0.10670   0.80930   0.38540   0.01267  Uiso   1.00
H13    H     0.96650   0.08050   0.33540   0.01267  Uiso   1.00
H14    H     0.57610   0.19070   0.29740   0.01267  Uiso   1.00
H15    H     0.15510   0.82090   0.88520   0.01267  Uiso   1.00
H16    H     0.73010   0.88520   0.06430   0.01267  Uiso   1.00
H17    H     0.70260   0.42390   0.80930   0.01267  Uiso   1.00
H18    H     0.89830   0.09150   0.51520   0.01267  Uiso   1.00
H19    H     0.19070   0.61460   0.89330   0.01267  Uiso   1.00
H20    H     0.63110   0.66460   0.74510   0.01267  Uiso   1.00
H21    H     0.80930   0.38540   0.10670   0.01267  Uiso   1.00
H22    H     0.48480   0.10170   0.90850   0.01267  Uiso   1.00
H23    H     0.84490   0.17910   0.11480   0.01267  Uiso   1.00
H24    H     0.88520   0.06430   0.73010   0.01267  Uiso   1.00
H25    H     0.90850   0.48480   0.10170   0.01267  Uiso   1.00
H26    H     0.82090   0.66580   0.93570   0.01267  Uiso   1.00
H27    H     0.03350   0.36890   0.11400   0.01267  Uiso   1.00
H28    H     0.27870   0.38540   0.57610   0.01267  Uiso   1.00
H29    H     0.19320   0.57630   0.09150   0.01267  Uiso   1.00
H30    H     0.66460   0.74510   0.63110   0.01267  Uiso   1.00
H31    H     0.38540   0.57610   0.27870   0.01267  Uiso   1.00
H32    H     0.66460   0.03350   0.91950   0.01267  Uiso   1.00
H33    H     0.33420   0.06430   0.17910   0.01267  Uiso   1.00
H34    H     0.74510   0.08050   0.11400   0.01267  Uiso   1.00
H35    H     0.61690   0.19320   0.10170   0.01267  Uiso   1.00
H36    H     0.17910   0.11480   0.84490   0.01267  Uiso   1.00
H37    H     0.36890   0.11400   0.03350   0.01267  Uiso   1.00
H38    H     0.10170   0.90850   0.48480   0.01267  Uiso   1.00
H39    H     0.63110   0.88600   0.96650   0.01267  Uiso   1.00
H40    H     0.80930   0.70260   0.42390   0.01267  Uiso   1.00
H41    H     0.51520   0.42370   0.61690   0.01267  Uiso   1.00
H42    H     0.08050   0.11400   0.74510   0.01267  Uiso   1.00
H43    H     0.66580   0.84490   0.73010   0.01267  Uiso   1.00
H44    H     0.33540   0.96650   0.08050   0.01267  Uiso   1.00
H45    H     0.26990   0.11480   0.93570   0.01267  Uiso   1.00
H46    H     0.29740   0.10670   0.72130   0.01267  Uiso   1.00
H47    H     0.70260   0.89330   0.27870   0.01267  Uiso   1.00
H48    H     0.61690   0.51520   0.42370   0.01267  Uiso   1.00
H49    H     0.96650   0.63110   0.88600   0.01267  Uiso   1.00
H50    H     0.42370   0.90850   0.80680   0.01267  Uiso   1.00
H51    H     0.09150   0.19320   0.57630   0.01267  Uiso   1.00
H52    H     0.89330   0.19070   0.61460   0.01267  Uiso   1.00
H53    H     0.09150   0.51520   0.89830   0.01267  Uiso   1.00
H54    H     0.36890   0.33540   0.25490   0.01267  Uiso   1.00
H55    H     0.19320   0.10170   0.61690   0.01267  Uiso   1.00
H56    H     0.42390   0.80930   0.70260   0.01267  Uiso   1.00
H57    H     0.88600   0.25490   0.91950   0.01267  Uiso   1.00
H58    H     0.91950   0.88600   0.25490   0.01267  Uiso   1.00
H59    H     0.84490   0.73010   0.66580   0.01267  Uiso   1.00
H60    H     0.72130   0.29740   0.10670   0.01267  Uiso   1.00
H61    H     0.29740   0.57610   0.19070   0.01267  Uiso   1.00
H62    H     0.80680   0.42370   0.90850   0.01267  Uiso   1.00
H63    H     0.33420   0.15510   0.26990   0.01267  Uiso   1.00
H64    H     0.11480   0.93570   0.26990   0.01267  Uiso   1.00
H65    H     0.26990   0.33420   0.15510   0.01267  Uiso   1.00
H66    H     0.93570   0.26990   0.11480   0.01267  Uiso   1.00
H67    H     0.93570   0.82090   0.66580   0.01267  Uiso   1.00
H68    H     0.48480   0.57630   0.38310   0.01267  Uiso   1.00
H69    H     0.17910   0.33420   0.06430   0.01267  Uiso   1.00
H70    H     0.38310   0.48480   0.57630   0.01267  Uiso   1.00
H71    H     0.38540   0.10670   0.80930   0.01267  Uiso   1.00
H72    H     0.74510   0.63110   0.66460   0.01267  Uiso   1.00
H73    H     0.38310   0.80680   0.89830   0.01267  Uiso   1.00
H74    H     0.51520   0.89830   0.09150   0.01267  Uiso   1.00
H75    H     0.72130   0.61460   0.42390   0.01267  Uiso   1.00
H76    H     0.91950   0.66460   0.03350   0.01267  Uiso   1.00
H77    H     0.89830   0.38310   0.80680   0.01267  Uiso   1.00
H78    H     0.82090   0.88520   0.15510   0.01267  Uiso   1.00
H79    H     0.15510   0.26990   0.33420   0.01267  Uiso   1.00
H80    H     0.89330   0.27870   0.70260   0.01267  Uiso   1.00
H81    H     0.90850   0.80680   0.42370   0.01267  Uiso   1.00
H82    H     0.10670   0.72130   0.29740   0.01267  Uiso   1.00
H83    H     0.03350   0.91950   0.66460   0.01267  Uiso   1.00
H84    H     0.57630   0.09150   0.19320   0.01267  Uiso   1.00
H85    H     0.57610   0.27870   0.38540   0.01267  Uiso   1.00
H86    H     0.57630   0.38310   0.48480   0.01267  Uiso   1.00
H87    H     0.73010   0.66580   0.84490   0.01267  Uiso   1.00
H88    H     0.42370   0.61690   0.51520   0.01267  Uiso   1.00
H89    H     0.61460   0.89330   0.19070   0.01267  Uiso   1.00
H90    H     0.33540   0.25490   0.36890   0.01267  Uiso   1.00
H91    H     0.88600   0.96650   0.63110   0.01267  Uiso   1.00
H92    H     0.11480   0.84490   0.17910   0.01267  Uiso   1.00
H93    H     0.25490   0.91950   0.88600   0.01267  Uiso   1.00
H94    H     0.10170   0.61690   0.19320   0.01267  Uiso   1.00
H95    H     0.06430   0.17910   0.33420   0.01267  Uiso   1.00
H96    H     0.11400   0.74510   0.08050   0.01267  Uiso   1.00
C1     C     0.54550   0.86120   0.74930   0.01267  Uiso   1.00
C2     C     0.98650   0.37050   0.10960   0.01267  Uiso   1.00
C3     C     0.11190   0.86120   0.31570   0.01267  Uiso   1.00
C4     C     0.26090   0.87690   0.89040   0.01267  Uiso   1.00
C5     C     0.89280   0.14580   0.61920   0.01267  Uiso   1.00
C6     C     0.20380   0.74930   0.88810   0.01267  Uiso   1.00
C7     C     0.25070   0.11190   0.79620   0.01267  Uiso   1.00
C8     C     0.10300   0.66280   0.19060   0.01267  Uiso   1.00
C9     C     0.81630   0.88750   0.20040   0.01267  Uiso   1.00
C10    C     0.10300   0.91240   0.44020   0.01267  Uiso   1.00
C11    C     0.10960   0.73910   0.12310   0.01267  Uiso   1.00
C12    C     0.87690   0.61600   0.98650   0.01267  Uiso   1.00
C13    C     0.72640   0.61920   0.47340   0.01267  Uiso   1.00
C14    C     0.38410   0.07120   0.18370   0.01267  Uiso   1.00
C15    C     0.27360   0.74700   0.89280   0.01267  Uiso   1.00
C16    C     0.19060   0.52780   0.08760   0.01267  Uiso   1.00
C17    C     0.89700   0.08760   0.55980   0.01267  Uiso   1.00
C18    C     0.13880   0.25070   0.45450   0.01267  Uiso   1.00
C19    C     0.12310   0.38400   0.01350   0.01267  Uiso   1.00
C20    C     0.74930   0.88810   0.20380   0.01267  Uiso   1.00
C21    C     0.07120   0.68710   0.88750   0.01267  Uiso   1.00
C22    C     0.10720   0.72640   0.25300   0.01267  Uiso   1.00
C23    C     0.12310   0.10960   0.73910   0.01267  Uiso   1.00
C24    C     0.61590   0.79960   0.68710   0.01267  Uiso   1.00
C25    C     0.38080   0.10720   0.85420   0.01267  Uiso   1.00
C26    C     0.47220   0.91240   0.80940   0.01267  Uiso   1.00
C27    C     0.19060   0.10300   0.66280   0.01267  Uiso   1.00
C28    C     0.79960   0.68710   0.61590   0.01267  Uiso   1.00
C29    C     0.52780   0.33720   0.44020   0.01267  Uiso   1.00
C30    C     0.74930   0.54550   0.86120   0.01267  Uiso   1.00
C31    C     0.61590   0.92880   0.81630   0.01267  Uiso   1.00
C32    C     0.74700   0.47340   0.85420   0.01267  Uiso   1.00
C33    C     0.72640   0.25300   0.10720   0.01267  Uiso   1.00
C34    C     0.38080   0.52660   0.27360   0.01267  Uiso   1.00
C35    C     0.88750   0.20040   0.81630   0.01267  Uiso   1.00
C36    C     0.47220   0.66280   0.55980   0.01267  Uiso   1.00
C37    C     0.89700   0.33720   0.80940   0.01267  Uiso   1.00
C38    C     0.38400   0.01350   0.12310   0.01267  Uiso   1.00
C39    C     0.37050   0.10960   0.98650   0.01267  Uiso   1.00
C40    C     0.20040   0.31290   0.38410   0.01267  Uiso   1.00
C41    C     0.18370   0.11250   0.79960   0.01267  Uiso   1.00
C42    C     0.52660   0.27360   0.38080   0.01267  Uiso   1.00
C43    C     0.98650   0.87690   0.61600   0.01267  Uiso   1.00
C44    C     0.81630   0.61590   0.92880   0.01267  Uiso   1.00
C45    C     0.33720   0.80940   0.89700   0.01267  Uiso   1.00
C46    C     0.38410   0.20040   0.31290   0.01267  Uiso   1.00
C47    C     0.45450   0.20380   0.31570   0.01267  Uiso   1.00
C48    C     0.55980   0.89700   0.08760   0.01267  Uiso   1.00
C49    C     0.66280   0.19060   0.10300   0.01267  Uiso   1.00
C50    C     0.88750   0.07120   0.68710   0.01267  Uiso   1.00
C51    C     0.11190   0.79620   0.25070   0.01267  Uiso   1.00
C52    C     0.45450   0.13880   0.25070   0.01267  Uiso   1.00
C53    C     0.52660   0.14580   0.25300   0.01267  Uiso   1.00
C54    C     0.89040   0.01350   0.62950   0.01267  Uiso   1.00
C55    C     0.55980   0.47220   0.66280   0.01267  Uiso   1.00
C56    C     0.74700   0.89280   0.27360   0.01267  Uiso   1.00
C57    C     0.88810   0.20380   0.74930   0.01267  Uiso   1.00
C58    C     0.27360   0.38080   0.52660   0.01267  Uiso   1.00
C59    C     0.92880   0.81630   0.61590   0.01267  Uiso   1.00
C60    C     0.11250   0.92880   0.31290   0.01267  Uiso   1.00
C61    C     0.86120   0.74930   0.54550   0.01267  Uiso   1.00
C62    C     0.31570   0.11190   0.86120   0.01267  Uiso   1.00
C63    C     0.10720   0.85420   0.38080   0.01267  Uiso   1.00
C64    C     0.38400   0.26090   0.37050   0.01267  Uiso   1.00
C65    C     0.44020   0.52780   0.33720   0.01267  Uiso   1.00
C66    C     0.62950   0.61600   0.73910   0.01267  Uiso   1.00
C67    C     0.79620   0.25070   0.11190   0.01267  Uiso   1.00
C68    C     0.61920   0.89280   0.14580   0.01267  Uiso   1.00
C69    C     0.66280   0.55980   0.47220   0.01267  Uiso   1.00
C70    C     0.85420   0.74700   0.47340   0.01267  Uiso   1.00
C71    C     0.25300   0.10720   0.72640   0.01267  Uiso   1.00
C72    C     0.68710   0.88750   0.07120   0.01267  Uiso   1.00
C73    C     0.80940   0.47220   0.91240   0.01267  Uiso   1.00
C74    C     0.31290   0.38410   0.20040   0.01267  Uiso   1.00
C75    C     0.26090   0.37050   0.38400   0.01267  Uiso   1.00
C76    C     0.10960   0.98650   0.37050   0.01267  Uiso   1.00
C77    C     0.33720   0.44020   0.52780   0.01267  Uiso   1.00
C78    C     0.14580   0.61920   0.89280   0.01267  Uiso   1.00
C79    C     0.61920   0.47340   0.72640   0.01267  Uiso   1.00
C80    C     0.85420   0.38080   0.10720   0.01267  Uiso   1.00
C81    C     0.87690   0.89040   0.26090   0.01267  Uiso   1.00
C82    C     0.52780   0.08760   0.19060   0.01267  Uiso   1.00
C83    C     0.25070   0.45450   0.13880   0.01267  Uiso   1.00
C84    C     0.18370   0.38410   0.07120   0.01267  Uiso   1.00
C85    C     0.01350   0.12310   0.38400   0.01267  Uiso   1.00
C86    C     0.61600   0.98650   0.87690   0.01267  Uiso   1.00
C87    C     0.11250   0.79960   0.18370   0.01267  Uiso   1.00
C88    C     0.31290   0.11250   0.92880   0.01267  Uiso   1.00
C89    C     0.08760   0.55980   0.89700   0.01267  Uiso   1.00
C90    C     0.92880   0.31290   0.11250   0.01267  Uiso   1.00
C91    C     0.25300   0.52660   0.14580   0.01267  Uiso   1.00
C92    C     0.73910   0.62950   0.61600   0.01267  Uiso   1.00
C93    C     0.20040   0.81630   0.88750   0.01267  Uiso   1.00
C94    C     0.91240   0.44020   0.10300   0.01267  Uiso   1.00
C95    C     0.37050   0.38400   0.26090   0.01267  Uiso   1.00
C96    C     0.80940   0.89700   0.33720   0.01267  Uiso   1.00
C97    C     0.54550   0.79620   0.68430   0.01267  Uiso   1.00
C98    C     0.68430   0.54550   0.79620   0.01267  Uiso   1.00
C99    C     0.01350   0.62950   0.89040   0.01267  Uiso   1.00
C100   C     0.61600   0.73910   0.62950   0.01267  Uiso   1.00
C101   C     0.68430   0.88810   0.13880   0.01267  Uiso   1.00
C102   C     0.47340   0.85420   0.74700   0.01267  Uiso   1.00
C103   C     0.89040   0.26090   0.87690   0.01267  Uiso   1.00
C104   C     0.07120   0.18370   0.38410   0.01267  Uiso   1.00
C105   C     0.86120   0.31570   0.11190   0.01267  Uiso   1.00
C106   C     0.79620   0.68430   0.54550   0.01267  Uiso   1.00
C107   C     0.08760   0.19060   0.52780   0.01267  Uiso   1.00
C108   C     0.68710   0.61590   0.79960   0.01267  Uiso   1.00
C109   C     0.79960   0.18370   0.11250   0.01267  Uiso   1.00
C110   C     0.31570   0.45450   0.20380   0.01267  Uiso   1.00
C111   C     0.44020   0.10300   0.91240   0.01267  Uiso   1.00
C112   C     0.20380   0.31570   0.45450   0.01267  Uiso   1.00
C113   C     0.47340   0.72640   0.61920   0.01267  Uiso   1.00
C114   C     0.73910   0.12310   0.10960   0.01267  Uiso   1.00
C115   C     0.14580   0.25300   0.52660   0.01267  Uiso   1.00
C116   C     0.89280   0.27360   0.74700   0.01267  Uiso   1.00
C117   C     0.88810   0.13880   0.68430   0.01267  Uiso   1.00
C118   C     0.13880   0.68430   0.88810   0.01267  Uiso   1.00
C119   C     0.62950   0.89040   0.01350   0.01267  Uiso   1.00
C120   C     0.91240   0.80940   0.47220   0.01267  Uiso   1.00
N1     N     0.12650   0.10090   0.67280   0.01267  Uiso   1.00
N2     N     0.42810   0.10090   0.97440   0.01267  Uiso   1.00
N3     N     0.97440   0.42810   0.10090   0.01267  Uiso   1.00
N4     N     0.67280   0.12650   0.10090   0.01267  Uiso   1.00
N5     N     0.89910   0.32720   0.87350   0.01267  Uiso   1.00
N6     N     0.54630   0.97440   0.87350   0.01267  Uiso   1.00
N7     N     0.32720   0.42810   0.45370   0.01267  Uiso   1.00
N8     N     0.42810   0.45370   0.32720   0.01267  Uiso   1.00
N9     N     0.89910   0.02560   0.57190   0.01267  Uiso   1.00
N10    N     0.67280   0.57190   0.54630   0.01267  Uiso   1.00
N11    N     0.32720   0.87350   0.89910   0.01267  Uiso   1.00
N12    N     0.57190   0.54630   0.67280   0.01267  Uiso   1.00
N13    N     0.02560   0.57190   0.89910   0.01267  Uiso   1.00
N14    N     0.12650   0.45370   0.02560   0.01267  Uiso   1.00
N15    N     0.02560   0.12650   0.45370   0.01267  Uiso   1.00
N16    N     0.10090   0.67280   0.12650   0.01267  Uiso   1.00
N17    N     0.57190   0.89910   0.02560   0.01267  Uiso   1.00
N18    N     0.45370   0.02560   0.12650   0.01267  Uiso   1.00
N19    N     0.97440   0.87350   0.54630   0.01267  Uiso   1.00
N20    N     0.10090   0.97440   0.42810   0.01267  Uiso   1.00
N21    N     0.87350   0.89910   0.32720   0.01267  Uiso   1.00
N22    N     0.45370   0.32720   0.42810   0.01267  Uiso   1.00
N23    N     0.87350   0.54630   0.97440   0.01267  Uiso   1.00
N24    N     0.54630   0.67280   0.57190   0.01267  Uiso   1.00
O1     O     0.61430   0.06640   0.09910   0.01267  Uiso   1.00
O2     O     0.51520   0.90090   0.96730   0.01267  Uiso   1.00
O3     O     0.61430   0.51520   0.54790   0.01267  Uiso   1.00
O4     O     0.96730   0.06640   0.45210   0.01267  Uiso   1.00
O5     O     0.51520   0.54790   0.61430   0.01267  Uiso   1.00
O6     O     0.45210   0.96730   0.06640   0.01267  Uiso   1.00
O7     O     0.38570   0.93360   0.90090   0.01267  Uiso   1.00
O8     O     0.93360   0.90090   0.38570   0.01267  Uiso   1.00
O9     O     0.93360   0.54790   0.03270   0.01267  Uiso   1.00
O10    O     0.06640   0.45210   0.96730   0.01267  Uiso   1.00
O11    O     0.54790   0.61430   0.51520   0.01267  Uiso   1.00
O12    O     0.90090   0.38570   0.93360   0.01267  Uiso   1.00
O13    O     0.90090   0.96730   0.51520   0.01267  Uiso   1.00
O14    O     0.48480   0.09910   0.03270   0.01267  Uiso   1.00
O15    O     0.03270   0.48480   0.09910   0.01267  Uiso   1.00
O16    O     0.09910   0.03270   0.48480   0.01267  Uiso   1.00
O17    O     0.06640   0.09910   0.61430   0.01267  Uiso   1.00
O18    O     0.54790   0.03270   0.93360   0.01267  Uiso   1.00
O19    O     0.48480   0.45210   0.38570   0.01267  Uiso   1.00
O20    O     0.96730   0.51520   0.90090   0.01267  Uiso   1.00
O21    O     0.45210   0.38570   0.48480   0.01267  Uiso   1.00
O22    O     0.03270   0.93360   0.54790   0.01267  Uiso   1.00
O23    O     0.09910   0.61430   0.06640   0.01267  Uiso   1.00
O24    O     0.38570   0.48480   0.45210   0.01267  Uiso   1.00
