data_ic101789u_si_002_clean
_audit_creation_date              2015-08-19
_audit_creation_method            'Materials Studio'
_symmetry_space_group_name_H-M    'P1'
_symmetry_Int_Tables_number       1
_symmetry_cell_setting            triclinic
loop_
_symmetry_equiv_pos_as_xyz
  x,y,z
_cell_length_a                    17.2868
_cell_length_b                    17.2868
_cell_length_c                    17.2868
_cell_angle_alpha                 109.4710
_cell_angle_beta                  109.4710
_cell_angle_gamma                 109.4710
loop_
_atom_site_label
_atom_site_type_symbol
_atom_site_fract_x
_atom_site_fract_y
_atom_site_fract_z
_atom_site_U_iso_or_equiv
_atom_site_adp_type
_atom_site_occupancy
Ga1    Ga    0.37500   0.75000   0.12500   0.01267  Uiso   1.00
Ga2    Ga    0.12500   0.25000   0.37500   0.01267  Uiso   1.00
Ga3    Ga    0.75000   0.62500   0.87500   0.01267  Uiso   1.00
Ga4    Ga    0.62500   0.37500   0.25000   0.01267  Uiso   1.00
Ga5    Ga    0.25000   0.87500   0.62500   0.01267  Uiso   1.00
Ga6    Ga    0.87500   0.12500   0.75000   0.01267  Uiso   1.00
H1     H     0.04090   0.02040   0.67310   0.01267  Uiso   1.00
H2     H     0.54090   0.67310   0.02040   0.01267  Uiso   1.00
H3     H     0.95910   0.97950   0.13220   0.01267  Uiso   1.00
H4     H     0.67310   0.52040   0.04090   0.01267  Uiso   1.00
H5     H     0.45910   0.13220   0.97950   0.01267  Uiso   1.00
H6     H     0.15270   0.52050   0.47960   0.01267  Uiso   1.00
H7     H     0.84730   0.36780   0.82690   0.01267  Uiso   1.00
H8     H     0.52040   0.54090   0.17310   0.01267  Uiso   1.00
H9     H     0.47950   0.45910   0.63220   0.01267  Uiso   1.00
H10    H     0.13220   0.47950   0.95910   0.01267  Uiso   1.00
H11    H     0.34730   0.82690   0.36780   0.01267  Uiso   1.00
H12    H     0.97960   0.15270   0.02050   0.01267  Uiso   1.00
H13    H     0.17310   0.04090   0.52040   0.01267  Uiso   1.00
H14    H     0.02050   0.65270   0.97960   0.01267  Uiso   1.00
H15    H     0.65270   0.47960   0.52050   0.01267  Uiso   1.00
H16    H     0.63220   0.95910   0.47950   0.01267  Uiso   1.00
H17    H     0.97950   0.63220   0.45910   0.01267  Uiso   1.00
H18    H     0.52050   0.97960   0.65270   0.01267  Uiso   1.00
H19    H     0.36780   0.32690   0.34730   0.01267  Uiso   1.00
H20    H     0.32690   0.84730   0.86780   0.01267  Uiso   1.00
H21    H     0.86780   0.34730   0.32690   0.01267  Uiso   1.00
H22    H     0.02040   0.17310   0.54090   0.01267  Uiso   1.00
H23    H     0.82690   0.86780   0.84730   0.01267  Uiso   1.00
H24    H     0.47960   0.02050   0.15270   0.01267  Uiso   1.00
C1     C     0.87301   0.02157   0.83534   0.01267  Uiso   1.00
C2     C     0.16466   0.68623   0.53767   0.01267  Uiso   1.00
C3     C     0.63568   0.54484   0.05730   0.01267  Uiso   1.00
C4     C     0.02404   0.10265   0.61369   0.01267  Uiso   1.00
C5     C     0.05730   0.04484   0.63568   0.01267  Uiso   1.00
C6     C     0.36432   0.90916   0.92162   0.01267  Uiso   1.00
C7     C     0.86432   0.92162   0.90916   0.01267  Uiso   1.00
C8     C     0.01104   0.42139   0.39735   0.01267  Uiso   1.00
C9     C     0.02157   0.33534   0.37301   0.01267  Uiso   1.00
C10    C     0.18623   0.66466   0.03767   0.01267  Uiso   1.00
C11    C     0.33534   0.87301   0.52157   0.01267  Uiso   1.00
C12    C     0.83534   0.52157   0.87301   0.01267  Uiso   1.00
C13    C     0.03767   0.16466   0.18623   0.01267  Uiso   1.00
C14    C     0.64856   0.62699   0.96233   0.01267  Uiso   1.00
C15    C     0.12699   0.14856   0.46233   0.01267  Uiso   1.00
C16    C     0.97596   0.07861   0.08965   0.01267  Uiso   1.00
C17    C     0.53767   0.18623   0.16466   0.01267  Uiso   1.00
C18    C     0.85144   0.81377   0.97843   0.01267  Uiso   1.00
C19    C     0.92139   0.51104   0.89735   0.01267  Uiso   1.00
C20    C     0.38631   0.98896   0.91035   0.01267  Uiso   1.00
C21    C     0.46233   0.64856   0.12699   0.01267  Uiso   1.00
C22    C     0.91035   0.48896   0.38631   0.01267  Uiso   1.00
C23    C     0.51246   0.95516   0.59084   0.01267  Uiso   1.00
C24    C     0.14856   0.96233   0.62699   0.01267  Uiso   1.00
C25    C     0.92162   0.40916   0.36432   0.01267  Uiso   1.00
C26    C     0.37301   0.83534   0.02157   0.01267  Uiso   1.00
C27    C     0.07838   0.48754   0.94270   0.01267  Uiso   1.00
C28    C     0.31377   0.35144   0.47843   0.01267  Uiso   1.00
C29    C     0.42139   0.89735   0.51104   0.01267  Uiso   1.00
C30    C     0.35144   0.97843   0.81377   0.01267  Uiso   1.00
C31    C     0.88631   0.91035   0.98896   0.01267  Uiso   1.00
C32    C     0.04484   0.13568   0.55730   0.01267  Uiso   1.00
C33    C     0.97843   0.31377   0.85144   0.01267  Uiso   1.00
C34    C     0.10265   0.11369   0.52404   0.01267  Uiso   1.00
C35    C     0.55730   0.63568   0.04484   0.01267  Uiso   1.00
C36    C     0.47843   0.85144   0.31377   0.01267  Uiso   1.00
C37    C     0.11369   0.02404   0.60265   0.01267  Uiso   1.00
C38    C     0.54484   0.55730   0.13568   0.01267  Uiso   1.00
C39    C     0.39735   0.92139   0.01104   0.01267  Uiso   1.00
C40    C     0.45516   0.01246   0.09084   0.01267  Uiso   1.00
C41    C     0.68623   0.03767   0.66466   0.01267  Uiso   1.00
C42    C     0.96233   0.12699   0.64856   0.01267  Uiso   1.00
C43    C     0.47596   0.08965   0.07861   0.01267  Uiso   1.00
C44    C     0.61369   0.60265   0.02404   0.01267  Uiso   1.00
C45    C     0.62699   0.46233   0.14856   0.01267  Uiso   1.00
C46    C     0.09084   0.51246   0.45516   0.01267  Uiso   1.00
C47    C     0.81377   0.47843   0.35144   0.01267  Uiso   1.00
C48    C     0.48754   0.44270   0.57838   0.01267  Uiso   1.00
C49    C     0.59084   0.45516   0.51246   0.01267  Uiso   1.00
C50    C     0.41035   0.38631   0.48896   0.01267  Uiso   1.00
C51    C     0.98896   0.41035   0.88631   0.01267  Uiso   1.00
C52    C     0.07861   0.58965   0.47596   0.01267  Uiso   1.00
C53    C     0.57838   0.94270   0.48754   0.01267  Uiso   1.00
C54    C     0.89735   0.01104   0.92139   0.01267  Uiso   1.00
C55    C     0.94270   0.98754   0.07838   0.01267  Uiso   1.00
C56    C     0.60265   0.52404   0.11369   0.01267  Uiso   1.00
C57    C     0.42162   0.36432   0.40916   0.01267  Uiso   1.00
C58    C     0.01246   0.59084   0.95516   0.01267  Uiso   1.00
C59    C     0.66466   0.53767   0.68623   0.01267  Uiso   1.00
C60    C     0.08965   0.57861   0.97596   0.01267  Uiso   1.00
C61    C     0.90916   0.42162   0.86432   0.01267  Uiso   1.00
C62    C     0.52404   0.61369   0.10265   0.01267  Uiso   1.00
C63    C     0.52157   0.37301   0.33534   0.01267  Uiso   1.00
C64    C     0.44270   0.07838   0.98754   0.01267  Uiso   1.00
C65    C     0.95516   0.09084   0.01246   0.01267  Uiso   1.00
C66    C     0.58965   0.97596   0.57861   0.01267  Uiso   1.00
C67    C     0.48896   0.88631   0.41035   0.01267  Uiso   1.00
C68    C     0.40916   0.86432   0.42162   0.01267  Uiso   1.00
C69    C     0.57861   0.47596   0.58965   0.01267  Uiso   1.00
C70    C     0.51104   0.39735   0.42139   0.01267  Uiso   1.00
C71    C     0.98754   0.57838   0.44270   0.01267  Uiso   1.00
C72    C     0.13568   0.05730   0.54484   0.01267  Uiso   1.00
O1     O     0.90412   0.10943   0.85379   0.01267  Uiso   1.00
O2     O     0.20531   0.94967   0.59588   0.01267  Uiso   1.00
O3     O     0.95538   0.25622   0.32972   0.01267  Uiso   1.00
O4     O     0.44967   0.70531   0.09588   0.01267  Uiso   1.00
O5     O     0.24436   0.29469   0.39057   0.01267  Uiso   1.00
O6     O     0.55033   0.25564   0.14621   0.01267  Uiso   1.00
O7     O     0.94967   0.09588   0.70531   0.01267  Uiso   1.00
O8     O     0.42650   0.62566   0.17028   0.01267  Uiso   1.00
O9     O     0.39057   0.79469   0.24436   0.01267  Uiso   1.00
O10    O     0.74378   0.57350   0.69916   0.01267  Uiso   1.00
O11    O     0.59588   0.44967   0.20531   0.01267  Uiso   1.00
O12    O     0.10943   0.35379   0.40412   0.01267  Uiso   1.00
O13    O     0.40412   0.85379   0.10943   0.01267  Uiso   1.00
O14    O     0.32972   0.75622   0.95538   0.01267  Uiso   1.00
O15    O     0.25564   0.64621   0.05033   0.01267  Uiso   1.00
O16    O     0.75622   0.45538   0.82972   0.01267  Uiso   1.00
O17    O     0.60943   0.40412   0.35379   0.01267  Uiso   1.00
O18    O     0.09588   0.20531   0.44967   0.01267  Uiso   1.00
O19    O     0.35379   0.90412   0.60943   0.01267  Uiso   1.00
O20    O     0.37434   0.04462   0.80084   0.01267  Uiso   1.00
O21    O     0.80084   0.54462   0.37434   0.01267  Uiso   1.00
O22    O     0.89057   0.24436   0.79469   0.01267  Uiso   1.00
O23    O     0.57350   0.19916   0.24378   0.01267  Uiso   1.00
O24    O     0.62566   0.67028   0.92650   0.01267  Uiso   1.00
O25    O     0.25622   0.82972   0.45538   0.01267  Uiso   1.00
O26    O     0.04462   0.30084   0.87434   0.01267  Uiso   1.00
O27    O     0.75564   0.05033   0.64621   0.01267  Uiso   1.00
O28    O     0.24378   0.69916   0.57350   0.01267  Uiso   1.00
O29    O     0.79469   0.74436   0.89057   0.01267  Uiso   1.00
O30    O     0.82972   0.95538   0.75622   0.01267  Uiso   1.00
O31    O     0.12566   0.92650   0.67028   0.01267  Uiso   1.00
O32    O     0.67028   0.42650   0.12566   0.01267  Uiso   1.00
O33    O     0.85379   0.60943   0.90412   0.01267  Uiso   1.00
O34    O     0.19916   0.74378   0.07350   0.01267  Uiso   1.00
O35    O     0.17028   0.12566   0.42650   0.01267  Uiso   1.00
O36    O     0.05033   0.14621   0.25564   0.01267  Uiso   1.00
O37    O     0.30084   0.37434   0.54462   0.01267  Uiso   1.00
O38    O     0.70531   0.59588   0.94967   0.01267  Uiso   1.00
O39    O     0.64621   0.55033   0.75564   0.01267  Uiso   1.00
O40    O     0.74436   0.39057   0.29469   0.01267  Uiso   1.00
O41    O     0.87434   0.80084   0.04462   0.01267  Uiso   1.00
O42    O     0.69916   0.07350   0.74378   0.01267  Uiso   1.00
O43    O     0.29469   0.89057   0.74436   0.01267  Uiso   1.00
O44    O     0.14621   0.75564   0.55033   0.01267  Uiso   1.00
O45    O     0.45538   0.32972   0.25622   0.01267  Uiso   1.00
O46    O     0.07350   0.24378   0.19916   0.01267  Uiso   1.00
O47    O     0.92650   0.17028   0.62566   0.01267  Uiso   1.00
O48    O     0.54462   0.87434   0.30084   0.01267  Uiso   1.00
