data_ic2017598_si_001_clean
_audit_creation_date              2015-08-20
_audit_creation_method            'Materials Studio'
_symmetry_space_group_name_H-M    'P1'
_symmetry_Int_Tables_number       1
_symmetry_cell_setting            triclinic
loop_
_symmetry_equiv_pos_as_xyz
  x,y,z
_cell_length_a                    18.1065
_cell_length_b                    18.1065
_cell_length_c                    18.1065
_cell_angle_alpha                 60.0000
_cell_angle_beta                  60.0000
_cell_angle_gamma                 60.0000
loop_
_atom_site_label
_atom_site_type_symbol
_atom_site_fract_x
_atom_site_fract_y
_atom_site_fract_z
_atom_site_U_iso_or_equiv
_atom_site_adp_type
_atom_site_occupancy
Zn1    Zn    0.79354   0.61938   0.79354   0.01267  Uiso   1.00
Zn2    Zn    0.61938   0.79354   0.79354   0.01267  Uiso   1.00
Zn3    Zn    0.20646   0.20646   0.38062   0.01267  Uiso   1.00
Zn4    Zn    0.79354   0.79354   0.79354   0.01267  Uiso   1.00
Zn5    Zn    0.20646   0.38062   0.20646   0.01267  Uiso   1.00
Zn6    Zn    0.20646   0.20646   0.20646   0.01267  Uiso   1.00
Zn7    Zn    0.38062   0.20646   0.20646   0.01267  Uiso   1.00
Zn8    Zn    0.79354   0.79354   0.61938   0.01267  Uiso   1.00
C9     C     0.41290   0.53690   0.02510   0.01267  Uiso   1.00
C10    C     0.97490   0.46310   0.97490   0.01267  Uiso   1.00
C11    C     0.53690   0.02510   0.02510   0.01267  Uiso   1.00
C12    C     0.94610   0.55390   0.55390   0.01267  Uiso   1.00
C13    C     0.41290   0.02510   0.53690   0.01267  Uiso   1.00
C14    C     0.55390   0.55390   0.94610   0.01267  Uiso   1.00
C15    C     0.38730   0.38730   0.11270   0.01267  Uiso   1.00
C16    C     0.46310   0.58710   0.97490   0.01267  Uiso   1.00
C17    C     0.58710   0.46310   0.97490   0.01267  Uiso   1.00
C18    C     0.94610   0.94610   0.55390   0.01267  Uiso   1.00
C19    C     0.94610   0.55390   0.94610   0.01267  Uiso   1.00
C20    C     0.02510   0.53690   0.41290   0.01267  Uiso   1.00
C21    C     0.02510   0.41290   0.02510   0.01267  Uiso   1.00
C22    C     0.88730   0.61270   0.88730   0.01267  Uiso   1.00
C23    C     0.61270   0.88730   0.61270   0.01267  Uiso   1.00
C24    C     0.38730   0.11270   0.11270   0.01267  Uiso   1.00
C25    C     0.61270   0.88730   0.88730   0.01267  Uiso   1.00
C26    C     0.61270   0.61270   0.88730   0.01267  Uiso   1.00
C27    C     0.53690   0.41290   0.02510   0.01267  Uiso   1.00
C28    C     0.58710   0.97490   0.97490   0.01267  Uiso   1.00
C29    C     0.11270   0.38730   0.11270   0.01267  Uiso   1.00
C30    C     0.46310   0.97490   0.97490   0.01267  Uiso   1.00
C31    C     0.02510   0.41290   0.53690   0.01267  Uiso   1.00
C32    C     0.88730   0.88730   0.61270   0.01267  Uiso   1.00
C33    C     0.46310   0.97490   0.58710   0.01267  Uiso   1.00
C34    C     0.38730   0.11270   0.38730   0.01267  Uiso   1.00
C35    C     0.05390   0.44610   0.05390   0.01267  Uiso   1.00
C36    C     0.41290   0.02510   0.02510   0.01267  Uiso   1.00
C37    C     0.97490   0.97490   0.46310   0.01267  Uiso   1.00
C38    C     0.88730   0.61270   0.61270   0.01267  Uiso   1.00
C39    C     0.53690   0.02510   0.41290   0.01267  Uiso   1.00
C40    C     0.97490   0.97490   0.58710   0.01267  Uiso   1.00
C41    C     0.44610   0.05390   0.44610   0.01267  Uiso   1.00
C42    C     0.02510   0.53690   0.02510   0.01267  Uiso   1.00
C43    C     0.02510   0.02510   0.41290   0.01267  Uiso   1.00
C44    C     0.11270   0.38730   0.38730   0.01267  Uiso   1.00
C45    C     0.02510   0.02510   0.53690   0.01267  Uiso   1.00
C46    C     0.97490   0.46310   0.58710   0.01267  Uiso   1.00
C47    C     0.97490   0.58710   0.46310   0.01267  Uiso   1.00
C48    C     0.55390   0.94610   0.94610   0.01267  Uiso   1.00
C49    C     0.97490   0.58710   0.97490   0.01267  Uiso   1.00
C50    C     0.44610   0.05390   0.05390   0.01267  Uiso   1.00
C51    C     0.05390   0.44610   0.44610   0.01267  Uiso   1.00
C52    C     0.11270   0.11270   0.38730   0.01267  Uiso   1.00
C53    C     0.05390   0.05390   0.44610   0.01267  Uiso   1.00
C54    C     0.55390   0.94610   0.55390   0.01267  Uiso   1.00
C55    C     0.58710   0.97490   0.46310   0.01267  Uiso   1.00
C56    C     0.44610   0.44610   0.05390   0.01267  Uiso   1.00
O57    O     0.13360   0.42978   0.13360   0.01267  Uiso   1.00
O58    O     0.13360   0.42978   0.30302   0.01267  Uiso   1.00
O59    O     0.86640   0.57022   0.86640   0.01267  Uiso   1.00
O60    O     0.30302   0.13360   0.42978   0.01267  Uiso   1.00
O61    O     0.13360   0.13360   0.42978   0.01267  Uiso   1.00
O62    O     0.86640   0.57022   0.69698   0.01267  Uiso   1.00
O63    O     0.69698   0.86640   0.57022   0.01267  Uiso   1.00
O64    O     0.86640   0.86640   0.57022   0.01267  Uiso   1.00
O65    O     0.13360   0.30302   0.13360   0.01267  Uiso   1.00
O66    O     0.42978   0.30302   0.13360   0.01267  Uiso   1.00
O67    O     0.86640   0.69698   0.86640   0.01267  Uiso   1.00
O68    O     0.13360   0.13360   0.30302   0.01267  Uiso   1.00
O69    O     0.69698   0.86640   0.86640   0.01267  Uiso   1.00
O70    O     0.57022   0.69698   0.86640   0.01267  Uiso   1.00
O71    O     0.57022   0.86640   0.86640   0.01267  Uiso   1.00
O72    O     0.13360   0.30302   0.42978   0.01267  Uiso   1.00
O73    O     0.25000   0.25000   0.25000   0.01267  Uiso   1.00
O74    O     0.30302   0.42978   0.13360   0.01267  Uiso   1.00
O75    O     0.69698   0.57022   0.86640   0.01267  Uiso   1.00
O76    O     0.57022   0.86640   0.69698   0.01267  Uiso   1.00
O77    O     0.42978   0.13360   0.13360   0.01267  Uiso   1.00
O78    O     0.86640   0.86640   0.69698   0.01267  Uiso   1.00
O79    O     0.75000   0.75000   0.75000   0.01267  Uiso   1.00
O80    O     0.30302   0.13360   0.13360   0.01267  Uiso   1.00
O81    O     0.86640   0.69698   0.57022   0.01267  Uiso   1.00
O82    O     0.42978   0.13360   0.30302   0.01267  Uiso   1.00
H83    H     0.33611   0.56917   0.04736   0.00000  Uiso   1.00
H84    H     0.95490   0.42685   0.95490   0.00000  Uiso   1.00
H85    H     0.56917   0.04736   0.04736   0.00000  Uiso   1.00
H86    H     0.33611   0.04736   0.56917   0.00000  Uiso   1.00
H87    H     0.43083   0.66389   0.95264   0.00000  Uiso   1.00
H88    H     0.66335   0.42685   0.95490   0.00000  Uiso   1.00
H89    H     0.04736   0.56917   0.33611   0.00000  Uiso   1.00
H90    H     0.04736   0.33611   0.04736   0.00000  Uiso   1.00
H91    H     0.56917   0.33611   0.04736   0.00000  Uiso   1.00
H92    H     0.66389   0.95264   0.95264   0.00000  Uiso   1.00
H93    H     0.43083   0.95264   0.95264   0.00000  Uiso   1.00
H94    H     0.04736   0.33611   0.56917   0.00000  Uiso   1.00
H95    H     0.43083   0.95264   0.66389   0.00000  Uiso   1.00
H96    H     0.33611   0.04736   0.04736   0.00000  Uiso   1.00
H97    H     0.95490   0.95490   0.42685   0.00000  Uiso   1.00
H98    H     0.57315   0.04510   0.33665   0.00000  Uiso   1.00
H99    H     0.95490   0.95490   0.66335   0.00000  Uiso   1.00
H100   H     0.04510   0.57315   0.04510   0.00000  Uiso   1.00
H101   H     0.04736   0.04736   0.33611   0.00000  Uiso   1.00
H102   H     0.04736   0.04736   0.56917   0.00000  Uiso   1.00
H103   H     0.95490   0.42685   0.66335   0.00000  Uiso   1.00
H104   H     0.95264   0.66389   0.43083   0.00000  Uiso   1.00
H105   H     0.95490   0.66335   0.95490   0.00000  Uiso   1.00
H106   H     0.66389   0.95264   0.43083   0.00000  Uiso   1.00
loop_
_geom_bond_atom_site_label_1
_geom_bond_atom_site_label_2
_geom_bond_distance
_geom_bond_site_symmetry_2
_ccdc_geom_bond_type
Zn1    O59     1.914   .     S
Zn1    O62     1.914   .     S
Zn1    O75     1.914   .     S
Zn1    O79     1.931   .     S
Zn2    O70     1.914   .     S
Zn2    O71     1.914   .     S
Zn2    O76     1.914   .     S
Zn2    O79     1.931   .     S
Zn3    O60     1.914   .     S
Zn3    O61     1.914   .     S
Zn3    O72     1.914   .     S
Zn3    O73     1.931   .     S
Zn4    O67     1.914   .     S
Zn4    O69     1.914   .     S
Zn4    O78     1.914   .     S
Zn4    O79     1.931   .     S
Zn5    O57     1.914   .     S
Zn5    O58     1.914   .     S
Zn5    O73     1.931   .     S
Zn5    O74     1.914   .     S
Zn6    O65     1.914   .     S
Zn6    O68     1.914   .     S
Zn6    O73     1.931   .     S
Zn6    O80     1.914   .     S
Zn7    O66     1.914   .     S
Zn7    O73     1.931   .     S
Zn7    O77     1.914   .     S
Zn7    O82     1.914   .     S
Zn8    O63     1.914   .     S
Zn8    O64     1.914   .     S
Zn8    O79     1.931   .     S
Zn8    O81     1.914   .     S
C9     C16     1.285   1_554 A
C9     C56     1.343   .     A
C9     H83     1.140   .     S
C10    C19     1.343   .     A
C10    C21     1.285   1_656 A
C10    H84     1.140   .     S
C11    C28     1.285   1_544 A
C11    C50     1.343   .     A
C11    H85     1.140   .     S
C12    C38     1.506   .     S
C12    C46     1.343   .     A
C12    C47     1.343   .     A
C13    C33     1.285   1_545 A
C13    C41     1.343   .     A
C13    H86     1.140   .     S
C14    C16     1.343   .     A
C14    C17     1.343   .     A
C14    C26     1.506   .     A
C15    C56     1.506   .     S
C15    O66     1.266   .     A
C15    O74     1.266   .     A
C16    C9      1.285   1_556 A
C16    H87     1.140   .     S
C17    C27     1.285   1_556 A
C17    H88     1.140   .     S
C18    C32     1.506   .     A
C18    C37     1.343   .     A
C18    C40     1.343   .     A
C19    C22     1.506   .     S
C19    C49     1.343   .     A
C20    C47     1.285   1_455 A
C20    C51     1.343   .     A
C20    H89     1.140   .     S
C21    C10     1.285   1_454 A
C21    C35     1.343   .     A
C21    H90     1.140   .     S
C22    O59     1.266   .     A
C22    O67     1.266   .     A
C23    C54     1.506   .     S
C23    O63     1.266   .     A
C23    O76     1.266   .     A
C24    C50     1.506   .     S
C24    O77     1.266   .     A
C24    O80     1.266   .     A
C25    C48     1.506   .     A
C25    O69     1.266   .     A
C25    O71     1.266   .     A
C26    O70     1.266   .     A
C26    O75     1.266   .     A
C27    C17     1.285   1_554 A
C27    C56     1.343   .     A
C27    H91     1.140   .     S
C28    C11     1.285   1_566 A
C28    C48     1.343   .     A
C28    H92     1.140   .     S
C29    C35     1.506   .     S
C29    O57     1.266   .     A
C29    O65     1.266   .     A
C30    C36     1.285   1_566 A
C30    C48     1.343   .     A
C30    H93     1.140   .     S
C31    C46     1.285   1_455 A
C31    C51     1.343   .     A
C31    H94     1.140   .     S
C32    O64     1.266   .     A
C32    O78     1.266   .     A
C33    C13     1.285   1_565 A
C33    C54     1.343   .     A
C33    H95     1.140   .     S
C34    C41     1.506   .     S
C34    O60     1.266   .     A
C34    O82     1.266   .     A
C35    C42     1.343   .     A
C36    C30     1.285   1_544 A
C36    C50     1.343   .     A
C36    H96     1.140   .     S
C37    C43     1.285   1_665 A
C37    H97     1.140   .     S
C38    O62     1.266   .     A
C38    O81     1.266   .     A
C39    C41     1.343   .     A
C39    C55     1.285   1_545 A
C39    H98     1.140   .     S
C40    C45     1.285   1_665 A
C40    H99     1.140   .     S
C42    C49     1.285   1_454 A
C42    H100    1.140   .     S
C43    C37     1.285   1_445 A
C43    C53     1.343   .     A
C43    H101    1.140   .     S
C44    C51     1.506   .     A
C44    O58     1.266   .     A
C44    O72     1.266   .     A
C45    C40     1.285   1_445 A
C45    C53     1.343   .     A
C45    H102    1.140   .     S
C46    C31     1.285   1_655 A
C46    H103    1.140   .     S
C47    C20     1.285   1_655 A
C47    H104    1.140   .     S
C49    C42     1.285   1_656 A
C49    H105    1.140   .     S
C52    C53     1.506   .     S
C52    O61     1.266   .     A
C52    O68     1.266   .     A
C54    C55     1.343   .     A
C55    C39     1.285   1_565 A
C55    H106    1.140   .     S
