data_ic300665a_si_002_clean
_audit_creation_date              2015-08-19
_audit_creation_method            'Materials Studio'
_symmetry_space_group_name_H-M    'P1'
_symmetry_Int_Tables_number       1
_symmetry_cell_setting            triclinic
loop_
_symmetry_equiv_pos_as_xyz
  x,y,z
_cell_length_a                    13.8877
_cell_length_b                    22.5663
_cell_length_c                    22.5663
_cell_angle_alpha                 90.0000
_cell_angle_beta                  90.0000
_cell_angle_gamma                 90.0000
loop_
_atom_site_label
_atom_site_type_symbol
_atom_site_fract_x
_atom_site_fract_y
_atom_site_fract_z
_atom_site_U_iso_or_equiv
_atom_site_adp_type
_atom_site_occupancy
Cd1    Cd    0.93743   0.21594   0.02000   0.01267  Uiso   1.00
Cd2    Cd    0.81257   0.28406   0.52000   0.01267  Uiso   1.00
H1     H     0.88290   0.13930   0.90620   0.01267  Uiso   1.00
H2     H     0.89000   0.14920   0.14280   0.01267  Uiso   1.00
H3     H     0.85080   0.15280   0.80630   0.01267  Uiso   1.00
H4     H     0.90370   0.31990   0.11110   0.01267  Uiso   1.00
H5     H     0.89920   0.33280   0.74100   0.01267  Uiso   1.00
H6     H     0.85080   0.16720   0.24100   0.01267  Uiso   1.00
H7     H     0.02960   0.28810   0.91300   0.01267  Uiso   1.00
H8     H     0.84630   0.18010   0.61110   0.01267  Uiso   1.00
H9     H     0.72040   0.21190   0.41300   0.01267  Uiso   1.00
H10    H     0.89920   0.34720   0.30630   0.01267  Uiso   1.00
H11    H     0.74590   0.19540   0.31290   0.01267  Uiso   1.00
H12    H     0.86000   0.35080   0.64280   0.01267  Uiso   1.00
H13    H     0.88550   0.15750   0.70780   0.01267  Uiso   1.00
H14    H     0.00410   0.30460   0.81290   0.01267  Uiso   1.00
H15    H     0.86450   0.34250   0.20780   0.01267  Uiso   1.00
H16    H     0.86710   0.36070   0.40620   0.01267  Uiso   1.00
C1     C     0.86130   0.19954   0.21490   0.01267  Uiso   1.00
C2     C     0.89270   0.28832   0.13806   0.01267  Uiso   1.00
C3     C     0.88870   0.30046   0.71490   0.01267  Uiso   1.00
C4     C     0.86500   0.31106   0.65617   0.01267  Uiso   1.00
C5     C     0.88500   0.18894   0.15617   0.01267  Uiso   1.00
C6     C     0.97690   0.27070   0.83145   0.01267  Uiso   1.00
C7     C     0.85300   0.25660   0.23558   0.01267  Uiso   1.00
C8     C     0.99230   0.26040   0.89100   0.01267  Uiso   1.00
C9     C     0.82880   0.26915   0.29850   0.01267  Uiso   1.00
C10    C     0.77310   0.22930   0.33145   0.01267  Uiso   1.00
C11    C     0.85730   0.21168   0.63806   0.01267  Uiso   1.00
C12    C     0.86940   0.30230   0.19558   0.01267  Uiso   1.00
C13    C     0.90640   0.17388   0.88703   0.01267  Uiso   1.00
C14    C     0.92120   0.23085   0.79850   0.01267  Uiso   1.00
C15    C     0.88060   0.19770   0.69558   0.01267  Uiso   1.00
C16    C     0.86270   0.31846   0.32727   0.01267  Uiso   1.00
C17    C     0.84360   0.32612   0.38703   0.01267  Uiso   1.00
C18    C     0.75770   0.23960   0.39100   0.01267  Uiso   1.00
C19    C     0.88730   0.18154   0.82727   0.01267  Uiso   1.00
C20    C     0.89700   0.24340   0.73558   0.01267  Uiso   1.00
N1     N     0.90100   0.23303   0.11781   0.01267  Uiso   1.00
N2     N     0.95680   0.21333   0.91877   0.01267  Uiso   1.00
N3     N     0.79320   0.28667   0.41877   0.01267  Uiso   1.00
N4     N     0.84900   0.26697   0.61781   0.01267  Uiso   1.00
Cd3    Cd    0.68743   0.48000   0.71594   0.01267  Uiso   1.00
Cd4    Cd    0.56257   0.98000   0.78406   0.01267  Uiso   1.00
H17    H     0.59630   0.88890   0.68010   0.01267  Uiso   1.00
H18    H     0.60080   0.69370   0.65280   0.01267  Uiso   1.00
H19    H     0.63550   0.79220   0.65750   0.01267  Uiso   1.00
H20    H     0.49590   0.18710   0.69540   0.01267  Uiso   1.00
H21    H     0.63290   0.59380   0.63930   0.01267  Uiso   1.00
H22    H     0.61450   0.29220   0.84250   0.01267  Uiso   1.00
H23    H     0.64920   0.75900   0.83280   0.01267  Uiso   1.00
H24    H     0.61710   0.09380   0.86070   0.01267  Uiso   1.00
H25    H     0.65370   0.38890   0.81990   0.01267  Uiso   1.00
H26    H     0.77960   0.58700   0.78810   0.01267  Uiso   1.00
H27    H     0.64920   0.19370   0.84720   0.01267  Uiso   1.00
H28    H     0.60080   0.25900   0.66720   0.01267  Uiso   1.00
H29    H     0.75410   0.68710   0.80460   0.01267  Uiso   1.00
H30    H     0.64000   0.35720   0.64920   0.01267  Uiso   1.00
H31    H     0.47040   0.08700   0.71190   0.01267  Uiso   1.00
H32    H     0.61000   0.85720   0.85080   0.01267  Uiso   1.00
C21    C     0.57880   0.20150   0.76915   0.01267  Uiso   1.00
C22    C     0.52310   0.16855   0.72930   0.01267  Uiso   1.00
C23    C     0.61500   0.84383   0.81106   0.01267  Uiso   1.00
C24    C     0.63060   0.80442   0.69770   0.01267  Uiso   1.00
C25    C     0.63730   0.67273   0.68154   0.01267  Uiso   1.00
C26    C     0.59360   0.11297   0.82612   0.01267  Uiso   1.00
C27    C     0.63500   0.34383   0.68894   0.01267  Uiso   1.00
C28    C     0.50770   0.10900   0.73960   0.01267  Uiso   1.00
C29    C     0.61940   0.30442   0.80230   0.01267  Uiso   1.00
C30    C     0.61130   0.28510   0.69954   0.01267  Uiso   1.00
C31    C     0.65640   0.61297   0.67388   0.01267  Uiso   1.00
C32    C     0.64270   0.36194   0.78832   0.01267  Uiso   1.00
C33    C     0.72690   0.66855   0.77070   0.01267  Uiso   1.00
C34    C     0.67120   0.70150   0.73085   0.01267  Uiso   1.00
C35    C     0.63870   0.78510   0.80046   0.01267  Uiso   1.00
C36    C     0.60300   0.26442   0.75660   0.01267  Uiso   1.00
C37    C     0.60730   0.86194   0.71168   0.01267  Uiso   1.00
C38    C     0.74230   0.60900   0.76040   0.01267  Uiso   1.00
C39    C     0.61270   0.17273   0.81846   0.01267  Uiso   1.00
C40    C     0.64700   0.76442   0.74340   0.01267  Uiso   1.00
N5     N     0.59900   0.88219   0.76697   0.01267  Uiso   1.00
N6     N     0.65100   0.38219   0.73303   0.01267  Uiso   1.00
N7     N     0.70680   0.58123   0.71333   0.01267  Uiso   1.00
N8     N     0.54320   0.08123   0.78667   0.01267  Uiso   1.00
Cd5    Cd    0.43743   0.78406   0.98000   0.01267  Uiso   1.00
Cd6    Cd    0.31257   0.71594   0.48000   0.01267  Uiso   1.00
H33    H     0.40370   0.68010   0.88890   0.01267  Uiso   1.00
H34    H     0.24590   0.80460   0.68710   0.01267  Uiso   1.00
H35    H     0.36000   0.64920   0.35720   0.01267  Uiso   1.00
H36    H     0.38550   0.84250   0.29220   0.01267  Uiso   1.00
H37    H     0.36710   0.63930   0.59380   0.01267  Uiso   1.00
H38    H     0.52960   0.71190   0.08700   0.01267  Uiso   1.00
H39    H     0.39920   0.65280   0.69370   0.01267  Uiso   1.00
H40    H     0.22040   0.78810   0.58700   0.01267  Uiso   1.00
H41    H     0.36450   0.65750   0.79220   0.01267  Uiso   1.00
H42    H     0.39000   0.85080   0.85720   0.01267  Uiso   1.00
H43    H     0.35080   0.83280   0.75900   0.01267  Uiso   1.00
H44    H     0.35080   0.84720   0.19370   0.01267  Uiso   1.00
H45    H     0.50410   0.69540   0.18710   0.01267  Uiso   1.00
H46    H     0.38290   0.86070   0.09380   0.01267  Uiso   1.00
H47    H     0.34630   0.81990   0.38890   0.01267  Uiso   1.00
H48    H     0.39920   0.66720   0.25900   0.01267  Uiso   1.00
C41    C     0.38500   0.81106   0.84383   0.01267  Uiso   1.00
C42    C     0.25770   0.76040   0.60900   0.01267  Uiso   1.00
C43    C     0.35300   0.74340   0.76442   0.01267  Uiso   1.00
C44    C     0.42120   0.76915   0.20150   0.01267  Uiso   1.00
C45    C     0.38730   0.81846   0.17273   0.01267  Uiso   1.00
C46    C     0.39700   0.75660   0.26442   0.01267  Uiso   1.00
C47    C     0.39270   0.71168   0.86194   0.01267  Uiso   1.00
C48    C     0.27310   0.77070   0.66855   0.01267  Uiso   1.00
C49    C     0.34360   0.67388   0.61297   0.01267  Uiso   1.00
C50    C     0.40640   0.82612   0.11297   0.01267  Uiso   1.00
C51    C     0.36940   0.69770   0.80442   0.01267  Uiso   1.00
C52    C     0.47690   0.72930   0.16855   0.01267  Uiso   1.00
C53    C     0.35730   0.78832   0.36194   0.01267  Uiso   1.00
C54    C     0.49230   0.73960   0.10900   0.01267  Uiso   1.00
C55    C     0.36270   0.68154   0.67273   0.01267  Uiso   1.00
C56    C     0.38870   0.69954   0.28510   0.01267  Uiso   1.00
C57    C     0.36500   0.68894   0.34383   0.01267  Uiso   1.00
C58    C     0.36130   0.80046   0.78510   0.01267  Uiso   1.00
C59    C     0.32880   0.73085   0.70150   0.01267  Uiso   1.00
C60    C     0.38060   0.80230   0.30442   0.01267  Uiso   1.00
N9     N     0.40100   0.76697   0.88219   0.01267  Uiso   1.00
N10    N     0.34900   0.73303   0.38219   0.01267  Uiso   1.00
N11    N     0.45680   0.78667   0.08123   0.01267  Uiso   1.00
N12    N     0.29320   0.71333   0.58123   0.01267  Uiso   1.00
Cd7    Cd    0.18743   0.52000   0.28406   0.01267  Uiso   1.00
Cd8    Cd    0.06257   0.02000   0.21594   0.01267  Uiso   1.00
H49    H     0.97040   0.91300   0.28810   0.01267  Uiso   1.00
H50    H     0.25410   0.31290   0.19540   0.01267  Uiso   1.00
H51    H     0.14920   0.80630   0.15280   0.01267  Uiso   1.00
H52    H     0.27960   0.41300   0.21190   0.01267  Uiso   1.00
H53    H     0.14920   0.24100   0.16720   0.01267  Uiso   1.00
H54    H     0.11000   0.14280   0.14920   0.01267  Uiso   1.00
H55    H     0.13550   0.20780   0.34250   0.01267  Uiso   1.00
H56    H     0.11710   0.90620   0.13930   0.01267  Uiso   1.00
H57    H     0.13290   0.40620   0.36070   0.01267  Uiso   1.00
H58    H     0.15370   0.61110   0.18010   0.01267  Uiso   1.00
H59    H     0.10080   0.74100   0.33280   0.01267  Uiso   1.00
H60    H     0.10080   0.30630   0.34720   0.01267  Uiso   1.00
H61    H     0.14000   0.64280   0.35080   0.01267  Uiso   1.00
H62    H     0.09630   0.11110   0.31990   0.01267  Uiso   1.00
H63    H     0.11450   0.70780   0.15750   0.01267  Uiso   1.00
H64    H     0.99590   0.81290   0.30460   0.01267  Uiso   1.00
C61    C     0.10300   0.73558   0.24340   0.01267  Uiso   1.00
C62    C     0.17120   0.29850   0.26915   0.01267  Uiso   1.00
C63    C     0.11500   0.15617   0.18894   0.01267  Uiso   1.00
C64    C     0.24230   0.39100   0.23960   0.01267  Uiso   1.00
C65    C     0.13060   0.19558   0.30230   0.01267  Uiso   1.00
C66    C     0.14270   0.63806   0.21168   0.01267  Uiso   1.00
C67    C     0.11940   0.69558   0.19770   0.01267  Uiso   1.00
C68    C     0.13730   0.32727   0.31846   0.01267  Uiso   1.00
C69    C     0.22690   0.33145   0.22930   0.01267  Uiso   1.00
C70    C     0.15640   0.38703   0.32612   0.01267  Uiso   1.00
C71    C     0.13870   0.21490   0.19954   0.01267  Uiso   1.00
C72    C     0.09360   0.88703   0.17388   0.01267  Uiso   1.00
C73    C     0.11130   0.71490   0.30046   0.01267  Uiso   1.00
C74    C     0.11270   0.82727   0.18154   0.01267  Uiso   1.00
C75    C     0.13500   0.65617   0.31106   0.01267  Uiso   1.00
C76    C     0.02310   0.83145   0.27070   0.01267  Uiso   1.00
C77    C     0.10730   0.13806   0.28832   0.01267  Uiso   1.00
C78    C     0.00770   0.89100   0.26040   0.01267  Uiso   1.00
C79    C     0.07880   0.79850   0.23085   0.01267  Uiso   1.00
C80    C     0.14700   0.23558   0.25660   0.01267  Uiso   1.00
N13    N     0.20680   0.41877   0.28667   0.01267  Uiso   1.00
N14    N     0.04320   0.91877   0.21333   0.01267  Uiso   1.00
N15    N     0.09900   0.11781   0.23303   0.01267  Uiso   1.00
N16    N     0.15100   0.61781   0.26697   0.01267  Uiso   1.00
H65    H     0.78650   0.44000   0.10210   0.01267  Uiso   1.00
H66    H     0.84080   0.47120   0.30370   0.01267  Uiso   1.00
H67    H     0.28990   0.20650   0.06370   0.01267  Uiso   1.00
H68    H     0.48330   0.42830   0.05760   0.01267  Uiso   1.00
H69    H     0.32420   0.41110   0.08550   0.01267  Uiso   1.00
H70    H     0.43850   0.24620   0.08960   0.01267  Uiso   1.00
H71    H     0.62830   0.46340   0.08810   0.01267  Uiso   1.00
H72    H     0.64720   0.39330   0.08480   0.01267  Uiso   1.00
H73    H     0.68800   0.44300   0.27030   0.01267  Uiso   1.00
H74    H     0.17580   0.37020   0.05940   0.01267  Uiso   1.00
H75    H     0.93920   0.46620   0.13550   0.01267  Uiso   1.00
H76    H     0.46710   0.43630   0.12760   0.01267  Uiso   1.00
C81    C     0.72330   0.43896   0.18340   0.01267  Uiso   1.00
C82    C     0.79760   0.44613   0.14325   0.01267  Uiso   1.00
C83    C     0.73910   0.44810   0.24280   0.01267  Uiso   1.00
C84    C     0.83010   0.46490   0.26260   0.01267  Uiso   1.00
C85    C     0.61010   0.42470   0.10530   0.01267  Uiso   1.00
C86    C     0.00400   0.49134   0.24328   0.01267  Uiso   1.00
C87    C     0.38510   0.27167   0.08300   0.01267  Uiso   1.00
C88    C     0.50390   0.41420   0.09720   0.01267  Uiso   1.00
C89    C     0.29660   0.24822   0.06793   0.01267  Uiso   1.00
C90    C     0.88800   0.46219   0.16321   0.01267  Uiso   1.00
C91    C     0.22940   0.34477   0.06542   0.01267  Uiso   1.00
C92    C     0.39580   0.33280   0.08859   0.01267  Uiso   1.00
C93    C     0.12140   0.25856   0.04268   0.01267  Uiso   1.00
C94    C     0.90560   0.47248   0.22255   0.01267  Uiso   1.00
C95    C     0.21710   0.28455   0.05886   0.01267  Uiso   1.00
C96    C     0.31780   0.36948   0.08064   0.01267  Uiso   1.00
O1     O     0.10852   0.20354   0.04445   0.01267  Uiso   1.00
O2     O     0.07040   0.49784   0.20616   0.01267  Uiso   1.00
O3     O     0.48620   0.35211   0.10272   0.01267  Uiso   1.00
O4     O     0.05390   0.29327   0.02785   0.01267  Uiso   1.00
O5     O     0.63100   0.42388   0.16747   0.01267  Uiso   1.00
O6     O     0.01830   0.50021   0.29804   0.01267  Uiso   1.00
H77    H     0.57420   0.12980   0.55940   0.01267  Uiso   1.00
H78    H     0.06200   0.05700   0.77030   0.01267  Uiso   1.00
H79    H     0.31150   0.25380   0.58960   0.01267  Uiso   1.00
H80    H     0.10280   0.10670   0.58480   0.01267  Uiso   1.00
H81    H     0.81080   0.03380   0.63550   0.01267  Uiso   1.00
H82    H     0.96350   0.06000   0.60210   0.01267  Uiso   1.00
H83    H     0.28290   0.06370   0.62760   0.01267  Uiso   1.00
H84    H     0.12170   0.03660   0.58810   0.01267  Uiso   1.00
H85    H     0.42580   0.08890   0.58550   0.01267  Uiso   1.00
H86    H     0.90920   0.02880   0.80370   0.01267  Uiso   1.00
H87    H     0.46010   0.29350   0.56370   0.01267  Uiso   1.00
H88    H     0.26670   0.07170   0.55760   0.01267  Uiso   1.00
C97    C     0.13990   0.07530   0.60530   0.01267  Uiso   1.00
C98    C     0.62860   0.24144   0.54268   0.01267  Uiso   1.00
C99    C     0.43220   0.13052   0.58064   0.01267  Uiso   1.00
C100   C     0.02670   0.06104   0.68340   0.01267  Uiso   1.00
C101   C     0.01090   0.05190   0.74280   0.01267  Uiso   1.00
C102   C     0.91990   0.03510   0.76260   0.01267  Uiso   1.00
C103   C     0.35420   0.16720   0.58859   0.01267  Uiso   1.00
C104   C     0.86200   0.03781   0.66321   0.01267  Uiso   1.00
C105   C     0.24610   0.08580   0.59720   0.01267  Uiso   1.00
C106   C     0.52060   0.15523   0.56542   0.01267  Uiso   1.00
C107   C     0.95240   0.05387   0.64325   0.01267  Uiso   1.00
C108   C     0.74600   0.00866   0.74328   0.01267  Uiso   1.00
C109   C     0.36490   0.22833   0.58300   0.01267  Uiso   1.00
C110   C     0.53290   0.21545   0.55886   0.01267  Uiso   1.00
C111   C     0.45340   0.25178   0.56793   0.01267  Uiso   1.00
C112   C     0.84440   0.02752   0.72255   0.01267  Uiso   1.00
O7     O     0.64148   0.29646   0.54445   0.01267  Uiso   1.00
O8     O     0.11900   0.07612   0.66747   0.01267  Uiso   1.00
O9     O     0.67960   0.00216   0.70616   0.01267  Uiso   1.00
O10    O     0.73170   0.99979   0.79804   0.01267  Uiso   1.00
O11    O     0.69610   0.20673   0.52785   0.01267  Uiso   1.00
O12    O     0.26380   0.14789   0.60272   0.01267  Uiso   1.00
H89    H     0.68920   0.36450   0.96620   0.01267  Uiso   1.00
H90    H     0.43800   0.22970   0.94300   0.01267  Uiso   1.00
H91    H     0.92580   0.44060   0.87020   0.01267  Uiso   1.00
H92    H     0.23330   0.44240   0.92830   0.01267  Uiso   1.00
H93    H     0.37830   0.41190   0.96340   0.01267  Uiso   1.00
H94    H     0.18850   0.41040   0.74620   0.01267  Uiso   1.00
H95    H     0.03990   0.43630   0.70650   0.01267  Uiso   1.00
H96    H     0.53650   0.39790   0.94000   0.01267  Uiso   1.00
H97    H     0.21710   0.37240   0.93630   0.01267  Uiso   1.00
H98    H     0.59080   0.19630   0.97120   0.01267  Uiso   1.00
H99    H     0.39720   0.41520   0.89330   0.01267  Uiso   1.00
H100   H     0.07420   0.41450   0.91110   0.01267  Uiso   1.00
C113   C     0.65560   0.27745   0.97248   0.01267  Uiso   1.00
C114   C     0.97940   0.43458   0.84477   0.01267  Uiso   1.00
C115   C     0.47330   0.31660   0.93896   0.01267  Uiso   1.00
C116   C     0.75400   0.25672   0.99134   0.01267  Uiso   1.00
C117   C     0.96710   0.44114   0.78455   0.01267  Uiso   1.00
C118   C     0.63800   0.33679   0.96219   0.01267  Uiso   1.00
C119   C     0.36010   0.39470   0.92470   0.01267  Uiso   1.00
C120   C     0.48910   0.25720   0.94810   0.01267  Uiso   1.00
C121   C     0.14580   0.41141   0.83280   0.01267  Uiso   1.00
C122   C     0.54760   0.35675   0.94613   0.01267  Uiso   1.00
C123   C     0.87140   0.45732   0.75856   0.01267  Uiso   1.00
C124   C     0.58010   0.23740   0.96490   0.01267  Uiso   1.00
C125   C     0.13510   0.41700   0.77167   0.01267  Uiso   1.00
C126   C     0.25390   0.40280   0.91420   0.01267  Uiso   1.00
C127   C     0.06780   0.41936   0.86948   0.01267  Uiso   1.00
C128   C     0.04660   0.43207   0.74822   0.01267  Uiso   1.00
O13    O     0.82040   0.29384   0.99784   0.01267  Uiso   1.00
O14    O     0.76830   0.20196   0.00021   0.01267  Uiso   1.00
O15    O     0.85852   0.45555   0.70354   0.01267  Uiso   1.00
O16    O     0.80390   0.47215   0.79327   0.01267  Uiso   1.00
O17    O     0.23620   0.39728   0.85211   0.01267  Uiso   1.00
O18    O     0.38100   0.33253   0.92388   0.01267  Uiso   1.00
H101   H     0.87170   0.91190   0.53660   0.01267  Uiso   1.00
H102   H     0.01670   0.94240   0.57170   0.01267  Uiso   1.00
H103   H     0.03290   0.87240   0.56370   0.01267  Uiso   1.00
H104   H     0.06150   0.91040   0.75380   0.01267  Uiso   1.00
H105   H     0.71350   0.89790   0.56000   0.01267  Uiso   1.00
H106   H     0.17580   0.91450   0.58890   0.01267  Uiso   1.00
H107   H     0.32420   0.94060   0.62980   0.01267  Uiso   1.00
H108   H     0.85280   0.91520   0.60670   0.01267  Uiso   1.00
H109   H     0.81200   0.72970   0.55700   0.01267  Uiso   1.00
H110   H     0.56080   0.86450   0.53380   0.01267  Uiso   1.00
H111   H     0.21010   0.93630   0.79350   0.01267  Uiso   1.00
H112   H     0.65920   0.69630   0.52880   0.01267  Uiso   1.00
C129   C     0.11490   0.91700   0.72833   0.01267  Uiso   1.00
C130   C     0.99610   0.90280   0.58580   0.01267  Uiso   1.00
C131   C     0.37860   0.95732   0.74144   0.01267  Uiso   1.00
C132   C     0.10420   0.91141   0.66720   0.01267  Uiso   1.00
C133   C     0.27060   0.93458   0.65523   0.01267  Uiso   1.00
C134   C     0.70240   0.85675   0.55387   0.01267  Uiso   1.00
C135   C     0.76090   0.75720   0.55190   0.01267  Uiso   1.00
C136   C     0.77670   0.81660   0.56104   0.01267  Uiso   1.00
C137   C     0.20340   0.93207   0.75178   0.01267  Uiso   1.00
C138   C     0.88990   0.89470   0.57530   0.01267  Uiso   1.00
C139   C     0.49600   0.75672   0.50866   0.01267  Uiso   1.00
C140   C     0.28290   0.94114   0.71545   0.01267  Uiso   1.00
C141   C     0.66990   0.73740   0.53510   0.01267  Uiso   1.00
C142   C     0.59440   0.77745   0.52752   0.01267  Uiso   1.00
C143   C     0.61200   0.83679   0.53781   0.01267  Uiso   1.00
C144   C     0.18220   0.91936   0.63052   0.01267  Uiso   1.00
O19    O     0.48170   0.70196   0.49979   0.01267  Uiso   1.00
O20    O     0.86900   0.83253   0.57612   0.01267  Uiso   1.00
O21    O     0.01380   0.89728   0.64789   0.01267  Uiso   1.00
O22    O     0.39148   0.95555   0.79646   0.01267  Uiso   1.00
O23    O     0.44610   0.97215   0.70673   0.01267  Uiso   1.00
O24    O     0.42960   0.79384   0.50216   0.01267  Uiso   1.00
H113   H     0.14720   0.60670   0.91520   0.01267  Uiso   1.00
H114   H     0.78990   0.79350   0.93630   0.01267  Uiso   1.00
H115   H     0.34080   0.52880   0.69630   0.01267  Uiso   1.00
H116   H     0.67580   0.62980   0.94060   0.01267  Uiso   1.00
H117   H     0.28650   0.56000   0.89790   0.01267  Uiso   1.00
H118   H     0.96710   0.56370   0.87240   0.01267  Uiso   1.00
H119   H     0.12830   0.53660   0.91190   0.01267  Uiso   1.00
H120   H     0.98330   0.57170   0.94240   0.01267  Uiso   1.00
H121   H     0.82420   0.58890   0.91450   0.01267  Uiso   1.00
H122   H     0.93850   0.75380   0.91040   0.01267  Uiso   1.00
H123   H     0.18800   0.55700   0.72970   0.01267  Uiso   1.00
H124   H     0.43920   0.53380   0.86450   0.01267  Uiso   1.00
C145   C     0.79660   0.75178   0.93207   0.01267  Uiso   1.00
C146   C     0.81780   0.63052   0.91936   0.01267  Uiso   1.00
C147   C     0.23910   0.55190   0.75720   0.01267  Uiso   1.00
C148   C     0.62140   0.74144   0.95732   0.01267  Uiso   1.00
C149   C     0.00390   0.58580   0.90280   0.01267  Uiso   1.00
C150   C     0.72940   0.65523   0.93458   0.01267  Uiso   1.00
C151   C     0.33010   0.53510   0.73740   0.01267  Uiso   1.00
C152   C     0.50400   0.50866   0.75672   0.01267  Uiso   1.00
C153   C     0.71710   0.71545   0.94114   0.01267  Uiso   1.00
C154   C     0.11010   0.57530   0.89470   0.01267  Uiso   1.00
C155   C     0.22330   0.56104   0.81660   0.01267  Uiso   1.00
C156   C     0.38800   0.53781   0.83679   0.01267  Uiso   1.00
C157   C     0.40560   0.52752   0.77745   0.01267  Uiso   1.00
C158   C     0.29760   0.55387   0.85675   0.01267  Uiso   1.00
C159   C     0.89580   0.66720   0.91141   0.01267  Uiso   1.00
C160   C     0.88510   0.72833   0.91700   0.01267  Uiso   1.00
O25    O     0.57040   0.50216   0.79384   0.01267  Uiso   1.00
O26    O     0.60852   0.79646   0.95555   0.01267  Uiso   1.00
O27    O     0.51830   0.49979   0.70196   0.01267  Uiso   1.00
O28    O     0.98620   0.64789   0.89728   0.01267  Uiso   1.00
O29    O     0.13100   0.57612   0.83253   0.01267  Uiso   1.00
O30    O     0.55390   0.70673   0.97215   0.01267  Uiso   1.00
H125   H     0.62170   0.96340   0.41190   0.01267  Uiso   1.00
H126   H     0.31080   0.96620   0.36450   0.01267  Uiso   1.00
H127   H     0.76670   0.92830   0.44240   0.01267  Uiso   1.00
H128   H     0.81150   0.74620   0.41040   0.01267  Uiso   1.00
H129   H     0.60280   0.89330   0.41520   0.01267  Uiso   1.00
H130   H     0.96010   0.70650   0.43630   0.01267  Uiso   1.00
H131   H     0.92580   0.91110   0.41450   0.01267  Uiso   1.00
H132   H     0.78290   0.93630   0.37240   0.01267  Uiso   1.00
H133   H     0.56200   0.94300   0.22970   0.01267  Uiso   1.00
H134   H     0.46350   0.94000   0.39790   0.01267  Uiso   1.00
H135   H     0.40920   0.97120   0.19630   0.01267  Uiso   1.00
H136   H     0.07420   0.87020   0.44060   0.01267  Uiso   1.00
C161   C     0.36200   0.96219   0.33679   0.01267  Uiso   1.00
C162   C     0.63990   0.92470   0.39470   0.01267  Uiso   1.00
C163   C     0.24600   0.99134   0.25672   0.01267  Uiso   1.00
C164   C     0.74610   0.91420   0.40280   0.01267  Uiso   1.00
C165   C     0.85420   0.83280   0.41141   0.01267  Uiso   1.00
C166   C     0.86490   0.77167   0.41700   0.01267  Uiso   1.00
C167   C     0.02060   0.84477   0.43458   0.01267  Uiso   1.00
C168   C     0.41990   0.96490   0.23740   0.01267  Uiso   1.00
C169   C     0.51090   0.94810   0.25720   0.01267  Uiso   1.00
C170   C     0.34440   0.97248   0.27745   0.01267  Uiso   1.00
C171   C     0.93220   0.86948   0.41936   0.01267  Uiso   1.00
C172   C     0.03290   0.78455   0.44114   0.01267  Uiso   1.00
C173   C     0.45240   0.94613   0.35675   0.01267  Uiso   1.00
C174   C     0.95340   0.74822   0.43207   0.01267  Uiso   1.00
C175   C     0.52670   0.93896   0.31660   0.01267  Uiso   1.00
C176   C     0.12860   0.75856   0.45732   0.01267  Uiso   1.00
O31    O     0.14148   0.70354   0.45555   0.01267  Uiso   1.00
O32    O     0.76380   0.85211   0.39728   0.01267  Uiso   1.00
O33    O     0.23170   0.00021   0.20196   0.01267  Uiso   1.00
O34    O     0.17960   0.99784   0.29384   0.01267  Uiso   1.00
O35    O     0.19610   0.79327   0.47215   0.01267  Uiso   1.00
O36    O     0.61900   0.92388   0.33253   0.01267  Uiso   1.00
H137   H     0.51670   0.05760   0.42830   0.01267  Uiso   1.00
H138   H     0.15920   0.30370   0.47120   0.01267  Uiso   1.00
H139   H     0.21350   0.10210   0.44000   0.01267  Uiso   1.00
H140   H     0.37170   0.08810   0.46340   0.01267  Uiso   1.00
H141   H     0.56150   0.08960   0.24620   0.01267  Uiso   1.00
H142   H     0.67580   0.08550   0.41110   0.01267  Uiso   1.00
H143   H     0.53290   0.12760   0.43630   0.01267  Uiso   1.00
H144   H     0.31200   0.27030   0.44300   0.01267  Uiso   1.00
H145   H     0.06080   0.13550   0.46620   0.01267  Uiso   1.00
H146   H     0.35280   0.08480   0.39330   0.01267  Uiso   1.00
H147   H     0.71010   0.06370   0.20650   0.01267  Uiso   1.00
H148   H     0.82420   0.05940   0.37020   0.01267  Uiso   1.00
C177   C     0.60420   0.08859   0.33280   0.01267  Uiso   1.00
C178   C     0.61490   0.08300   0.27167   0.01267  Uiso   1.00
C179   C     0.99600   0.24328   0.49134   0.01267  Uiso   1.00
C180   C     0.09440   0.22255   0.47248   0.01267  Uiso   1.00
C181   C     0.38990   0.10530   0.42470   0.01267  Uiso   1.00
C182   C     0.11200   0.16321   0.46219   0.01267  Uiso   1.00
C183   C     0.70340   0.06793   0.24822   0.01267  Uiso   1.00
C184   C     0.20240   0.14325   0.44613   0.01267  Uiso   1.00
C185   C     0.26090   0.24280   0.44810   0.01267  Uiso   1.00
C186   C     0.27670   0.18340   0.43896   0.01267  Uiso   1.00
C187   C     0.78290   0.05886   0.28455   0.01267  Uiso   1.00
C188   C     0.49610   0.09720   0.41420   0.01267  Uiso   1.00
C189   C     0.77060   0.06542   0.34477   0.01267  Uiso   1.00
C190   C     0.68220   0.08064   0.36948   0.01267  Uiso   1.00
C191   C     0.87860   0.04268   0.25856   0.01267  Uiso   1.00
C192   C     0.16990   0.26260   0.46490   0.01267  Uiso   1.00
O37    O     0.36900   0.16747   0.42388   0.01267  Uiso   1.00
O38    O     0.51380   0.10272   0.35211   0.01267  Uiso   1.00
O39    O     0.92960   0.20616   0.49784   0.01267  Uiso   1.00
O40    O     0.94610   0.02785   0.29327   0.01267  Uiso   1.00
O41    O     0.98170   0.29804   0.50021   0.01267  Uiso   1.00
O42    O     0.89148   0.04445   0.20354   0.01267  Uiso   1.00
H149   H     0.03650   0.60210   0.06000   0.01267  Uiso   1.00
H150   H     0.57420   0.58550   0.08890   0.01267  Uiso   1.00
H151   H     0.87830   0.58810   0.03660   0.01267  Uiso   1.00
H152   H     0.93800   0.77030   0.05700   0.01267  Uiso   1.00
H153   H     0.71710   0.62760   0.06370   0.01267  Uiso   1.00
H154   H     0.73330   0.55760   0.07170   0.01267  Uiso   1.00
H155   H     0.68850   0.58960   0.25380   0.01267  Uiso   1.00
H156   H     0.18920   0.63550   0.03380   0.01267  Uiso   1.00
H157   H     0.09080   0.80370   0.02880   0.01267  Uiso   1.00
H158   H     0.53990   0.56370   0.29350   0.01267  Uiso   1.00
H159   H     0.89720   0.58480   0.10670   0.01267  Uiso   1.00
H160   H     0.42580   0.55940   0.12980   0.01267  Uiso   1.00
C193   C     0.97330   0.68340   0.06104   0.01267  Uiso   1.00
C194   C     0.25400   0.74328   0.00866   0.01267  Uiso   1.00
C195   C     0.47940   0.56542   0.15523   0.01267  Uiso   1.00
C196   C     0.75390   0.59720   0.08580   0.01267  Uiso   1.00
C197   C     0.54660   0.56793   0.25178   0.01267  Uiso   1.00
C198   C     0.13800   0.66321   0.03781   0.01267  Uiso   1.00
C199   C     0.64580   0.58859   0.16720   0.01267  Uiso   1.00
C200   C     0.08010   0.76260   0.03510   0.01267  Uiso   1.00
C201   C     0.86010   0.60530   0.07530   0.01267  Uiso   1.00
C202   C     0.04760   0.64325   0.05387   0.01267  Uiso   1.00
C203   C     0.56780   0.58064   0.13052   0.01267  Uiso   1.00
C204   C     0.37140   0.54268   0.24144   0.01267  Uiso   1.00
C205   C     0.98910   0.74280   0.05190   0.01267  Uiso   1.00
C206   C     0.15560   0.72255   0.02752   0.01267  Uiso   1.00
C207   C     0.63510   0.58300   0.22833   0.01267  Uiso   1.00
C208   C     0.46710   0.55886   0.21545   0.01267  Uiso   1.00
O43    O     0.35852   0.54445   0.29646   0.01267  Uiso   1.00
O44    O     0.73620   0.60272   0.14789   0.01267  Uiso   1.00
O45    O     0.30390   0.52785   0.20673   0.01267  Uiso   1.00
O46    O     0.26830   0.79804   0.99979   0.01267  Uiso   1.00
O47    O     0.32040   0.70616   0.00216   0.01267  Uiso   1.00
O48    O     0.88100   0.66747   0.07612   0.01267  Uiso   1.00
