data_ic402692p_si_003_clean
_audit_creation_date              2015-08-19
_audit_creation_method            'Materials Studio'
_symmetry_space_group_name_H-M    'P1'
_symmetry_Int_Tables_number       1
_symmetry_cell_setting            triclinic
loop_
_symmetry_equiv_pos_as_xyz
  x,y,z
_cell_length_a                    13.8710
_cell_length_b                    15.1020
_cell_length_c                    19.9940
_cell_angle_alpha                 90.0000
_cell_angle_beta                  90.0000
_cell_angle_gamma                 94.6900
loop_
_atom_site_label
_atom_site_type_symbol
_atom_site_fract_x
_atom_site_fract_y
_atom_site_fract_z
_atom_site_U_iso_or_equiv
_atom_site_adp_type
_atom_site_occupancy
Zn1    Zn    0.06754   0.55534   0.65990   0.01267  Uiso   1.00
Zn2    Zn    0.55377   0.92992   0.56264   0.01267  Uiso   1.00
Zn3    Zn    0.93246   0.94466   0.15990   0.01267  Uiso   1.00
Zn4    Zn    0.93246   0.44466   0.34010   0.01267  Uiso   1.00
Zn5    Zn    0.44623   0.07008   0.43736   0.01267  Uiso   1.00
Zn6    Zn    0.06754   0.05534   0.84010   0.01267  Uiso   1.00
Zn7    Zn    0.00000   0.50000   0.50000   0.01267  Uiso   1.00
Zn8    Zn    0.55377   0.42992   0.93736   0.01267  Uiso   1.00
Zn9    Zn    0.00000   0.00000   0.00000   0.01267  Uiso   1.00
Zn10   Zn    0.44623   0.57008   0.06264   0.01267  Uiso   1.00
H1     H     0.93900   0.80600   0.94700   0.01267  Uiso   1.00
H2     H     0.81000   0.47300   0.75100   0.01267  Uiso   1.00
H3     H     0.54600   0.84300   0.77160   0.01267  Uiso   1.00
H4     H     0.25800   0.39300   0.11400   0.01267  Uiso   1.00
H5     H     0.71100   0.22500   0.43000   0.01267  Uiso   1.00
H6     H     0.49800   0.80000   0.98900   0.01267  Uiso   1.00
H7     H     0.28900   0.77500   0.57000   0.01267  Uiso   1.00
H8     H     0.28900   0.27500   0.93000   0.01267  Uiso   1.00
H9     H     0.19000   0.02700   0.25100   0.01267  Uiso   1.00
H10    H     0.45400   0.65700   0.27160   0.01267  Uiso   1.00
H11    H     0.50200   0.70000   0.48900   0.01267  Uiso   1.00
H12    H     0.74200   0.10700   0.61400   0.01267  Uiso   1.00
H13    H     0.71800   0.90300   0.93400   0.01267  Uiso   1.00
H14    H     0.71100   0.72500   0.07000   0.01267  Uiso   1.00
H15    H     0.54600   0.34300   0.72840   0.01267  Uiso   1.00
H16    H     0.71800   0.40300   0.56600   0.01267  Uiso   1.00
H17    H     0.49800   0.30000   0.51100   0.01267  Uiso   1.00
H18    H     0.19000   0.52700   0.24900   0.01267  Uiso   1.00
H19    H     0.93900   0.30600   0.55300   0.01267  Uiso   1.00
H20    H     0.81000   0.97300   0.74900   0.01267  Uiso   1.00
H21    H     0.45400   0.15700   0.22840   0.01267  Uiso   1.00
H22    H     0.03100   0.38800   0.20800   0.01267  Uiso   1.00
H23    H     0.25800   0.89300   0.38600   0.01267  Uiso   1.00
H24    H     0.28200   0.59700   0.43400   0.01267  Uiso   1.00
H25    H     0.28200   0.09700   0.06600   0.01267  Uiso   1.00
H26    H     0.06100   0.19400   0.05300   0.01267  Uiso   1.00
H27    H     0.03100   0.88800   0.29200   0.01267  Uiso   1.00
H28    H     0.74200   0.60700   0.88600   0.01267  Uiso   1.00
H29    H     0.96900   0.61200   0.79200   0.01267  Uiso   1.00
H30    H     0.96900   0.11200   0.70800   0.01267  Uiso   1.00
H31    H     0.06100   0.69400   0.44700   0.01267  Uiso   1.00
H32    H     0.50200   0.20000   0.01100   0.01267  Uiso   1.00
C1     C     0.25200   0.27740   0.97329   0.01267  Uiso   1.00
C2     C     0.72310   0.79360   0.43533   0.01267  Uiso   1.00
C3     C     0.85100   0.20400   0.59065   0.01267  Uiso   1.00
C4     C     0.16890   0.31060   0.60692   0.01267  Uiso   1.00
C5     C     0.12260   0.39660   0.60133   0.01267  Uiso   1.00
C6     C     0.71430   0.15960   0.52114   0.01267  Uiso   1.00
C7     C     0.34440   0.58560   0.17722   0.01267  Uiso   1.00
C8     C     0.16730   0.22520   0.98428   0.01267  Uiso   1.00
C9     C     0.25170   0.64860   0.88259   0.01267  Uiso   1.00
C10    C     0.32690   0.09080   0.24812   0.01267  Uiso   1.00
C11    C     0.18610   0.17290   0.66606   0.01267  Uiso   1.00
C12    C     0.61950   0.86520   0.86273   0.01267  Uiso   1.00
C13    C     0.83110   0.18940   0.10692   0.01267  Uiso   1.00
C14    C     0.83760   0.88700   0.27537   0.01267  Uiso   1.00
C15    C     0.23360   0.85110   0.42028   0.01267  Uiso   1.00
C16    C     0.38050   0.63480   0.36273   0.01267  Uiso   1.00
C17    C     0.87310   0.48150   0.62658   0.01267  Uiso   1.00
C18    C     0.28570   0.84040   0.47886   0.01267  Uiso   1.00
C19    C     0.76500   0.21330   0.05832   0.01267  Uiso   1.00
C20    C     0.23360   0.35110   0.07972   0.01267  Uiso   1.00
C21    C     0.60290   0.36900   0.70610   0.01267  Uiso   1.00
C22    C     0.75940   0.94550   0.77861   0.01267  Uiso   1.00
C23    C     0.67310   0.40920   0.74812   0.01267  Uiso   1.00
C24    C     0.14900   0.79600   0.40935   0.01267  Uiso   1.00
C25    C     0.22290   0.05770   0.15316   0.01267  Uiso   1.00
C26    C     0.32690   0.59080   0.25188   0.01267  Uiso   1.00
C27    C     0.65030   0.81880   0.48663   0.01267  Uiso   1.00
C28    C     0.23500   0.28670   0.55832   0.01267  Uiso   1.00
C29    C     0.22290   0.55770   0.34684   0.01267  Uiso   1.00
C30    C     0.83760   0.38700   0.22463   0.01267  Uiso   1.00
C31    C     0.12690   0.51850   0.37342   0.01267  Uiso   1.00
C32    C     0.61970   0.60550   0.99014   0.01267  Uiso   1.00
C33    C     0.65030   0.31880   0.01337   0.01267  Uiso   1.00
C34    C     0.25200   0.77740   0.52671   0.01267  Uiso   1.00
C35    C     0.61970   0.10550   0.50986   0.01267  Uiso   1.00
C36    C     0.67310   0.90920   0.75188   0.01267  Uiso   1.00
C37    C     0.77710   0.94230   0.84684   0.01267  Uiso   1.00
C38    C     0.16240   0.61300   0.77537   0.01267  Uiso   1.00
C39    C     0.86740   0.84230   0.06755   0.01267  Uiso   1.00
C40    C     0.16240   0.11300   0.72463   0.01267  Uiso   1.00
C41    C     0.39710   0.13100   0.20610   0.01267  Uiso   1.00
C42    C     0.77710   0.44230   0.65316   0.01267  Uiso   1.00
C43    C     0.34970   0.68120   0.98663   0.01267  Uiso   1.00
C44    C     0.76640   0.14890   0.57972   0.01267  Uiso   1.00
C45    C     0.72310   0.29360   0.06467   0.01267  Uiso   1.00
C46    C     0.90510   0.20170   0.65474   0.01267  Uiso   1.00
C47    C     0.39710   0.63100   0.29390   0.01267  Uiso   1.00
C48    C     0.18610   0.67290   0.83394   0.01267  Uiso   1.00
C49    C     0.27690   0.20640   0.56467   0.01267  Uiso   1.00
C50    C     0.11550   0.73280   0.45664   0.01267  Uiso   1.00
C51    C     0.38030   0.89450   0.49014   0.01267  Uiso   1.00
C52    C     0.71430   0.65960   0.97886   0.01267  Uiso   1.00
C53    C     0.76640   0.64890   0.92028   0.01267  Uiso   1.00
C54    C     0.85380   0.74550   0.33870   0.01267  Uiso   1.00
C55    C     0.34440   0.08560   0.32278   0.01267  Uiso   1.00
C56    C     0.28570   0.34040   0.02114   0.01267  Uiso   1.00
C57    C     0.27690   0.70640   0.93533   0.01267  Uiso   1.00
C58    C     0.25170   0.14860   0.61741   0.01267  Uiso   1.00
C59    C     0.76500   0.71330   0.44168   0.01267  Uiso   1.00
C60    C     0.87310   0.98150   0.87342   0.01267  Uiso   1.00
C61    C     0.16890   0.81060   0.89308   0.01267  Uiso   1.00
C62    C     0.34970   0.18120   0.51337   0.01267  Uiso   1.00
C63    C     0.29390   0.09860   0.11041   0.01267  Uiso   1.00
C64    C     0.11550   0.23280   0.04336   0.01267  Uiso   1.00
C65    C     0.70610   0.40140   0.61041   0.01267  Uiso   1.00
C66    C     0.90510   0.70170   0.84526   0.01267  Uiso   1.00
C67    C     0.16730   0.72520   0.51572   0.01267  Uiso   1.00
C68    C     0.74800   0.22260   0.47329   0.01267  Uiso   1.00
C69    C     0.09490   0.29830   0.15474   0.01267  Uiso   1.00
C70    C     0.85380   0.24550   0.16130   0.01267  Uiso   1.00
C71    C     0.38030   0.39450   0.00986   0.01267  Uiso   1.00
C72    C     0.61950   0.36520   0.63727   0.01267  Uiso   1.00
C73    C     0.87740   0.10340   0.10133   0.01267  Uiso   1.00
C74    C     0.88450   0.26720   0.54336   0.01267  Uiso   1.00
C75    C     0.13260   0.65770   0.56755   0.01267  Uiso   1.00
C76    C     0.14620   0.75450   0.83870   0.01267  Uiso   1.00
C77    C     0.12690   0.01850   0.12658   0.01267  Uiso   1.00
C78    C     0.74830   0.85140   0.38259   0.01267  Uiso   1.00
C79    C     0.09490   0.79830   0.34526   0.01267  Uiso   1.00
C80    C     0.83270   0.77480   0.01572   0.01267  Uiso   1.00
C81    C     0.65560   0.91440   0.67722   0.01267  Uiso   1.00
C82    C     0.53960   0.81810   0.90354   0.01267  Uiso   1.00
C83    C     0.70610   0.90140   0.88959   0.01267  Uiso   1.00
C84    C     0.14900   0.29600   0.09065   0.01267  Uiso   1.00
C85    C     0.83110   0.68940   0.39308   0.01267  Uiso   1.00
C86    C     0.74830   0.35140   0.11741   0.01267  Uiso   1.00
C87    C     0.53960   0.31810   0.59646   0.01267  Uiso   1.00
C88    C     0.88450   0.76720   0.95664   0.01267  Uiso   1.00
C89    C     0.46040   0.18190   0.09646   0.01267  Uiso   1.00
C90    C     0.81390   0.82710   0.33394   0.01267  Uiso   1.00
C91    C     0.14620   0.25450   0.66130   0.01267  Uiso   1.00
C92    C     0.60290   0.86900   0.79390   0.01267  Uiso   1.00
C93    C     0.24060   0.05450   0.22139   0.01267  Uiso   1.00
C94    C     0.75940   0.44550   0.72139   0.01267  Uiso   1.00
C95    C     0.65560   0.41440   0.82278   0.01267  Uiso   1.00
C96    C     0.23500   0.78670   0.94168   0.01267  Uiso   1.00
C97    C     0.74800   0.72260   0.02671   0.01267  Uiso   1.00
C98    C     0.86740   0.34230   0.43245   0.01267  Uiso   1.00
C99    C     0.85100   0.70400   0.90935   0.01267  Uiso   1.00
C100   C     0.83270   0.27480   0.48428   0.01267  Uiso   1.00
C101   C     0.81390   0.32710   0.16606   0.01267  Uiso   1.00
C102   C     0.46040   0.68190   0.40354   0.01267  Uiso   1.00
C103   C     0.38050   0.13480   0.13727   0.01267  Uiso   1.00
C104   C     0.13260   0.15770   0.93245   0.01267  Uiso   1.00
C105   C     0.87740   0.60340   0.39867   0.01267  Uiso   1.00
C106   C     0.24060   0.55450   0.27861   0.01267  Uiso   1.00
C107   C     0.29390   0.59860   0.38959   0.01267  Uiso   1.00
C108   C     0.12260   0.89660   0.89867   0.01267  Uiso   1.00
O1     O     0.89030   0.56374   0.34435   0.01267  Uiso   1.00
O2     O     0.54960   0.82710   0.96917   0.01267  Uiso   1.00
O3     O     0.27390   0.07398   0.36094   0.01267  Uiso   1.00
O4     O     0.54960   0.32710   0.53083   0.01267  Uiso   1.00
O5     O     0.56786   0.90655   0.65837   0.01267  Uiso   1.00
O6     O     0.58223   0.61041   0.04710   0.01267  Uiso   1.00
O7     O     0.47180   0.27710   0.62237   0.01267  Uiso   1.00
O8     O     0.77710   0.43658   0.24490   0.01267  Uiso   1.00
O9     O     0.39230   0.23868   0.47662   0.01267  Uiso   1.00
O10    O     0.36120   0.59846   0.98962   0.01267  Uiso   1.00
O11    O     0.60770   0.76132   0.52338   0.01267  Uiso   1.00
O12    O     0.06890   0.73180   0.31414   0.01267  Uiso   1.00
O13    O     0.58376   0.56139   0.94121   0.01267  Uiso   1.00
O14    O     0.89294   0.46507   0.56699   0.01267  Uiso   1.00
O15    O     0.60770   0.26132   0.97662   0.01267  Uiso   1.00
O16    O     0.06890   0.23180   0.18586   0.01267  Uiso   1.00
O17    O     0.63880   0.90154   0.48962   0.01267  Uiso   1.00
O18    O     0.41624   0.93861   0.44121   0.01267  Uiso   1.00
O19    O     0.81730   0.35340   0.38173   0.01267  Uiso   1.00
O20    O     0.41777   0.38959   0.95290   0.01267  Uiso   1.00
O21    O     0.18270   0.14660   0.88173   0.01267  Uiso   1.00
O22    O     0.81730   0.85340   0.11827   0.01267  Uiso   1.00
O23    O     0.92400   0.62040   0.82669   0.01267  Uiso   1.00
O24    O     0.18270   0.64660   0.61827   0.01267  Uiso   1.00
O25    O     0.07477   0.97230   0.16754   0.01267  Uiso   1.00
O26    O     0.92137   0.38250   0.25248   0.01267  Uiso   1.00
O27    O     0.05020   0.61481   0.56076   0.01267  Uiso   1.00
O28    O     0.41624   0.43861   0.05879   0.01267  Uiso   1.00
O29    O     0.77710   0.93658   0.25510   0.01267  Uiso   1.00
O30    O     0.10040   0.92190   0.95602   0.01267  Uiso   1.00
O31    O     0.27390   0.57398   0.13906   0.01267  Uiso   1.00
O32    O     0.10970   0.43626   0.65565   0.01267  Uiso   1.00
O33    O     0.89960   0.07810   0.04398   0.01267  Uiso   1.00
O34    O     0.39230   0.73868   0.02338   0.01267  Uiso   1.00
O35    O     0.10970   0.93626   0.84435   0.01267  Uiso   1.00
O36    O     0.94980   0.88519   0.06076   0.01267  Uiso   1.00
O37    O     0.93110   0.26820   0.68586   0.01267  Uiso   1.00
O38    O     0.58376   0.06139   0.55879   0.01267  Uiso   1.00
O39    O     0.10706   0.03493   0.06699   0.01267  Uiso   1.00
O40    O     0.45040   0.67290   0.46917   0.01267  Uiso   1.00
O41    O     0.07477   0.47230   0.33246   0.01267  Uiso   1.00
O42    O     0.22290   0.56342   0.75510   0.01267  Uiso   1.00
O43    O     0.56786   0.40655   0.84163   0.01267  Uiso   1.00
O44    O     0.89960   0.57810   0.45602   0.01267  Uiso   1.00
O45    O     0.47180   0.77710   0.87763   0.01267  Uiso   1.00
O46    O     0.92400   0.12040   0.67331   0.01267  Uiso   1.00
O47    O     0.41777   0.88959   0.54710   0.01267  Uiso   1.00
O48    O     0.92137   0.88250   0.24752   0.01267  Uiso   1.00
O49    O     0.43214   0.09345   0.34163   0.01267  Uiso   1.00
O50    O     0.22290   0.06342   0.74490   0.01267  Uiso   1.00
O51    O     0.58223   0.11041   0.45290   0.01267  Uiso   1.00
O52    O     0.63880   0.40154   0.01038   0.01267  Uiso   1.00
O53    O     0.36120   0.09846   0.51038   0.01267  Uiso   1.00
O54    O     0.94980   0.38519   0.43924   0.01267  Uiso   1.00
O55    O     0.07600   0.87960   0.32669   0.01267  Uiso   1.00
O56    O     0.93110   0.76820   0.81414   0.01267  Uiso   1.00
O57    O     0.52820   0.72290   0.37763   0.01267  Uiso   1.00
O58    O     0.10040   0.42190   0.54398   0.01267  Uiso   1.00
O59    O     0.05020   0.11481   0.93924   0.01267  Uiso   1.00
O60    O     0.52820   0.22290   0.12237   0.01267  Uiso   1.00
O61    O     0.07863   0.11750   0.75248   0.01267  Uiso   1.00
O62    O     0.07863   0.61750   0.74752   0.01267  Uiso   1.00
O63    O     0.72610   0.92602   0.63906   0.01267  Uiso   1.00
O64    O     0.10706   0.53493   0.43301   0.01267  Uiso   1.00
O65    O     0.45040   0.17290   0.03083   0.01267  Uiso   1.00
O66    O     0.92523   0.52770   0.66754   0.01267  Uiso   1.00
O67    O     0.89030   0.06374   0.15565   0.01267  Uiso   1.00
O68    O     0.43214   0.59345   0.15837   0.01267  Uiso   1.00
O69    O     0.07600   0.37960   0.17331   0.01267  Uiso   1.00
O70    O     0.89294   0.96507   0.93301   0.01267  Uiso   1.00
O71    O     0.72610   0.42602   0.86094   0.01267  Uiso   1.00
O72    O     0.92523   0.02770   0.83246   0.01267  Uiso   1.00
