data_ic402058f_si_005_clean
_audit_creation_date              2015-08-19
_audit_creation_method            'Materials Studio'
_symmetry_space_group_name_H-M    'P1'
_symmetry_Int_Tables_number       1
_symmetry_cell_setting            triclinic
loop_
_symmetry_equiv_pos_as_xyz
  x,y,z
_cell_length_a                    15.8700
_cell_length_b                    19.2200
_cell_length_c                    20.4330
_cell_angle_alpha                 90.0000
_cell_angle_beta                  90.0000
_cell_angle_gamma                 98.4090
loop_
_atom_site_label
_atom_site_type_symbol
_atom_site_fract_x
_atom_site_fract_y
_atom_site_fract_z
_atom_site_U_iso_or_equiv
_atom_site_adp_type
_atom_site_occupancy
Cd1    Cd    0.44420   0.55135   0.22229   0.01267  Uiso   1.00
Cd2    Cd    0.46528   0.09759   0.79237   0.01267  Uiso   1.00
Cd3    Cd    0.55580   0.94865   0.72229   0.01267  Uiso   1.00
Cd4    Cd    0.49182   0.72805   0.26745   0.01267  Uiso   1.00
Cd5    Cd    0.44420   0.05135   0.27771   0.01267  Uiso   1.00
Cd6    Cd    0.46528   0.59759   0.70763   0.01267  Uiso   1.00
Cd7    Cd    0.53472   0.40241   0.29237   0.01267  Uiso   1.00
Cd8    Cd    0.53472   0.90241   0.20763   0.01267  Uiso   1.00
Cd9    Cd    0.50818   0.27195   0.73255   0.01267  Uiso   1.00
Cd10   Cd    0.55580   0.44865   0.77771   0.01267  Uiso   1.00
Cd11   Cd    0.49182   0.22805   0.23255   0.01267  Uiso   1.00
Cd12   Cd    0.50818   0.77195   0.76745   0.01267  Uiso   1.00
H1     H     0.30200   0.98780   0.86370   0.01267  Uiso   1.00
H2     H     0.98750   0.39520   0.37030   0.01267  Uiso   1.00
H3     H     0.67580   0.30020   0.55910   0.01267  Uiso   1.00
H4     H     0.21770   0.18320   0.97950   0.01267  Uiso   1.00
H5     H     0.17110   0.25540   0.66220   0.01267  Uiso   1.00
H6     H     0.28670   0.45380   0.16430   0.01267  Uiso   1.00
H7     H     0.37200   0.77600   0.13230   0.01267  Uiso   1.00
H8     H     0.27520   0.35560   0.37980   0.01267  Uiso   1.00
H9     H     0.90920   0.75560   0.15510   0.01267  Uiso   1.00
H10    H     0.01250   0.10480   0.87030   0.01267  Uiso   1.00
H11    H     0.74620   0.49700   0.62190   0.01267  Uiso   1.00
H12    H     0.98420   0.42100   0.88780   0.01267  Uiso   1.00
H13    H     0.69800   0.51220   0.36370   0.01267  Uiso   1.00
H14    H     0.16960   0.44920   0.58770   0.01267  Uiso   1.00
H15    H     0.15270   0.31080   0.48400   0.01267  Uiso   1.00
H16    H     0.74620   0.99700   0.87810   0.01267  Uiso   1.00
H17    H     0.83900   0.57130   0.89480   0.01267  Uiso   1.00
H18    H     0.25380   0.00300   0.12190   0.01267  Uiso   1.00
H19    H     0.17110   0.75540   0.83780   0.01267  Uiso   1.00
H20    H     0.09080   0.24440   0.84490   0.01267  Uiso   1.00
H21    H     0.84730   0.18920   0.98400   0.01267  Uiso   1.00
H22    H     0.15040   0.48790   0.45640   0.01267  Uiso   1.00
H23    H     0.14640   0.81810   0.51660   0.01267  Uiso   1.00
H24    H     0.85360   0.18190   0.48340   0.01267  Uiso   1.00
H25    H     0.28670   0.95380   0.33570   0.01267  Uiso   1.00
H26    H     0.98750   0.89520   0.12970   0.01267  Uiso   1.00
H27    H     0.21510   0.18830   0.48920   0.01267  Uiso   1.00
H28    H     0.27520   0.85560   0.12020   0.01267  Uiso   1.00
H29    H     0.81520   0.83750   0.16770   0.01267  Uiso   1.00
H30    H     0.84960   0.51210   0.54360   0.01267  Uiso   1.00
H31    H     0.30550   0.29320   0.70600   0.01267  Uiso   1.00
H32    H     0.18480   0.66250   0.66770   0.01267  Uiso   1.00
H33    H     0.04480   0.11350   0.06660   0.01267  Uiso   1.00
H34    H     0.91500   0.79680   0.66320   0.01267  Uiso   1.00
H35    H     0.37760   0.32260   0.85060   0.01267  Uiso   1.00
H36    H     0.83040   0.05080   0.08770   0.01267  Uiso   1.00
H37    H     0.67530   0.27860   0.06340   0.01267  Uiso   1.00
H38    H     0.82890   0.74460   0.33780   0.01267  Uiso   1.00
H39    H     0.67580   0.80020   0.94090   0.01267  Uiso   1.00
H40    H     0.18480   0.16250   0.83230   0.01267  Uiso   1.00
H41    H     0.81520   0.33750   0.33230   0.01267  Uiso   1.00
H42    H     0.94120   0.36730   0.07710   0.01267  Uiso   1.00
H43    H     0.95520   0.38650   0.56660   0.01267  Uiso   1.00
H44    H     0.17890   0.99490   0.56740   0.01267  Uiso   1.00
H45    H     0.62240   0.17740   0.35060   0.01267  Uiso   1.00
H46    H     0.14970   0.72200   0.34330   0.01267  Uiso   1.00
H47    H     0.28220   0.39790   0.87270   0.01267  Uiso   1.00
H48    H     0.98420   0.92100   0.61220   0.01267  Uiso   1.00
H49    H     0.69800   0.01220   0.13630   0.01267  Uiso   1.00
H50    H     0.71780   0.10210   0.37270   0.01267  Uiso   1.00
H51    H     0.17890   0.49490   0.93260   0.01267  Uiso   1.00
H52    H     0.29050   0.02800   0.63640   0.01267  Uiso   1.00
H53    H     0.71780   0.60210   0.12730   0.01267  Uiso   1.00
H54    H     0.17780   0.12320   0.32960   0.01267  Uiso   1.00
H55    H     0.72260   0.24930   0.71090   0.01267  Uiso   1.00
H56    H     0.37200   0.27600   0.36770   0.01267  Uiso   1.00
H57    H     0.15270   0.81080   0.01600   0.01267  Uiso   1.00
H58    H     0.28220   0.89790   0.62730   0.01267  Uiso   1.00
H59    H     0.82220   0.87680   0.67040   0.01267  Uiso   1.00
H60    H     0.62800   0.22400   0.86770   0.01267  Uiso   1.00
H61    H     0.69450   0.70680   0.29400   0.01267  Uiso   1.00
H62    H     0.21770   0.68320   0.52050   0.01267  Uiso   1.00
H63    H     0.95520   0.88650   0.93340   0.01267  Uiso   1.00
H64    H     0.08500   0.70320   0.16320   0.01267  Uiso   1.00
H65    H     0.70950   0.97200   0.36360   0.01267  Uiso   1.00
H66    H     0.37760   0.82260   0.64940   0.01267  Uiso   1.00
H67    H     0.85360   0.68190   0.01660   0.01267  Uiso   1.00
H68    H     0.78490   0.31170   0.98920   0.01267  Uiso   1.00
H69    H     0.14640   0.31810   0.98340   0.01267  Uiso   1.00
H70    H     0.30200   0.48780   0.63630   0.01267  Uiso   1.00
H71    H     0.08500   0.20320   0.33680   0.01267  Uiso   1.00
H72    H     0.72260   0.74930   0.78910   0.01267  Uiso   1.00
H73    H     0.04480   0.61350   0.43340   0.01267  Uiso   1.00
H74    H     0.82220   0.37680   0.82960   0.01267  Uiso   1.00
H75    H     0.84730   0.68920   0.51600   0.01267  Uiso   1.00
H76    H     0.01250   0.60480   0.62970   0.01267  Uiso   1.00
H77    H     0.62800   0.72400   0.63230   0.01267  Uiso   1.00
H78    H     0.78230   0.31680   0.47950   0.01267  Uiso   1.00
H79    H     0.16960   0.94920   0.91230   0.01267  Uiso   1.00
H80    H     0.83040   0.55080   0.41230   0.01267  Uiso   1.00
H81    H     0.62240   0.67740   0.14940   0.01267  Uiso   1.00
H82    H     0.30550   0.79320   0.79400   0.01267  Uiso   1.00
H83    H     0.67530   0.77860   0.43660   0.01267  Uiso   1.00
H84    H     0.25380   0.50300   0.37810   0.01267  Uiso   1.00
H85    H     0.69450   0.20680   0.20600   0.01267  Uiso   1.00
H86    H     0.32420   0.19980   0.05910   0.01267  Uiso   1.00
H87    H     0.82110   0.00510   0.43260   0.01267  Uiso   1.00
H88    H     0.16100   0.92870   0.39480   0.01267  Uiso   1.00
H89    H     0.90920   0.25560   0.34490   0.01267  Uiso   1.00
H90    H     0.94120   0.86730   0.42290   0.01267  Uiso   1.00
H91    H     0.78230   0.81680   0.02050   0.01267  Uiso   1.00
H92    H     0.27740   0.25070   0.21090   0.01267  Uiso   1.00
H93    H     0.27740   0.75070   0.28910   0.01267  Uiso   1.00
H94    H     0.71330   0.54620   0.83570   0.01267  Uiso   1.00
H95    H     0.16100   0.42870   0.10520   0.01267  Uiso   1.00
H96    H     0.85030   0.77800   0.84330   0.01267  Uiso   1.00
H97    H     0.32470   0.22140   0.56340   0.01267  Uiso   1.00
H98    H     0.72480   0.64440   0.62020   0.01267  Uiso   1.00
H99    H     0.29050   0.52800   0.86360   0.01267  Uiso   1.00
H100   H     0.70950   0.47200   0.13640   0.01267  Uiso   1.00
H101   H     0.09080   0.74440   0.65510   0.01267  Uiso   1.00
H102   H     0.05880   0.13270   0.57710   0.01267  Uiso   1.00
H103   H     0.82110   0.50510   0.06740   0.01267  Uiso   1.00
H104   H     0.78490   0.81170   0.51080   0.01267  Uiso   1.00
H105   H     0.01580   0.57900   0.11220   0.01267  Uiso   1.00
H106   H     0.71330   0.04620   0.66430   0.01267  Uiso   1.00
H107   H     0.17780   0.62320   0.17040   0.01267  Uiso   1.00
H108   H     0.72480   0.14440   0.87980   0.01267  Uiso   1.00
H109   H     0.83900   0.07130   0.60520   0.01267  Uiso   1.00
H110   H     0.85030   0.27800   0.65670   0.01267  Uiso   1.00
H111   H     0.32420   0.69980   0.44090   0.01267  Uiso   1.00
H112   H     0.05880   0.63270   0.92290   0.01267  Uiso   1.00
H113   H     0.91500   0.29680   0.83680   0.01267  Uiso   1.00
H114   H     0.01580   0.07900   0.38780   0.01267  Uiso   1.00
H115   H     0.14970   0.22200   0.15670   0.01267  Uiso   1.00
H116   H     0.15040   0.98790   0.04360   0.01267  Uiso   1.00
H117   H     0.82890   0.24460   0.16220   0.01267  Uiso   1.00
H118   H     0.32470   0.72140   0.93660   0.01267  Uiso   1.00
H119   H     0.21510   0.68830   0.01080   0.01267  Uiso   1.00
H120   H     0.84960   0.01210   0.95640   0.01267  Uiso   1.00
C1     C     0.31800   0.62860   0.89130   0.01267  Uiso   1.00
C2     C     0.70600   0.64600   0.80650   0.01267  Uiso   1.00
C3     C     0.37640   0.86910   0.27090   0.01267  Uiso   1.00
C4     C     0.04830   0.83780   0.46260   0.01267  Uiso   1.00
C5     C     0.31760   0.39450   0.67640   0.01267  Uiso   1.00
C6     C     0.27430   0.06100   0.60750   0.01267  Uiso   1.00
C7     C     0.71160   0.34290   0.55630   0.01267  Uiso   1.00
C8     C     0.18460   0.58550   0.97830   0.01267  Uiso   1.00
C9     C     0.81540   0.41450   0.02170   0.01267  Uiso   1.00
C10    C     0.70440   0.32420   0.06410   0.01267  Uiso   1.00
C11    C     0.85520   0.17740   0.62490   0.01267  Uiso   1.00
C12    C     0.25660   0.80880   0.13100   0.01267  Uiso   1.00
C13    C     0.05690   0.34370   0.53280   0.01267  Uiso   1.00
C14    C     0.28840   0.15710   0.05630   0.01267  Uiso   1.00
C15    C     0.26250   0.35090   0.86360   0.01267  Uiso   1.00
C16    C     0.82610   0.91850   0.99500   0.01267  Uiso   1.00
C17    C     0.59880   0.08160   0.20790   0.01267  Uiso   1.00
C18    C     0.29560   0.17580   0.56410   0.01267  Uiso   1.00
C19    C     0.25660   0.30880   0.36900   0.01267  Uiso   1.00
C20    C     0.24660   0.03980   0.09380   0.01267  Uiso   1.00
C21    C     0.01510   0.12330   0.02930   0.01267  Uiso   1.00
C22    C     0.99980   0.39970   0.92600   0.01267  Uiso   1.00
C23    C     0.25300   0.28590   0.19010   0.01267  Uiso   1.00
C24    C     0.92750   0.13070   0.42830   0.01267  Uiso   1.00
C25    C     0.90320   0.16150   0.48310   0.01267  Uiso   1.00
C26    C     0.95920   0.39470   0.46650   0.01267  Uiso   1.00
C27    C     0.22540   0.64730   0.49160   0.01267  Uiso   1.00
C28    C     0.65560   0.86080   0.66800   0.01267  Uiso   1.00
C29    C     0.14480   0.32260   0.12490   0.01267  Uiso   1.00
C30    C     0.01510   0.62330   0.47070   0.01267  Uiso   1.00
C31    C     0.17770   0.26800   0.15740   0.01267  Uiso   1.00
C32    C     0.18540   0.03100   0.04670   0.01267  Uiso   1.00
C33    C     0.71520   0.80750   0.65400   0.01267  Uiso   1.00
C34    C     0.79500   0.29020   0.33920   0.01267  Uiso   1.00
C35    C     0.22540   0.14730   0.00840   0.01267  Uiso   1.00
C36    C     0.00470   0.88230   0.08850   0.01267  Uiso   1.00
C37    C     0.18430   0.39340   0.12670   0.01267  Uiso   1.00
C38    C     0.84060   0.15310   0.11860   0.01267  Uiso   1.00
C39    C     0.73750   0.64910   0.13640   0.01267  Uiso   1.00
C40    C     0.34440   0.63920   0.16800   0.01267  Uiso   1.00
C41    C     0.36390   0.61370   0.34830   0.01267  Uiso   1.00
C42    C     0.75340   0.96020   0.90620   0.01267  Uiso   1.00
C43    C     0.24660   0.53980   0.40620   0.01267  Uiso   1.00
C44    C     0.07250   0.36930   0.92830   0.01267  Uiso   1.00
C45    C     0.79210   0.45940   0.06540   0.01267  Uiso   1.00
C46    C     0.02630   0.13240   0.53930   0.01267  Uiso   1.00
C47    C     0.10350   0.83140   0.02040   0.01267  Uiso   1.00
C48    C     0.16990   0.78440   0.14050   0.01267  Uiso   1.00
C49    C     0.95170   0.66220   0.96260   0.01267  Uiso   1.00
C50    C     0.68030   0.69430   0.14840   0.01267  Uiso   1.00
C51    C     0.79210   0.95940   0.43460   0.01267  Uiso   1.00
C52    C     0.89650   0.66860   0.52040   0.01267  Uiso   1.00
C53    C     0.85720   0.28240   0.84400   0.01267  Uiso   1.00
C54    C     0.04830   0.33780   0.03740   0.01267  Uiso   1.00
C55    C     0.31760   0.89450   0.82360   0.01267  Uiso   1.00
C56    C     0.27430   0.56100   0.89250   0.01267  Uiso   1.00
C57    C     0.07250   0.86930   0.57170   0.01267  Uiso   1.00
C58    C     0.70200   0.39570   0.59950   0.01267  Uiso   1.00
C59    C     0.72570   0.93900   0.39250   0.01267  Uiso   1.00
C60    C     0.22970   0.65620   0.98030   0.01267  Uiso   1.00
C61    C     0.14910   0.25900   0.84840   0.01267  Uiso   1.00
C62    C     0.70200   0.89570   0.90050   0.01267  Uiso   1.00
C63    C     0.64360   0.31230   0.32890   0.01267  Uiso   1.00
C64    C     0.82170   0.17170   0.36260   0.01267  Uiso   1.00
C65    C     0.00020   0.60030   0.07400   0.01267  Uiso   1.00
C66    C     0.80210   0.82990   0.66160   0.01267  Uiso   1.00
C67    C     0.72310   0.05870   0.14080   0.01267  Uiso   1.00
C68    C     0.72220   0.17520   0.18280   0.01267  Uiso   1.00
C69    C     0.64360   0.81230   0.17110   0.01267  Uiso   1.00
C70    C     0.81460   0.46900   0.54670   0.01267  Uiso   1.00
C71    C     0.35640   0.68770   0.67110   0.01267  Uiso   1.00
C72    C     0.00470   0.38230   0.41150   0.01267  Uiso   1.00
C73    C     0.19720   0.41800   0.61150   0.01267  Uiso   1.00
C74    C     0.83010   0.21560   0.85950   0.01267  Uiso   1.00
C75    C     0.80280   0.08200   0.11150   0.01267  Uiso   1.00
C76    C     0.27690   0.94130   0.85920   0.01267  Uiso   1.00
C77    C     0.27690   0.44130   0.64080   0.01267  Uiso   1.00
C78    C     0.82610   0.41850   0.50500   0.01267  Uiso   1.00
C79    C     0.63610   0.38630   0.65170   0.01267  Uiso   1.00
C80    C     0.75340   0.46020   0.59380   0.01267  Uiso   1.00
C81    C     0.92370   0.14980   0.91880   0.01267  Uiso   1.00
C82    C     0.28480   0.69250   0.15400   0.01267  Uiso   1.00
C83    C     0.19790   0.67010   0.16160   0.01267  Uiso   1.00
C84    C     0.85720   0.78240   0.65600   0.01267  Uiso   1.00
C85    C     0.77030   0.84380   0.48030   0.01267  Uiso   1.00
C86    C     0.68600   0.73860   0.63820   0.01267  Uiso   1.00
C87    C     0.31400   0.26140   0.36180   0.01267  Uiso   1.00
C88    C     0.61170   0.34900   0.15800   0.01267  Uiso   1.00
C89    C     0.18460   0.08550   0.52170   0.01267  Uiso   1.00
C90    C     0.92750   0.63070   0.07170   0.01267  Uiso   1.00
C91    C     0.38830   0.65100   0.84200   0.01267  Uiso   1.00
C92    C     0.14280   0.21760   0.34400   0.01267  Uiso   1.00
C93    C     0.09680   0.83850   0.51690   0.01267  Uiso   1.00
C94    C     0.72310   0.55870   0.35920   0.01267  Uiso   1.00
C95    C     0.92370   0.64980   0.58120   0.01267  Uiso   1.00
C96    C     0.17830   0.32830   0.86260   0.01267  Uiso   1.00
C97    C     0.28480   0.19250   0.34600   0.01267  Uiso   1.00
C98    C     0.79500   0.79020   0.16080   0.01267  Uiso   1.00
C99    C     0.29210   0.23460   0.84070   0.01267  Uiso   1.00
C100   C     0.07630   0.35020   0.41880   0.01267  Uiso   1.00
C101   C     0.31800   0.12860   0.60870   0.01267  Uiso   1.00
C102   C     0.74340   0.19120   0.86900   0.01267  Uiso   1.00
C103   C     0.18430   0.89340   0.37330   0.01267  Uiso   1.00
C104   C     0.98490   0.37670   0.52930   0.01267  Uiso   1.00
C105   C     0.95020   0.39790   0.98150   0.01267  Uiso   1.00
C106   C     0.17390   0.08150   0.00500   0.01267  Uiso   1.00
C107   C     0.90320   0.66150   0.01690   0.01267  Uiso   1.00
C108   C     0.99980   0.89970   0.57400   0.01267  Uiso   1.00
C109   C     0.20790   0.04060   0.56540   0.01267  Uiso   1.00
C110   C     0.71160   0.84290   0.94370   0.01267  Uiso   1.00
C111   C     0.04080   0.60530   0.53350   0.01267  Uiso   1.00
C112   C     0.63610   0.88630   0.84830   0.01267  Uiso   1.00
C113   C     0.14280   0.71760   0.15600   0.01267  Uiso   1.00
C114   C     0.19770   0.30130   0.65540   0.01267  Uiso   1.00
C115   C     0.27780   0.82480   0.81720   0.01267  Uiso   1.00
C116   C     0.68030   0.19430   0.35160   0.01267  Uiso   1.00
C117   C     0.29400   0.85400   0.30650   0.01267  Uiso   1.00
C118   C     0.85520   0.67740   0.87510   0.01267  Uiso   1.00
C119   C     0.04980   0.10210   0.48150   0.01267  Uiso   1.00
C120   C     0.80280   0.58200   0.38850   0.01267  Uiso   1.00
C121   C     0.68600   0.23860   0.86180   0.01267  Uiso   1.00
C122   C     0.70790   0.26540   0.34070   0.01267  Uiso   1.00
C123   C     0.74700   0.21410   0.69010   0.01267  Uiso   1.00
C124   C     0.04980   0.60210   0.01850   0.01267  Uiso   1.00
C125   C     0.77460   0.85270   0.99160   0.01267  Uiso   1.00
C126   C     0.26250   0.85090   0.63640   0.01267  Uiso   1.00
C127   C     0.25900   0.40780   0.16170   0.01267  Uiso   1.00
C128   C     0.25900   0.90780   0.33830   0.01267  Uiso   1.00
C129   C     0.31970   0.30570   0.85160   0.01267  Uiso   1.00
C130   C     0.68200   0.37140   0.10870   0.01267  Uiso   1.00
C131   C     0.94310   0.65630   0.46720   0.01267  Uiso   1.00
C132   C     0.80230   0.69870   0.34460   0.01267  Uiso   1.00
C133   C     0.59880   0.58160   0.29210   0.01267  Uiso   1.00
C134   C     0.68240   0.10550   0.17640   0.01267  Uiso   1.00
C135   C     0.16990   0.28440   0.35950   0.01267  Uiso   1.00
C136   C     0.15940   0.34690   0.61860   0.01267  Uiso   1.00
C137   C     0.14910   0.75900   0.65160   0.01267  Uiso   1.00
C138   C     0.85090   0.24100   0.34840   0.01267  Uiso   1.00
C139   C     0.31400   0.76140   0.13820   0.01267  Uiso   1.00
C140   C     0.20500   0.20980   0.83920   0.01267  Uiso   1.00
C141   C     0.71520   0.30750   0.84600   0.01267  Uiso   1.00
C142   C     0.82230   0.23200   0.65740   0.01267  Uiso   1.00
C143   C     0.34440   0.13920   0.33200   0.01267  Uiso   1.00
C144   C     0.68200   0.87140   0.39130   0.01267  Uiso   1.00
C145   C     0.84060   0.65310   0.38140   0.01267  Uiso   1.00
C146   C     0.22970   0.15620   0.51970   0.01267  Uiso   1.00
C147   C     0.35640   0.18770   0.82890   0.01267  Uiso   1.00
C148   C     0.89650   0.16860   0.97960   0.01267  Uiso   1.00
C149   C     0.95020   0.89790   0.51850   0.01267  Uiso   1.00
C150   C     0.80210   0.32990   0.83840   0.01267  Uiso   1.00
C151   C     0.77460   0.35270   0.50840   0.01267  Uiso   1.00
C152   C     0.95170   0.16220   0.53740   0.01267  Uiso   1.00
C153   C     0.18540   0.53100   0.45330   0.01267  Uiso   1.00
C154   C     0.19770   0.80130   0.84460   0.01267  Uiso   1.00
C155   C     0.99530   0.11770   0.91150   0.01267  Uiso   1.00
C156   C     0.70790   0.76540   0.15930   0.01267  Uiso   1.00
C157   C     0.36390   0.11370   0.15170   0.01267  Uiso   1.00
C158   C     0.31970   0.80570   0.64840   0.01267  Uiso   1.00
C159   C     0.00020   0.10030   0.42600   0.01267  Uiso   1.00
C160   C     0.81540   0.91450   0.47830   0.01267  Uiso   1.00
C161   C     0.72570   0.43900   0.10750   0.01267  Uiso   1.00
C162   C     0.62360   0.63090   0.77090   0.01267  Uiso   1.00
C163   C     0.29210   0.73460   0.65930   0.01267  Uiso   1.00
C164   C     0.62360   0.13090   0.72910   0.01267  Uiso   1.00
C165   C     0.09680   0.33850   0.98310   0.01267  Uiso   1.00
C166   C     0.83010   0.71560   0.64050   0.01267  Uiso   1.00
C167   C     0.40120   0.91840   0.79210   0.01267  Uiso   1.00
C168   C     0.85090   0.74100   0.15160   0.01267  Uiso   1.00
C169   C     0.07630   0.85020   0.08120   0.01267  Uiso   1.00
C170   C     0.29800   0.10430   0.09950   0.01267  Uiso   1.00
C171   C     0.97370   0.36760   0.03930   0.01267  Uiso   1.00
C172   C     0.20790   0.54060   0.93460   0.01267  Uiso   1.00
C173   C     0.04080   0.10530   0.96650   0.01267  Uiso   1.00
C174   C     0.73750   0.14910   0.36360   0.01267  Uiso   1.00
C175   C     0.17830   0.82830   0.63740   0.01267  Uiso   1.00
C176   C     0.94310   0.15630   0.03280   0.01267  Uiso   1.00
C177   C     0.19720   0.91800   0.88850   0.01267  Uiso   1.00
C178   C     0.70440   0.82420   0.43590   0.01267  Uiso   1.00
C179   C     0.02630   0.63240   0.96070   0.01267  Uiso   1.00
C180   C     0.27780   0.32480   0.68280   0.01267  Uiso   1.00
C181   C     0.38830   0.15100   0.65800   0.01267  Uiso   1.00
C182   C     0.15940   0.84690   0.88140   0.01267  Uiso   1.00
C183   C     0.74100   0.59220   0.83830   0.01267  Uiso   1.00
C184   C     0.25300   0.78590   0.30990   0.01267  Uiso   1.00
C185   C     0.72220   0.67520   0.31720   0.01267  Uiso   1.00
C186   C     0.74340   0.69120   0.63100   0.01267  Uiso   1.00
C187   C     0.20500   0.70980   0.66080   0.01267  Uiso   1.00
C188   C     0.61170   0.84900   0.34200   0.01267  Uiso   1.00
C189   C     0.29400   0.35400   0.19350   0.01267  Uiso   1.00
C190   C     0.28840   0.65710   0.44370   0.01267  Uiso   1.00
C191   C     0.74700   0.71410   0.80990   0.01267  Uiso   1.00
C192   C     0.68240   0.60550   0.32360   0.01267  Uiso   1.00
C193   C     0.70600   0.14600   0.69350   0.01267  Uiso   1.00
C194   C     0.82230   0.73200   0.84260   0.01267  Uiso   1.00
C195   C     0.77030   0.34380   0.01970   0.01267  Uiso   1.00
C196   C     0.19790   0.17010   0.33840   0.01267  Uiso   1.00
C197   C     0.98490   0.87670   0.97070   0.01267  Uiso   1.00
C198   C     0.95920   0.89470   0.03350   0.01267  Uiso   1.00
C199   C     0.80230   0.19870   0.15540   0.01267  Uiso   1.00
C200   C     0.29800   0.60430   0.40050   0.01267  Uiso   1.00
C201   C     0.65560   0.36080   0.83200   0.01267  Uiso   1.00
C202   C     0.99530   0.61770   0.58850   0.01267  Uiso   1.00
C203   C     0.74100   0.09220   0.66170   0.01267  Uiso   1.00
C204   C     0.17390   0.58150   0.49500   0.01267  Uiso   1.00
C205   C     0.81460   0.96900   0.95330   0.01267  Uiso   1.00
C206   C     0.17770   0.76800   0.34260   0.01267  Uiso   1.00
C207   C     0.10350   0.33140   0.47960   0.01267  Uiso   1.00
C208   C     0.82170   0.67170   0.13740   0.01267  Uiso   1.00
C209   C     0.81570   0.60660   0.87330   0.01267  Uiso   1.00
C210   C     0.40120   0.41840   0.70790   0.01267  Uiso   1.00
C211   C     0.97370   0.86760   0.46070   0.01267  Uiso   1.00
C212   C     0.05690   0.84370   0.96720   0.01267  Uiso   1.00
C213   C     0.81570   0.10660   0.62670   0.01267  Uiso   1.00
C214   C     0.14480   0.82260   0.37510   0.01267  Uiso   1.00
C215   C     0.37640   0.36910   0.22910   0.01267  Uiso   1.00
C216   C     0.29560   0.67580   0.93590   0.01267  Uiso   1.00
O1     O     0.32130   0.57690   0.16710   0.01267  Uiso   1.00
O2     O     0.62510   0.93560   0.81330   0.01267  Uiso   1.00
O3     O     0.11840   0.37300   0.86950   0.01267  Uiso   1.00
O4     O     0.07900   0.82340   0.90520   0.01267  Uiso   1.00
O5     O     0.66660   0.87800   0.17050   0.01267  Uiso   1.00
O6     O     0.41450   0.21430   0.66390   0.01267  Uiso   1.00
O7     O     0.57770   0.83340   0.68230   0.01267  Uiso   1.00
O8     O     0.06560   0.30290   0.09530   0.01267  Uiso   1.00
O9     O     0.93440   0.19710   0.59530   0.01267  Uiso   1.00
O10    O     0.92100   0.67660   0.40520   0.01267  Uiso   1.00
O11    O     0.56820   0.52590   0.29360   0.01267  Uiso   1.00
O12    O     0.43180   0.97410   0.79360   0.01267  Uiso   1.00
O13    O     0.56820   0.02590   0.20640   0.01267  Uiso   1.00
O14    O     0.88160   0.12700   0.36950   0.01267  Uiso   1.00
O15    O     0.56790   0.78870   0.18400   0.01267  Uiso   1.00
O16    O     0.07900   0.32340   0.59480   0.01267  Uiso   1.00
O17    O     0.43210   0.21130   0.81600   0.01267  Uiso   1.00
O18    O     0.88160   0.62700   0.13050   0.01267  Uiso   1.00
O19    O     0.43750   0.36930   0.73700   0.01267  Uiso   1.00
O20    O     0.11730   0.33850   0.36070   0.01267  Uiso   1.00
O21    O     0.67870   0.92310   0.66710   0.01267  Uiso   1.00
O22    O     0.58550   0.28570   0.16390   0.01267  Uiso   1.00
O23    O     0.32130   0.07690   0.33290   0.01267  Uiso   1.00
O24    O     0.87980   0.43260   0.97680   0.01267  Uiso   1.00
O25    O     0.12020   0.56740   0.02320   0.01267  Uiso   1.00
O26    O     0.88270   0.66150   0.63930   0.01267  Uiso   1.00
O27    O     0.06560   0.80290   0.40470   0.01267  Uiso   1.00
O28    O     0.88270   0.16150   0.86070   0.01267  Uiso   1.00
O29    O     0.11080   0.07160   0.95700   0.01267  Uiso   1.00
O30    O     0.43210   0.71130   0.68400   0.01267  Uiso   1.00
O31    O     0.43180   0.47410   0.70640   0.01267  Uiso   1.00
O32    O     0.42230   0.16660   0.31770   0.01267  Uiso   1.00
O33    O     0.37490   0.06440   0.18670   0.01267  Uiso   1.00
O34    O     0.12020   0.06740   0.47680   0.01267  Uiso   1.00
O35    O     0.58640   0.40040   0.18870   0.01267  Uiso   1.00
O36    O     0.41360   0.09960   0.68870   0.01267  Uiso   1.00
O37    O     0.37490   0.56440   0.31330   0.01267  Uiso   1.00
O38    O     0.58360   0.17950   0.74690   0.01267  Uiso   1.00
O39    O     0.67870   0.42310   0.83290   0.01267  Uiso   1.00
O40    O     0.88920   0.92840   0.04300   0.01267  Uiso   1.00
O41    O     0.56250   0.13070   0.23700   0.01267  Uiso   1.00
O42    O     0.92100   0.17660   0.09480   0.01267  Uiso   1.00
O43    O     0.58360   0.67950   0.75310   0.01267  Uiso   1.00
O44    O     0.33340   0.62200   0.67050   0.01267  Uiso   1.00
O45    O     0.58640   0.90040   0.31130   0.01267  Uiso   1.00
O46    O     0.11730   0.83850   0.13930   0.01267  Uiso   1.00
O47    O     0.57770   0.33340   0.81770   0.01267  Uiso   1.00
O48    O     0.56250   0.63070   0.26300   0.01267  Uiso   1.00
O49    O     0.87980   0.93260   0.52320   0.01267  Uiso   1.00
O50    O     0.58980   0.06360   0.74140   0.01267  Uiso   1.00
O51    O     0.59760   0.32330   0.65930   0.01267  Uiso   1.00
O52    O     0.33340   0.12200   0.82950   0.01267  Uiso   1.00
O53    O     0.40240   0.17670   0.15930   0.01267  Uiso   1.00
O54    O     0.41020   0.93640   0.25860   0.01267  Uiso   1.00
O55    O     0.56790   0.28870   0.31600   0.01267  Uiso   1.00
O56    O     0.41450   0.71430   0.83610   0.01267  Uiso   1.00
O57    O     0.43750   0.86930   0.76300   0.01267  Uiso   1.00
O58    O     0.11840   0.87300   0.63050   0.01267  Uiso   1.00
O59    O     0.41020   0.43640   0.24140   0.01267  Uiso   1.00
O60    O     0.58980   0.56360   0.75860   0.01267  Uiso   1.00
O61    O     0.40240   0.67670   0.34070   0.01267  Uiso   1.00
O62    O     0.93440   0.69710   0.90470   0.01267  Uiso   1.00
O63    O     0.41640   0.32050   0.24690   0.01267  Uiso   1.00
O64    O     0.66660   0.37800   0.32950   0.01267  Uiso   1.00
O65    O     0.42230   0.66660   0.18230   0.01267  Uiso   1.00
O66    O     0.62510   0.43560   0.68670   0.01267  Uiso   1.00
O67    O     0.88920   0.42840   0.45700   0.01267  Uiso   1.00
O68    O     0.41640   0.82050   0.25310   0.01267  Uiso   1.00
O69    O     0.58550   0.78570   0.33610   0.01267  Uiso   1.00
O70    O     0.11080   0.57160   0.54300   0.01267  Uiso   1.00
O71    O     0.41360   0.59960   0.81130   0.01267  Uiso   1.00
O72    O     0.59760   0.82330   0.84070   0.01267  Uiso   1.00
