data_ic402058f_si_004_clean
_audit_creation_date              2015-08-19
_audit_creation_method            'Materials Studio'
_symmetry_space_group_name_H-M    'P1'
_symmetry_Int_Tables_number       1
_symmetry_cell_setting            triclinic
loop_
_symmetry_equiv_pos_as_xyz
  x,y,z
_cell_length_a                    11.4391
_cell_length_b                    15.4481
_cell_length_c                    19.1156
_cell_angle_alpha                 94.6250
_cell_angle_beta                  90.0000
_cell_angle_gamma                 90.0000
loop_
_atom_site_label
_atom_site_type_symbol
_atom_site_fract_x
_atom_site_fract_y
_atom_site_fract_z
_atom_site_U_iso_or_equiv
_atom_site_adp_type
_atom_site_occupancy
Cd1    Cd    0.56637   0.54334   0.42290   0.01267  Uiso   1.00
Cd2    Cd    0.43363   0.54334   0.92290   0.01267  Uiso   1.00
Cd3    Cd    0.56637   0.45666   0.07710   0.01267  Uiso   1.00
Cd4    Cd    0.53199   0.50000   0.75000   0.01267  Uiso   1.00
Cd5    Cd    0.46801   0.50000   0.25000   0.01267  Uiso   1.00
Cd6    Cd    0.43363   0.45666   0.57710   0.01267  Uiso   1.00
H1     H     0.00140   0.76370   0.30510   0.01267  Uiso   1.00
H2     H     0.31480   0.61790   0.69270   0.01267  Uiso   1.00
H3     H     0.26800   0.72010   0.48040   0.01267  Uiso   1.00
H4     H     0.68170   0.83280   0.75530   0.01267  Uiso   1.00
H5     H     0.19020   0.01960   0.58850   0.01267  Uiso   1.00
H6     H     0.15000   0.93300   0.36700   0.01267  Uiso   1.00
H7     H     0.73820   0.71070   0.10880   0.01267  Uiso   1.00
H8     H     0.15000   0.06700   0.13300   0.01267  Uiso   1.00
H9     H     0.57910   0.70650   0.72320   0.01267  Uiso   1.00
H10    H     0.11940   0.17900   0.99980   0.01267  Uiso   1.00
H11    H     0.99190   0.83660   0.67010   0.01267  Uiso   1.00
H12    H     0.84400   0.33600   0.71400   0.01267  Uiso   1.00
H13    H     0.00810   0.83660   0.17010   0.01267  Uiso   1.00
H14    H     0.19560   0.89820   0.76120   0.01267  Uiso   1.00
H15    H     0.31480   0.38210   0.80730   0.01267  Uiso   1.00
H16    H     0.00140   0.23630   0.19490   0.01267  Uiso   1.00
H17    H     0.74300   0.80600   0.34400   0.01267  Uiso   1.00
H18    H     0.00810   0.16340   0.32990   0.01267  Uiso   1.00
H19    H     0.25700   0.19400   0.65600   0.01267  Uiso   1.00
H20    H     0.15600   0.66400   0.28600   0.01267  Uiso   1.00
H21    H     0.74300   0.19400   0.15600   0.01267  Uiso   1.00
H22    H     0.31150   0.28520   0.47510   0.01267  Uiso   1.00
H23    H     0.68170   0.16720   0.74470   0.01267  Uiso   1.00
H24    H     0.26180   0.71070   0.60880   0.01267  Uiso   1.00
H25    H     0.68850   0.71480   0.52490   0.01267  Uiso   1.00
H26    H     0.79180   0.84130   0.55680   0.01267  Uiso   1.00
H27    H     0.31150   0.71480   0.02490   0.01267  Uiso   1.00
H28    H     0.20820   0.15870   0.44320   0.01267  Uiso   1.00
H29    H     0.31830   0.83280   0.25530   0.01267  Uiso   1.00
H30    H     0.42090   0.70650   0.22320   0.01267  Uiso   1.00
H31    H     0.57910   0.29350   0.77680   0.01267  Uiso   1.00
H32    H     0.73820   0.28930   0.39120   0.01267  Uiso   1.00
H33    H     0.99860   0.23630   0.69490   0.01267  Uiso   1.00
H34    H     0.31830   0.16720   0.24470   0.01267  Uiso   1.00
H35    H     0.68520   0.38210   0.30730   0.01267  Uiso   1.00
H36    H     0.85000   0.06700   0.63300   0.01267  Uiso   1.00
H37    H     0.11940   0.82100   0.50020   0.01267  Uiso   1.00
H38    H     0.73200   0.72010   0.98040   0.01267  Uiso   1.00
H39    H     0.19020   0.98040   0.91150   0.01267  Uiso   1.00
H40    H     0.79180   0.15870   0.94320   0.01267  Uiso   1.00
H41    H     0.68520   0.61790   0.19270   0.01267  Uiso   1.00
H42    H     0.88060   0.82100   0.00020   0.01267  Uiso   1.00
H43    H     0.80440   0.10180   0.23880   0.01267  Uiso   1.00
H44    H     0.80440   0.89820   0.26120   0.01267  Uiso   1.00
H45    H     0.42090   0.29350   0.27680   0.01267  Uiso   1.00
H46    H     0.99860   0.76370   0.80510   0.01267  Uiso   1.00
H47    H     0.73200   0.27990   0.51960   0.01267  Uiso   1.00
H48    H     0.88060   0.17900   0.49980   0.01267  Uiso   1.00
H49    H     0.99190   0.16340   0.82990   0.01267  Uiso   1.00
H50    H     0.80980   0.01960   0.08850   0.01267  Uiso   1.00
H51    H     0.68850   0.28520   0.97510   0.01267  Uiso   1.00
H52    H     0.15600   0.33600   0.21400   0.01267  Uiso   1.00
H53    H     0.26180   0.28930   0.89120   0.01267  Uiso   1.00
H54    H     0.26800   0.27990   0.01960   0.01267  Uiso   1.00
H55    H     0.20820   0.84130   0.05680   0.01267  Uiso   1.00
H56    H     0.80980   0.98040   0.41150   0.01267  Uiso   1.00
H57    H     0.19560   0.10180   0.73880   0.01267  Uiso   1.00
H58    H     0.85000   0.93300   0.86700   0.01267  Uiso   1.00
H59    H     0.25700   0.80600   0.84400   0.01267  Uiso   1.00
H60    H     0.84400   0.66400   0.78600   0.01267  Uiso   1.00
C1     C     0.08530   0.03050   0.13220   0.01267  Uiso   1.00
C2     C     0.37550   0.69731   0.12108   0.01267  Uiso   1.00
C3     C     0.66580   0.64462   0.32990   0.01267  Uiso   1.00
C4     C     0.05590   0.24460   0.16000   0.01267  Uiso   1.00
C5     C     0.09450   0.05200   0.34524   0.01267  Uiso   1.00
C6     C     0.25450   0.78650   0.79734   0.01267  Uiso   1.00
C7     C     0.10550   0.07920   0.87024   0.01267  Uiso   1.00
C8     C     0.87380   0.21040   0.54310   0.01267  Uiso   1.00
C9     C     0.85460   0.69580   0.82822   0.01267  Uiso   1.00
C10    C     0.77910   0.84220   0.24753   0.01267  Uiso   1.00
C11    C     0.90550   0.05200   0.84524   0.01267  Uiso   1.00
C12    C     0.55990   0.38566   0.89814   0.01267  Uiso   1.00
C13    C     0.74550   0.21350   0.20266   0.01267  Uiso   1.00
C14    C     0.37550   0.30269   0.37892   0.01267  Uiso   1.00
C15    C     0.44010   0.61434   0.10186   0.01267  Uiso   1.00
C16    C     0.02200   0.94370   0.89238   0.01267  Uiso   1.00
C17    C     0.62210   0.26670   0.81025   0.01267  Uiso   1.00
C18    C     0.97800   0.94370   0.39238   0.01267  Uiso   1.00
C19    C     0.00060   0.89180   0.15442   0.01267  Uiso   1.00
C20    C     0.04860   0.80230   0.40420   0.01267  Uiso   1.00
C21    C     0.73980   0.27020   0.34381   0.01267  Uiso   1.00
C22    C     0.89450   0.92080   0.12976   0.01267  Uiso   1.00
C23    C     0.94410   0.24460   0.66000   0.01267  Uiso   1.00
C24    C     0.37790   0.73330   0.18975   0.01267  Uiso   1.00
C25    C     0.33420   0.35538   0.67010   0.01267  Uiso   1.00
C26    C     0.25350   0.15190   0.34081   0.01267  Uiso   1.00
C27    C     0.77450   0.31776   0.61949   0.01267  Uiso   1.00
C28    C     0.77420   0.18680   0.32297   0.01267  Uiso   1.00
C29    C     0.44010   0.38566   0.39814   0.01267  Uiso   1.00
C30    C     0.08530   0.96950   0.36780   0.01267  Uiso   1.00
C31    C     0.94410   0.75540   0.84000   0.01267  Uiso   1.00
C32    C     0.77910   0.15780   0.25247   0.01267  Uiso   1.00
C33    C     0.78500   0.27080   0.55520   0.01267  Uiso   1.00
C34    C     0.26020   0.72980   0.65619   0.01267  Uiso   1.00
C35    C     0.32510   0.61969   0.36636   0.01267  Uiso   1.00
C36    C     0.74550   0.78650   0.29734   0.01267  Uiso   1.00
C37    C     0.29240   0.67460   0.70650   0.01267  Uiso   1.00
C38    C     0.67490   0.38031   0.63364   0.01267  Uiso   1.00
C39    C     0.14540   0.69580   0.32822   0.01267  Uiso   1.00
C40    C     0.74930   0.81390   0.59011   0.01267  Uiso   1.00
C41    C     0.77420   0.81320   0.17703   0.01267  Uiso   1.00
C42    C     0.62450   0.30269   0.87892   0.01267  Uiso   1.00
C43    C     0.31670   0.19120   0.29090   0.01267  Uiso   1.00
C44    C     0.37790   0.26670   0.31025   0.01267  Uiso   1.00
C45    C     0.62210   0.73330   0.68975   0.01267  Uiso   1.00
C46    C     0.11870   0.99810   0.89438   0.01267  Uiso   1.00
C47    C     0.78500   0.72920   0.94480   0.01267  Uiso   1.00
C48    C     0.31670   0.80880   0.20910   0.01267  Uiso   1.00
C49    C     0.73980   0.72980   0.15619   0.01267  Uiso   1.00
C50    C     0.97800   0.05630   0.10762   0.01267  Uiso   1.00
C51    C     0.70840   0.29705   0.22303   0.01267  Uiso   1.00
C52    C     0.74650   0.15190   0.84081   0.01267  Uiso   1.00
C53    C     0.22580   0.81320   0.67703   0.01267  Uiso   1.00
C54    C     0.22580   0.18680   0.82297   0.01267  Uiso   1.00
C55    C     0.25350   0.84810   0.15919   0.01267  Uiso   1.00
C56    C     0.25070   0.81390   0.09011   0.01267  Uiso   1.00
C57    C     0.12620   0.78960   0.45690   0.01267  Uiso   1.00
C58    C     0.02200   0.05630   0.60762   0.01267  Uiso   1.00
C59    C     0.67490   0.61969   0.86636   0.01267  Uiso   1.00
C60    C     0.05590   0.75540   0.34000   0.01267  Uiso   1.00
C61    C     0.68760   0.26180   0.92876   0.01267  Uiso   1.00
C62    C     0.11870   0.00190   0.60562   0.01267  Uiso   1.00
C63    C     0.85460   0.30420   0.67178   0.01267  Uiso   1.00
C64    C     0.22090   0.84220   0.74753   0.01267  Uiso   1.00
C65    C     0.29160   0.70295   0.77697   0.01267  Uiso   1.00
C66    C     0.68760   0.73820   0.57124   0.01267  Uiso   1.00
C67    C     0.25450   0.21350   0.70266   0.01267  Uiso   1.00
C68    C     0.09450   0.94800   0.15476   0.01267  Uiso   1.00
C69    C     0.68330   0.19120   0.79090   0.01267  Uiso   1.00
C70    C     0.10550   0.92080   0.62976   0.01267  Uiso   1.00
C71    C     0.26020   0.27020   0.84381   0.01267  Uiso   1.00
C72    C     0.62450   0.69731   0.62108   0.01267  Uiso   1.00
C73    C     0.99940   0.10820   0.84558   0.01267  Uiso   1.00
C74    C     0.77450   0.68224   0.88051   0.01267  Uiso   1.00
C75    C     0.29240   0.32540   0.79350   0.01267  Uiso   1.00
C76    C     0.55990   0.61434   0.60186   0.01267  Uiso   1.00
C77    C     0.74930   0.18610   0.90989   0.01267  Uiso   1.00
C78    C     0.32510   0.38031   0.13364   0.01267  Uiso   1.00
C79    C     0.89450   0.07920   0.37024   0.01267  Uiso   1.00
C80    C     0.22090   0.15780   0.75247   0.01267  Uiso   1.00
C81    C     0.99940   0.89180   0.65442   0.01267  Uiso   1.00
C82    C     0.22550   0.31776   0.11949   0.01267  Uiso   1.00
C83    C     0.14540   0.30420   0.17178   0.01267  Uiso   1.00
C84    C     0.88130   0.00190   0.10562   0.01267  Uiso   1.00
C85    C     0.31240   0.73820   0.07124   0.01267  Uiso   1.00
C86    C     0.29160   0.29705   0.72303   0.01267  Uiso   1.00
C87    C     0.87380   0.78960   0.95690   0.01267  Uiso   1.00
C88    C     0.22550   0.68224   0.38051   0.01267  Uiso   1.00
C89    C     0.91470   0.03050   0.63220   0.01267  Uiso   1.00
C90    C     0.88130   0.99810   0.39438   0.01267  Uiso   1.00
C91    C     0.95140   0.19770   0.59580   0.01267  Uiso   1.00
C92    C     0.91470   0.96950   0.86780   0.01267  Uiso   1.00
C93    C     0.90550   0.94800   0.65476   0.01267  Uiso   1.00
C94    C     0.70760   0.32540   0.29350   0.01267  Uiso   1.00
C95    C     0.70760   0.67460   0.20650   0.01267  Uiso   1.00
C96    C     0.70840   0.70295   0.27697   0.01267  Uiso   1.00
C97    C     0.68330   0.80880   0.70910   0.01267  Uiso   1.00
C98    C     0.04860   0.19770   0.09580   0.01267  Uiso   1.00
C99    C     0.25070   0.18610   0.40989   0.01267  Uiso   1.00
C100   C     0.33420   0.64462   0.82990   0.01267  Uiso   1.00
C101   C     0.74650   0.84810   0.65919   0.01267  Uiso   1.00
C102   C     0.21500   0.27080   0.05520   0.01267  Uiso   1.00
C103   C     0.31240   0.26180   0.42876   0.01267  Uiso   1.00
C104   C     0.95140   0.80230   0.90420   0.01267  Uiso   1.00
C105   C     0.21500   0.72920   0.44480   0.01267  Uiso   1.00
C106   C     0.66580   0.35538   0.17010   0.01267  Uiso   1.00
C107   C     0.12620   0.21040   0.04310   0.01267  Uiso   1.00
C108   C     0.00060   0.10820   0.34558   0.01267  Uiso   1.00
O1     O     0.04060   0.86289   0.91646   0.01267  Uiso   1.00
O2     O     0.38640   0.39701   0.08157   0.01267  Uiso   1.00
O3     O     0.32530   0.33432   0.60578   0.01267  Uiso   1.00
O4     O     0.51540   0.42575   0.84978   0.01267  Uiso   1.00
O5     O     0.45170   0.58627   0.03904   0.01267  Uiso   1.00
O6     O     0.67470   0.33432   0.10578   0.01267  Uiso   1.00
O7     O     0.95940   0.86289   0.41646   0.01267  Uiso   1.00
O8     O     0.32530   0.66568   0.89422   0.01267  Uiso   1.00
O9     O     0.38070   0.42756   0.69165   0.01267  Uiso   1.00
O10    O     0.45170   0.41373   0.46096   0.01267  Uiso   1.00
O11    O     0.51540   0.57425   0.65022   0.01267  Uiso   1.00
O12    O     0.20260   0.13306   0.87601   0.01267  Uiso   1.00
O13    O     0.79860   0.92605   0.68264   0.01267  Uiso   1.00
O14    O     0.66060   0.41077   0.69562   0.01267  Uiso   1.00
O15    O     0.33940   0.41077   0.19562   0.01267  Uiso   1.00
O16    O     0.61360   0.60299   0.91843   0.01267  Uiso   1.00
O17    O     0.54830   0.58627   0.53904   0.01267  Uiso   1.00
O18    O     0.61930   0.57244   0.30835   0.01267  Uiso   1.00
O19    O     0.66060   0.58923   0.80438   0.01267  Uiso   1.00
O20    O     0.48460   0.57425   0.15022   0.01267  Uiso   1.00
O21    O     0.54830   0.41373   0.96096   0.01267  Uiso   1.00
O22    O     0.20140   0.07395   0.31736   0.01267  Uiso   1.00
O23    O     0.79740   0.86694   0.12399   0.01267  Uiso   1.00
O24    O     0.20140   0.92605   0.18264   0.01267  Uiso   1.00
O25    O     0.79860   0.07395   0.81736   0.01267  Uiso   1.00
O26    O     0.33940   0.58923   0.30438   0.01267  Uiso   1.00
O27    O     0.04060   0.13711   0.58354   0.01267  Uiso   1.00
O28    O     0.38640   0.60299   0.41843   0.01267  Uiso   1.00
O29    O     0.38070   0.57244   0.80835   0.01267  Uiso   1.00
O30    O     0.20260   0.86694   0.62399   0.01267  Uiso   1.00
O31    O     0.61930   0.42756   0.19165   0.01267  Uiso   1.00
O32    O     0.67470   0.66568   0.39422   0.01267  Uiso   1.00
O33    O     0.61360   0.39701   0.58157   0.01267  Uiso   1.00
O34    O     0.95940   0.13711   0.08354   0.01267  Uiso   1.00
O35    O     0.48460   0.42575   0.34978   0.01267  Uiso   1.00
O36    O     0.79740   0.13306   0.37601   0.01267  Uiso   1.00
