data_ic402280p_si_002_clean
_audit_creation_date              2015-08-19
_audit_creation_method            'Materials Studio'
_symmetry_space_group_name_H-M    'P1'
_symmetry_Int_Tables_number       1
_symmetry_cell_setting            triclinic
loop_
_symmetry_equiv_pos_as_xyz
  x,y,z
_cell_length_a                    16.1491
_cell_length_b                    20.6896
_cell_length_c                    20.7592
_cell_angle_alpha                 113.4080
_cell_angle_beta                  98.0400
_cell_angle_gamma                 90.0770
loop_
_atom_site_label
_atom_site_type_symbol
_atom_site_fract_x
_atom_site_fract_y
_atom_site_fract_z
_atom_site_U_iso_or_equiv
_atom_site_adp_type
_atom_site_occupancy
Cu1    Cu    0.68459   0.06955   0.57083   0.01267  Uiso   1.00
Cu2    Cu    0.82956   0.15842   0.18945   0.01267  Uiso   1.00
Cu3    Cu    0.93363   0.21638   0.88752   0.01267  Uiso   1.00
Cu4    Cu    0.67032   0.05922   0.06274   0.01267  Uiso   1.00
Cu5    Cu    0.55985   0.72086   0.83290   0.01267  Uiso   1.00
Cu6    Cu    0.32968   0.94078   0.93726   0.01267  Uiso   1.00
Cu7    Cu    0.61750   0.19704   0.70923   0.01267  Uiso   1.00
Cu8    Cu    0.31901   0.35460   0.55800   0.01267  Uiso   1.00
Cu9    Cu    0.67591   0.65180   0.94278   0.01267  Uiso   1.00
Cu10   Cu    0.38250   0.80296   0.29077   0.01267  Uiso   1.00
Cu11   Cu    0.44124   0.28000   0.65423   0.01267  Uiso   1.00
Cu12   Cu    0.38086   0.81034   0.78999   0.01267  Uiso   1.00
Cu13   Cu    0.14106   0.28087   0.48429   0.01267  Uiso   1.00
Cu14   Cu    0.68099   0.64540   0.44200   0.01267  Uiso   1.00
Cu15   Cu    0.82152   0.54638   0.98048   0.01267  Uiso   1.00
Cu16   Cu    0.88946   0.69131   0.96245   0.01267  Uiso   1.00
Cu17   Cu    0.32409   0.34820   0.05722   0.01267  Uiso   1.00
Cu18   Cu    0.85894   0.71913   0.51571   0.01267  Uiso   1.00
Cu19   Cu    0.17848   0.45362   0.01952   0.01267  Uiso   1.00
Cu20   Cu    0.50405   0.43304   0.64533   0.01267  Uiso   1.00
Cu21   Cu    0.00131   0.09259   0.74853   0.01267  Uiso   1.00
Cu22   Cu    0.04292   0.79882   0.65040   0.01267  Uiso   1.00
Cu23   Cu    0.82620   0.54529   0.47719   0.01267  Uiso   1.00
Cu24   Cu    0.49595   0.56696   0.35467   0.01267  Uiso   1.00
Cu25   Cu    0.61914   0.18966   0.21001   0.01267  Uiso   1.00
Cu26   Cu    0.17380   0.45471   0.52281   0.01267  Uiso   1.00
Cu27   Cu    0.31541   0.93045   0.42917   0.01267  Uiso   1.00
Cu28   Cu    0.17030   0.82711   0.28669   0.01267  Uiso   1.00
Cu29   Cu    0.95708   0.20118   0.34960   0.01267  Uiso   1.00
Cu30   Cu    0.99154   0.92346   0.79895   0.01267  Uiso   1.00
Cu31   Cu    0.50295   0.43262   0.15985   0.01267  Uiso   1.00
Cu32   Cu    0.06637   0.78362   0.11248   0.01267  Uiso   1.00
Cu33   Cu    0.99869   0.90741   0.25147   0.01267  Uiso   1.00
Cu34   Cu    0.11054   0.30869   0.03755   0.01267  Uiso   1.00
Cu35   Cu    0.82970   0.17289   0.71331   0.01267  Uiso   1.00
Cu36   Cu    0.44015   0.27914   0.16710   0.01267  Uiso   1.00
Cu37   Cu    0.17044   0.84158   0.81055   0.01267  Uiso   1.00
Cu38   Cu    0.49705   0.56738   0.84015   0.01267  Uiso   1.00
Cu39   Cu    0.55876   0.72000   0.34577   0.01267  Uiso   1.00
Cu40   Cu    0.00846   0.07654   0.20105   0.01267  Uiso   1.00
H1     H     0.76340   0.27550   0.96120   0.01267  Uiso   1.00
H2     H     0.40470   0.14730   0.49530   0.01267  Uiso   1.00
H3     H     0.66110   0.25340   0.38650   0.01267  Uiso   1.00
H4     H     0.80150   0.89140   0.17030   0.01267  Uiso   1.00
H5     H     0.21740   0.32970   0.95890   0.01267  Uiso   1.00
H6     H     0.85280   0.57900   0.73220   0.01267  Uiso   1.00
H7     H     0.32600   0.34650   0.78460   0.01267  Uiso   1.00
H8     H     0.05940   0.06760   0.95150   0.01267  Uiso   1.00
H9     H     0.24860   0.67750   0.75990   0.01267  Uiso   1.00
H10    H     0.26250   0.16820   0.38890   0.01267  Uiso   1.00
H11    H     0.80580   0.26370   0.44720   0.01267  Uiso   1.00
H12    H     0.05450   0.05600   0.40080   0.01267  Uiso   1.00
H13    H     0.94060   0.93240   0.04850   0.01267  Uiso   1.00
H14    H     0.23660   0.72450   0.03880   0.01267  Uiso   1.00
H15    H     0.68550   0.40460   0.91300   0.01267  Uiso   1.00
H16    H     0.90370   0.35500   0.35870   0.01267  Uiso   1.00
H17    H     0.27200   0.19600   0.18720   0.01267  Uiso   1.00
H18    H     0.29500   0.57660   0.78900   0.01267  Uiso   1.00
H19    H     0.34320   0.92230   0.66960   0.01267  Uiso   1.00
H20    H     0.27960   0.81600   0.88360   0.01267  Uiso   1.00
H21    H     0.54680   0.40990   0.85190   0.01267  Uiso   1.00
H22    H     0.60020   0.89570   0.84030   0.01267  Uiso   1.00
H23    H     0.15680   0.02890   0.65700   0.01267  Uiso   1.00
H24    H     0.86000   0.99290   0.91370   0.01267  Uiso   1.00
H25    H     0.73420   0.19670   0.62760   0.01267  Uiso   1.00
H26    H     0.19420   0.73630   0.55280   0.01267  Uiso   1.00
H27    H     0.72800   0.80400   0.81280   0.01267  Uiso   1.00
H28    H     0.50770   0.05830   0.45710   0.01267  Uiso   1.00
H29    H     0.25320   0.66750   0.25550   0.01267  Uiso   1.00
H30    H     0.09630   0.64500   0.64130   0.01267  Uiso   1.00
H31    H     0.61470   0.89510   0.34990   0.01267  Uiso   1.00
H32    H     0.72850   0.81680   0.34200   0.01267  Uiso   1.00
H33    H     0.67400   0.65350   0.21540   0.01267  Uiso   1.00
H34    H     0.31450   0.59540   0.08700   0.01267  Uiso   1.00
H35    H     0.19850   0.10860   0.82970   0.01267  Uiso   1.00
H36    H     0.45400   0.58980   0.63060   0.01267  Uiso   1.00
H37    H     0.59530   0.85270   0.50470   0.01267  Uiso   1.00
H38    H     0.58530   0.90030   0.15610   0.01267  Uiso   1.00
H39    H     0.86670   0.38920   0.57590   0.01267  Uiso   1.00
H40    H     0.31160   0.59740   0.57770   0.01267  Uiso   1.00
H41    H     0.99550   0.54190   0.08720   0.01267  Uiso   1.00
H42    H     0.45320   0.59010   0.14810   0.01267  Uiso   1.00
H43    H     0.97310   0.21310   0.76440   0.01267  Uiso   1.00
H44    H     0.39540   0.15290   0.00490   0.01267  Uiso   1.00
H45    H     0.79430   0.92510   0.99120   0.01267  Uiso   1.00
H46    H     0.18230   0.38260   0.59190   0.01267  Uiso   1.00
H47    H     0.29590   0.57330   0.29440   0.01267  Uiso   1.00
H48    H     0.53760   0.68080   0.45810   0.01267  Uiso   1.00
H49    H     0.99030   0.46340   0.43370   0.01267  Uiso   1.00
H50    H     0.65680   0.07770   0.33040   0.01267  Uiso   1.00
H51    H     0.68840   0.40260   0.42230   0.01267  Uiso   1.00
H52    H     0.27150   0.18320   0.65800   0.01267  Uiso   1.00
H53    H     0.20570   0.07490   0.00880   0.01267  Uiso   1.00
H54    H     0.75140   0.32250   0.24010   0.01267  Uiso   1.00
H55    H     0.81770   0.61740   0.40810   0.01267  Uiso   1.00
H56    H     0.64640   0.08020   0.82720   0.01267  Uiso   1.00
H57    H     0.23560   0.18880   0.95600   0.01267  Uiso   1.00
H58    H     0.65550   0.52700   0.13660   0.01267  Uiso   1.00
H59    H     0.81140   0.93590   0.52270   0.01267  Uiso   1.00
H60    H     0.62860   0.26760   0.88460   0.01267  Uiso   1.00
H61    H     0.42420   0.09240   0.34970   0.01267  Uiso   1.00
H62    H     0.60460   0.84710   0.99510   0.01267  Uiso   1.00
H63    H     0.97710   0.19980   0.21930   0.01267  Uiso   1.00
H64    H     0.21390   0.09020   0.26310   0.01267  Uiso   1.00
H65    H     0.00450   0.45810   0.91280   0.01267  Uiso   1.00
H66    H     0.70500   0.42340   0.21100   0.01267  Uiso   1.00
H67    H     0.34450   0.47300   0.86340   0.01267  Uiso   1.00
H68    H     0.83300   0.09930   0.39360   0.01267  Uiso   1.00
H69    H     0.13900   0.17910   0.57930   0.01267  Uiso   1.00
H70    H     0.78610   0.90980   0.73690   0.01267  Uiso   1.00
H71    H     0.39980   0.10430   0.15970   0.01267  Uiso   1.00
H72    H     0.73750   0.83180   0.61110   0.01267  Uiso   1.00
H73    H     0.84090   0.11970   0.95740   0.01267  Uiso   1.00
H74    H     0.00970   0.53660   0.56630   0.01267  Uiso   1.00
H75    H     0.16700   0.90070   0.60640   0.01267  Uiso   1.00
H76    H     0.50870   0.94170   0.04010   0.01267  Uiso   1.00
H77    H     0.02690   0.78690   0.23560   0.01267  Uiso   1.00
H78    H     0.13130   0.21560   0.13750   0.01267  Uiso   1.00
H79    H     0.35360   0.91980   0.17280   0.01267  Uiso   1.00
H80    H     0.76440   0.81120   0.04400   0.01267  Uiso   1.00
H81    H     0.89830   0.35770   0.86610   0.01267  Uiso   1.00
H82    H     0.26580   0.80330   0.37240   0.01267  Uiso   1.00
H83    H     0.49130   0.05830   0.95990   0.01267  Uiso   1.00
H84    H     0.09190   0.58910   0.22200   0.01267  Uiso   1.00
H85    H     0.84320   0.97110   0.34300   0.01267  Uiso   1.00
H86    H     0.86100   0.82090   0.42070   0.01267  Uiso   1.00
H87    H     0.49230   0.94170   0.54290   0.01267  Uiso   1.00
H88    H     0.66930   0.65700   0.69880   0.01267  Uiso   1.00
H89    H     0.90810   0.41090   0.77800   0.01267  Uiso   1.00
H90    H     0.65200   0.52930   0.61990   0.01267  Uiso   1.00
H91    H     0.46760   0.31850   0.05980   0.01267  Uiso   1.00
H92    H     0.78260   0.67030   0.04110   0.01267  Uiso   1.00
H93    H     0.37140   0.73240   0.11540   0.01267  Uiso   1.00
H94    H     0.13330   0.61080   0.42410   0.01267  Uiso   1.00
H95    H     0.18860   0.06410   0.47730   0.01267  Uiso   1.00
H96    H     0.34800   0.47070   0.38010   0.01267  Uiso   1.00
H97    H     0.53240   0.68150   0.94020   0.01267  Uiso   1.00
H98    H     0.72040   0.18400   0.11640   0.01267  Uiso   1.00
H99    H     0.10170   0.64230   0.13390   0.01267  Uiso   1.00
H100   H     0.57580   0.90760   0.65030   0.01267  Uiso   1.00
H101   H     0.74680   0.33250   0.74450   0.01267  Uiso   1.00
H102   H     0.33070   0.34300   0.30120   0.01267  Uiso   1.00
H103   H     0.38530   0.10490   0.65010   0.01267  Uiso   1.00
H104   H     0.86870   0.78440   0.86250   0.01267  Uiso   1.00
H105   H     0.02290   0.80020   0.78070   0.01267  Uiso   1.00
H106   H     0.14000   0.00710   0.08630   0.01267  Uiso   1.00
H107   H     0.46240   0.31920   0.54190   0.01267  Uiso   1.00
H108   H     0.14720   0.42100   0.26780   0.01267  Uiso   1.00
H109   H     0.94550   0.94400   0.59920   0.01267  Uiso   1.00
H110   H     0.54600   0.41020   0.36940   0.01267  Uiso   1.00
H111   H     0.41470   0.09970   0.84390   0.01267  Uiso   1.00
H112   H     0.15910   0.88030   0.04260   0.01267  Uiso   1.00
H113   H     0.33890   0.74660   0.61350   0.01267  Uiso   1.00
H114   H     0.70410   0.42670   0.70560   0.01267  Uiso   1.00
C1     C     0.36890   0.45040   0.82280   0.01267  Uiso   1.00
C2     C     0.62920   0.99320   0.84610   0.01267  Uiso   1.00
C3     C     0.41750   0.10960   0.25960   0.01267  Uiso   1.00
C4     C     0.10470   0.56940   0.25510   0.01267  Uiso   1.00
C5     C     0.82870   0.51880   0.59150   0.01267  Uiso   1.00
C6     C     0.99500   0.58060   0.07500   0.01267  Uiso   1.00
C7     C     0.61880   0.99580   0.23650   0.01267  Uiso   1.00
C8     C     0.40620   0.11200   0.75120   0.01267  Uiso   1.00
C9     C     0.18110   0.11950   0.29490   0.01267  Uiso   1.00
C10    C     0.65420   0.02990   0.92520   0.01267  Uiso   1.00
C11    C     0.40280   0.07610   0.79480   0.01267  Uiso   1.00
C12    C     0.86550   0.07400   0.35930   0.01267  Uiso   1.00
C13    C     0.41270   0.55290   0.12580   0.01267  Uiso   1.00
C14    C     0.99860   0.58190   0.57000   0.01267  Uiso   1.00
C15    C     0.37150   0.44840   0.33900   0.01267  Uiso   1.00
C16    C     0.73680   0.79470   0.37340   0.01267  Uiso   1.00
C17    C     0.00500   0.41940   0.92500   0.01267  Uiso   1.00
C18    C     0.85370   0.48830   0.64590   0.01267  Uiso   1.00
C19    C     0.26320   0.20530   0.62660   0.01267  Uiso   1.00
C20    C     0.63770   0.62260   0.70450   0.01267  Uiso   1.00
C21    C     0.24490   0.74040   0.08800   0.01267  Uiso   1.00
C22    C     0.51020   0.09450   0.50200   0.01267  Uiso   1.00
C23    C     0.86750   0.09330   0.91920   0.01267  Uiso   1.00
C24    C     0.41200   0.55370   0.61240   0.01267  Uiso   1.00
C25    C     0.11860   0.45450   0.15350   0.01267  Uiso   1.00
C26    C     0.62850   0.55160   0.66100   0.01267  Uiso   1.00
C27    C     0.50300   0.90640   0.99450   0.01267  Uiso   1.00
C28    C     0.61100   0.00050   0.73250   0.01267  Uiso   1.00
C29    C     0.66720   0.44200   0.41630   0.01267  Uiso   1.00
C30    C     0.81890   0.88050   0.70510   0.01267  Uiso   1.00
C31    C     0.87160   0.00330   0.33150   0.01267  Uiso   1.00
C32    C     0.79190   0.83700   0.63500   0.01267  Uiso   1.00
C33    C     0.36880   0.96780   0.19480   0.01267  Uiso   1.00
C34    C     0.59380   0.88800   0.24880   0.01267  Uiso   1.00
C35    C     0.44400   0.14620   0.03080   0.01267  Uiso   1.00
C36    C     0.38120   0.00420   0.76350   0.01267  Uiso   1.00
C37    C     0.90250   0.96710   0.06240   0.01267  Uiso   1.00
C38    C     0.54660   0.85620   0.47680   0.01267  Uiso   1.00
C39    C     0.81040   0.79730   0.41720   0.01267  Uiso   1.00
C40    C     0.69670   0.32980   0.22480   0.01267  Uiso   1.00
C41    C     0.67100   0.38560   0.20780   0.01267  Uiso   1.00
C42    C     0.26010   0.22040   0.15810   0.01267  Uiso   1.00
C43    C     0.38070   0.96140   0.80830   0.01267  Uiso   1.00
C44    C     0.94610   0.36360   0.89920   0.01267  Uiso   1.00
C45    C     0.09750   0.03290   0.93760   0.01267  Uiso   1.00
C46    C     0.88130   0.50310   0.76790   0.01267  Uiso   1.00
C47    C     0.58250   0.89040   0.74040   0.01267  Uiso   1.00
C48    C     0.81640   0.81690   0.07200   0.01267  Uiso   1.00
C49    C     0.39660   0.07800   0.18680   0.01267  Uiso   1.00
C50    C     0.13250   0.90670   0.08080   0.01267  Uiso   1.00
C51    C     0.83720   0.86140   0.14220   0.01267  Uiso   1.00
C52    C     0.59720   0.92390   0.20520   0.01267  Uiso   1.00
C53    C     0.36230   0.37740   0.29550   0.01267  Uiso   1.00
C54    C     0.68000   0.25510   0.86940   0.01267  Uiso   1.00
C55    C     0.32900   0.61440   0.79220   0.01267  Uiso   1.00
C56    C     0.64120   0.61970   0.22100   0.01267  Uiso   1.00
C57    C     0.21120   0.75250   0.60160   0.01267  Uiso   1.00
C58    C     0.67460   0.02980   0.43160   0.01267  Uiso   1.00
C59    C     0.90840   0.97960   0.60570   0.01267  Uiso   1.00
C60    C     0.32540   0.97020   0.56840   0.01267  Uiso   1.00
C61    C     0.14630   0.51170   0.35410   0.01267  Uiso   1.00
C62    C     0.66410   0.44450   0.90840   0.01267  Uiso   1.00
C63    C     0.83420   0.97510   0.56290   0.01267  Uiso   1.00
C64    C     0.41220   0.07060   0.30050   0.01267  Uiso   1.00
C65    C     0.18360   0.18310   0.92800   0.01267  Uiso   1.00
C66    C     0.18200   0.23140   0.13070   0.01267  Uiso   1.00
C67    C     0.12840   0.99670   0.66850   0.01267  Uiso   1.00
C68    C     0.13870   0.46890   0.28240   0.01267  Uiso   1.00
C69    C     0.64310   0.99220   0.35310   0.01267  Uiso   1.00
C70    C     0.58780   0.92940   0.69950   0.01267  Uiso   1.00
C71    C     0.49700   0.09360   0.00550   0.01267  Uiso   1.00
C72    C     0.70860   0.24200   0.36450   0.01267  Uiso   1.00
C73    C     0.35690   0.00780   0.64690   0.01267  Uiso   1.00
C74    C     0.35810   0.97050   0.69010   0.01267  Uiso   1.00
C75    C     0.16280   0.13860   0.85780   0.01267  Uiso   1.00
C76    C     0.81800   0.76860   0.86930   0.01267  Uiso   1.00
C77    C     0.12110   0.97650   0.10480   0.01267  Uiso   1.00
C78    C     0.04620   0.64200   0.61170   0.01267  Uiso   1.00
C79    C     0.82120   0.96320   0.03050   0.01267  Uiso   1.00
C80    C     0.61670   0.04490   0.68980   0.01267  Uiso   1.00
C81    C     0.55600   0.85380   0.96920   0.01267  Uiso   1.00
C82    C     0.87890   0.02350   0.89520   0.01267  Uiso   1.00
C83    C     0.69320   0.33730   0.72450   0.01267  Uiso   1.00
C84    C     0.34580   0.97010   0.07480   0.01267  Uiso   1.00
C85    C     0.37080   0.00680   0.15390   0.01267  Uiso   1.00
C86    C     0.30680   0.66270   0.27550   0.01267  Uiso   1.00
C87    C     0.61930   0.03860   0.19170   0.01267  Uiso   1.00
C88    C     0.11870   0.49690   0.23210   0.01267  Uiso   1.00
C89    C     0.29140   0.75800   0.63550   0.01267  Uiso   1.00
C90    C     0.13020   0.58250   0.37600   0.01267  Uiso   1.00
C91    C     0.89530   0.43060   0.74490   0.01267  Uiso   1.00
C92    C     0.38320   0.07940   0.67810   0.01267  Uiso   1.00
C93    C     0.48980   0.90550   0.49800   0.01267  Uiso   1.00
C94    C     0.30330   0.67020   0.77520   0.01267  Uiso   1.00
C95    C     0.18960   0.20270   0.58280   0.01267  Uiso   1.00
C96    C     0.13450   0.92600   0.64070   0.01267  Uiso   1.00
C97    C     0.38900   0.99950   0.26750   0.01267  Uiso   1.00
C98    C     0.10980   0.61100   0.32650   0.01267  Uiso   1.00
C99    C     0.09160   0.02040   0.39430   0.01267  Uiso   1.00
C100   C     0.33040   0.61080   0.29750   0.01267  Uiso   1.00
C101   C     0.95380   0.35800   0.38830   0.01267  Uiso   1.00
C102   C     0.78880   0.24750   0.39840   0.01267  Uiso   1.00
C103   C     0.88140   0.54550   0.84650   0.01267  Uiso   1.00
C104   C     0.45340   0.14380   0.52320   0.01267  Uiso   1.00
C105   C     0.86980   0.41750   0.62400   0.01267  Uiso   1.00
C106   C     0.38330   0.95510   0.31020   0.01267  Uiso   1.00
C107   C     0.58800   0.44630   0.38760   0.01267  Uiso   1.00
C108   C     0.16580   0.02490   0.43710   0.01267  Uiso   1.00
C109   C     0.32000   0.74490   0.13060   0.01267  Uiso   1.00
C110   C     0.73990   0.77960   0.84190   0.01267  Uiso   1.00
C111   C     0.33280   0.55800   0.58370   0.01267  Uiso   1.00
C112   C     0.35880   0.38030   0.77900   0.01267  Uiso   1.00
C113   C     0.75510   0.25960   0.91200   0.01267  Uiso   1.00
C114   C     0.00140   0.41810   0.43000   0.01267  Uiso   1.00
C115   C     0.89020   0.38900   0.67350   0.01267  Uiso   1.00
C116   C     0.61680   0.92060   0.32190   0.01267  Uiso   1.00
C117   C     0.86130   0.53110   0.71760   0.01267  Uiso   1.00
C118   C     0.63110   0.54960   0.17720   0.01267  Uiso   1.00
C119   C     0.20810   0.16300   0.36500   0.01267  Uiso   1.00
C120   C     0.63120   0.03220   0.80520   0.01267  Uiso   1.00
C121   C     0.64190   0.02950   0.30990   0.01267  Uiso   1.00
C122   C     0.17880   0.03680   0.96950   0.01267  Uiso   1.00
C123   C     0.58730   0.44710   0.87420   0.01267  Uiso   1.00
C124   C     0.33590   0.55550   0.09160   0.01267  Uiso   1.00
C125   C     0.05390   0.63640   0.10080   0.01267  Uiso   1.00
C126   C     0.66960   0.38920   0.70250   0.01267  Uiso   1.00
C127   C     0.60340   0.92200   0.81320   0.01267  Uiso   1.00
C128   C     0.17130   0.48120   0.40850   0.01267  Uiso   1.00
S1     S     0.42738   0.20552   0.79202   0.01267  Uiso   1.00
S2     S     0.90741   0.29749   0.64552   0.01267  Uiso   1.00
S3     S     0.09259   0.70251   0.35448   0.01267  Uiso   1.00
S4     S     0.55506   0.79820   0.69614   0.01267  Uiso   1.00
S5     S     0.57262   0.79448   0.20798   0.01267  Uiso   1.00
S6     S     0.44494   0.20180   0.30386   0.01267  Uiso   1.00
N1     N     0.28990   0.49620   0.56520   0.01267  Uiso   1.00
N2     N     0.91680   0.03000   0.11720   0.01267  Uiso   1.00
N3     N     0.52120   0.81380   0.40950   0.01267  Uiso   1.00
N4     N     0.55910   0.56860   0.26240   0.01267  Uiso   1.00
N5     N     0.55770   0.57000   0.74850   0.01267  Uiso   1.00
N6     N     0.14830   0.92220   0.35280   0.01267  Uiso   1.00
N7     N     0.70960   0.21770   0.29490   0.01267  Uiso   1.00
N8     N     0.72590   0.71910   0.90480   0.01267  Uiso   1.00
N9     N     0.91730   0.85430   0.16340   0.01267  Uiso   1.00
N10    N     0.90250   0.11710   0.87650   0.01267  Uiso   1.00
N11    N     0.88540   0.78310   0.05120   0.01267  Uiso   1.00
N12    N     0.20540   0.24110   0.54620   0.01267  Uiso   1.00
N13    N     0.14310   0.19620   0.39250   0.01267  Uiso   1.00
N14    N     0.62550   0.29450   0.71200   0.01267  Uiso   1.00
N15    N     0.31970   0.24470   0.61630   0.01267  Uiso   1.00
N16    N     0.42870   0.89250   0.44210   0.01267  Uiso   1.00
N17    N     0.06460   0.93700   0.17140   0.01267  Uiso   1.00
N18    N     0.06660   0.40040   0.46440   0.01267  Uiso   1.00
N19    N     0.56170   0.31930   0.68220   0.01267  Uiso   1.00
N20    N     0.21000   0.79120   0.71400   0.01267  Uiso   1.00
N21    N     0.44120   0.89710   0.94090   0.01267  Uiso   1.00
N22    N     0.62780   0.28770   0.21500   0.01267  Uiso   1.00
N23    N     0.79460   0.75890   0.45380   0.01267  Uiso   1.00
N24    N     0.08320   0.97000   0.88280   0.01267  Uiso   1.00
N25    N     0.43830   0.68070   0.31780   0.01267  Uiso   1.00
N26    N     0.19990   0.96230   0.41030   0.01267  Uiso   1.00
N27    N     0.58870   0.37530   0.18610   0.01267  Uiso   1.00
N28    N     0.37450   0.70550   0.28800   0.01267  Uiso   1.00
N29    N     0.41960   0.48570   0.12140   0.01267  Uiso   1.00
N30    N     0.44230   0.43000   0.25150   0.01267  Uiso   1.00
N31    N     0.80010   0.03770   0.58970   0.01267  Uiso   1.00
N32    N     0.09910   0.12700   0.28080   0.01267  Uiso   1.00
N33    N     0.40820   0.36770   0.24310   0.01267  Uiso   1.00
N34    N     0.71010   0.50380   0.43480   0.01267  Uiso   1.00
N35    N     0.71580   0.73420   0.43260   0.01267  Uiso   1.00
N36    N     0.44090   0.43140   0.73760   0.01267  Uiso   1.00
N37    N     0.96030   0.65360   0.02590   0.01267  Uiso   1.00
N38    N     0.41130   0.62470   0.81390   0.01267  Uiso   1.00
N39    N     0.57910   0.51950   0.20400   0.01267  Uiso   1.00
N40    N     0.47330   0.18670   0.09920   0.01267  Uiso   1.00
N41    N     0.58060   0.51150   0.38990   0.01267  Uiso   1.00
N42    N     0.92190   0.00540   0.84040   0.01267  Uiso   1.00
N43    N     0.68250   0.74850   0.86470   0.01267  Uiso   1.00
N44    N     0.45730   0.84180   0.88470   0.01267  Uiso   1.00
N45    N     0.58910   0.37700   0.67580   0.01267  Uiso   1.00
N46    N     0.21270   0.97620   0.93420   0.01267  Uiso   1.00
N47    N     0.81500   0.23680   0.86930   0.01267  Uiso   1.00
N48    N     0.84670   0.06350   0.11810   0.01267  Uiso   1.00
N49    N     0.34460   0.45530   0.58220   0.01267  Uiso   1.00
N50    N     0.08270   0.14570   0.83660   0.01267  Uiso   1.00
N51    N     0.59180   0.63230   0.75690   0.01267  Uiso   1.00
N52    N     0.83820   0.22540   0.34850   0.01267  Uiso   1.00
N53    N     0.04870   0.95200   0.71770   0.01267  Uiso   1.00
N54    N     0.09750   0.88290   0.12350   0.01267  Uiso   1.00
N55    N     0.59610   0.63100   0.27310   0.01267  Uiso   1.00
N56    N     0.85170   0.07780   0.64720   0.01267  Uiso   1.00
N57    N     0.65540   0.54470   0.41780   0.01267  Uiso   1.00
N58    N     0.29570   0.49180   0.06560   0.01267  Uiso   1.00
N59    N     0.29040   0.78230   0.70510   0.01267  Uiso   1.00
N60    N     0.37220   0.71230   0.78500   0.01267  Uiso   1.00
N61    N     0.08180   0.95680   0.34200   0.01267  Uiso   1.00
N62    N     0.92360   0.82630   0.65880   0.01267  Uiso   1.00
N63    N     0.91550   0.10100   0.32780   0.01267  Uiso   1.00
N64    N     0.93540   0.06300   0.82860   0.01267  Uiso   1.00
N65    N     0.94560   0.80670   0.10720   0.01267  Uiso   1.00
N66    N     0.77640   0.21920   0.80250   0.01267  Uiso   1.00
N67    N     0.08450   0.89900   0.67220   0.01267  Uiso   1.00
N68    N     0.44910   0.83620   0.38840   0.01267  Uiso   1.00
N69    N     0.27410   0.28090   0.09520   0.01267  Uiso   1.00
N70    N     0.42090   0.48050   0.79600   0.01267  Uiso   1.00
N71    N     0.30540   0.77040   0.19750   0.01267  Uiso   1.00
N72    N     0.00930   0.69560   0.60300   0.01267  Uiso   1.00
N73    N     0.70430   0.50820   0.93440   0.01267  Uiso   1.00
N74    N     0.90090   0.87300   0.71920   0.01267  Uiso   1.00
N75    N     0.78730   0.02380   0.06580   0.01267  Uiso   1.00
N76    N     0.52670   0.81330   0.90080   0.01267  Uiso   1.00
N77    N     0.68030   0.75530   0.38370   0.01267  Uiso   1.00
N78    N     0.41940   0.48850   0.61010   0.01267  Uiso   1.00
N79    N     0.11460   0.21690   0.94880   0.01267  Uiso   1.00
N80    N     0.06360   0.40770   0.97130   0.01267  Uiso   1.00
N81    N     0.65240   0.54920   0.91530   0.01267  Uiso   1.00
N82    N     0.05440   0.19330   0.89280   0.01267  Uiso   1.00
N83    N     0.93640   0.59230   0.02870   0.01267  Uiso   1.00
N84    N     0.79000   0.20880   0.28600   0.01267  Uiso   1.00
N85    N     0.18500   0.76320   0.13070   0.01267  Uiso   1.00
N86    N     0.06020   0.33070   0.44350   0.01267  Uiso   1.00
N87    N     0.28420   0.26580   0.56740   0.01267  Uiso   1.00
N88    N     0.54270   0.15820   0.11530   0.01267  Uiso   1.00
N89    N     0.40390   0.36900   0.72690   0.01267  Uiso   1.00
N90    N     0.03070   0.68060   0.07020   0.01267  Uiso   1.00
N91    N     0.31750   0.25150   0.13530   0.01267  Uiso   1.00
N92    N     0.55880   0.10290   0.05910   0.01267  Uiso   1.00
N93    N     0.93340   0.59960   0.53560   0.01267  Uiso   1.00
N94    N     0.41090   0.62300   0.32420   0.01267  Uiso   1.00
N95    N     0.42150   0.48010   0.31040   0.01267  Uiso   1.00
N96    N     0.55090   0.16380   0.61160   0.01267  Uiso   1.00
N97    N     0.99070   0.30440   0.39700   0.01267  Uiso   1.00
N98    N     0.95130   0.04800   0.28230   0.01267  Uiso   1.00
N99    N     0.07640   0.17370   0.34120   0.01267  Uiso   1.00
N100   N     0.15330   0.93650   0.88190   0.01267  Uiso   1.00
N101   N     0.56250   0.31580   0.19100   0.01267  Uiso   1.00
N102   N     0.07810   0.99460   0.15960   0.01267  Uiso   1.00
N103   N     0.22360   0.78080   0.19750   0.01267  Uiso   1.00
N104   N     0.58040   0.51430   0.87860   0.01267  Uiso   1.00
N105   N     0.69460   0.22960   0.80250   0.01267  Uiso   1.00
N106   N     0.93980   0.66930   0.55650   0.01267  Uiso   1.00
N107   N     0.91820   0.04320   0.65800   0.01267  Uiso   1.00
N108   N     0.34760   0.45080   0.08470   0.01267  Uiso   1.00
N109   N     0.43750   0.68420   0.80900   0.01267  Uiso   1.00
N110   N     0.16180   0.77460   0.65150   0.01267  Uiso   1.00
N111   N     0.47880   0.18620   0.59050   0.01267  Uiso   1.00
N112   N     0.85690   0.80380   0.60750   0.01267  Uiso   1.00
N113   N     0.03970   0.34640   0.97410   0.01267  Uiso   1.00
N114   N     0.57130   0.10750   0.55790   0.01267  Uiso   1.00
N115   N     0.80800   0.73080   0.90790   0.01267  Uiso   1.00
N116   N     0.07440   0.01280   0.71570   0.01267  Uiso   1.00
N117   N     0.19200   0.26920   0.09210   0.01267  Uiso   1.00
N118   N     0.96930   0.31940   0.92980   0.01267  Uiso   1.00
N119   N     0.92560   0.98720   0.28430   0.01267  Uiso   1.00
N120   N     0.57850   0.51990   0.68960   0.01267  Uiso   1.00
O1     O     0.34610   0.23430   0.80010   0.01267  Uiso   1.00
O2     O     0.70950   0.08990   0.45360   0.01267  Uiso   1.00
O3     O     0.05310   0.83531   0.77060   0.01267  Uiso   1.00
O4     O     0.99690   0.29130   0.64560   0.01267  Uiso   1.00
O5     O     0.89660   0.61200   0.86920   0.01267  Uiso   1.00
O6     O     0.60450   0.10220   0.22220   0.01267  Uiso   1.00
O7     O     0.72750   0.16376   0.65013   0.01267  Uiso   1.00
O8     O     0.29050   0.91010   0.54640   0.01267  Uiso   1.00
O9     O     0.63750   0.01540   0.62910   0.01267  Uiso   1.00
O10    O     0.52150   0.77660   0.74640   0.01267  Uiso   1.00
O11    O     0.49390   0.78960   0.63520   0.01267  Uiso   1.00
O12    O     0.13730   0.73710   0.42580   0.01267  Uiso   1.00
O13    O     0.13590   0.48870   0.11900   0.01267  Uiso   1.00
O14    O     0.46890   0.22640   0.74450   0.01267  Uiso   1.00
O15    O     0.47850   0.22340   0.25360   0.01267  Uiso   1.00
O16    O     0.43670   0.34374   0.09900   0.01267  Uiso   1.00
O17    O     0.36250   0.99210   0.86970   0.01267  Uiso   1.00
O18    O     0.50610   0.21040   0.36480   0.01267  Uiso   1.00
O19    O     0.79560   0.57690   0.60950   0.01267  Uiso   1.00
O20    O     0.65390   0.76570   0.19990   0.01267  Uiso   1.00
O21    O     0.39550   0.89780   0.77780   0.01267  Uiso   1.00
O22    O     0.21680   0.35692   0.00970   0.01267  Uiso   1.00
O23    O     0.68330   0.09170   0.95200   0.01267  Uiso   1.00
O24    O     0.43690   0.34465   0.58450   0.01267  Uiso   1.00
O25    O     0.52130   0.77930   0.14030   0.01267  Uiso   1.00
O26    O     0.10340   0.38800   0.13080   0.01267  Uiso   1.00
O27    O     0.93750   0.17802   0.77030   0.01267  Uiso   1.00
O28    O     0.71870   0.15142   0.13998   0.01267  Uiso   1.00
O29    O     0.33770   0.00200   0.52920   0.01267  Uiso   1.00
O30    O     0.53110   0.77360   0.25550   0.01267  Uiso   1.00
O31    O     0.35690   0.00610   0.03840   0.01267  Uiso   1.00
O32    O     0.20440   0.42310   0.39050   0.01267  Uiso   1.00
O33    O     0.56310   0.65535   0.41550   0.01267  Uiso   1.00
O34    O     0.31670   0.90830   0.04800   0.01267  Uiso   1.00
O35    O     0.94690   0.16469   0.22940   0.01267  Uiso   1.00
O36    O     0.36540   0.23270   0.32050   0.01267  Uiso   1.00
O37    O     0.80070   0.62888   0.45477   0.01267  Uiso   1.00
O38    O     0.39850   0.89070   0.27960   0.01267  Uiso   1.00
O39    O     0.06250   0.82198   0.22970   0.01267  Uiso   1.00
O40    O     0.47870   0.22070   0.85970   0.01267  Uiso   1.00
O41    O     0.64310   0.99390   0.96160   0.01267  Uiso   1.00
O42    O     0.84210   0.48240   0.52760   0.01267  Uiso   1.00
O43    O     0.00310   0.70870   0.35440   0.01267  Uiso   1.00
O44    O     0.15790   0.51760   0.47240   0.01267  Uiso   1.00
O45    O     0.36250   0.98460   0.37090   0.01267  Uiso   1.00
O46    O     0.19930   0.37112   0.54523   0.01267  Uiso   1.00
O47    O     0.12350   0.72560   0.30360   0.01267  Uiso   1.00
O48    O     0.86410   0.51130   0.88100   0.01267  Uiso   1.00
O49    O     0.87650   0.27440   0.69640   0.01267  Uiso   1.00
O50    O     0.56330   0.65626   0.90100   0.01267  Uiso   1.00
O51    O     0.27250   0.83624   0.34987   0.01267  Uiso   1.00
O52    O     0.63460   0.76730   0.67950   0.01267  Uiso   1.00
O53    O     0.66230   0.99800   0.47080   0.01267  Uiso   1.00
O54    O     0.28130   0.84858   0.86002   0.01267  Uiso   1.00
O55    O     0.78320   0.64308   0.99030   0.01267  Uiso   1.00
O56    O     0.63750   0.00790   0.13030   0.01267  Uiso   1.00
O57    O     0.86270   0.26290   0.57420   0.01267  Uiso   1.00
O58    O     0.60150   0.10930   0.72040   0.01267  Uiso   1.00
