data_ic400853r_si_002_clean
_audit_creation_date              2015-08-19
_audit_creation_method            'Materials Studio'
_symmetry_space_group_name_H-M    'P1'
_symmetry_Int_Tables_number       1
_symmetry_cell_setting            triclinic
loop_
_symmetry_equiv_pos_as_xyz
  x,y,z
_cell_length_a                    10.6642
_cell_length_b                    10.6642
_cell_length_c                    23.9980
_cell_angle_alpha                 90.0000
_cell_angle_beta                  90.0000
_cell_angle_gamma                 90.0000
loop_
_atom_site_label
_atom_site_type_symbol
_atom_site_fract_x
_atom_site_fract_y
_atom_site_fract_z
_atom_site_U_iso_or_equiv
_atom_site_adp_type
_atom_site_occupancy
Na1    Na    0.63200   0.50901   0.48497   0.01267  Uiso   1.00
Na2    Na    0.50901   0.36800   0.73497   0.01267  Uiso   1.00
Na3    Na    0.49099   0.63200   0.23497   0.01267  Uiso   1.00
Na4    Na    0.36800   0.49099   0.98497   0.01267  Uiso   1.00
Cu1    Cu    0.35158   0.39091   0.85136   0.01267  Uiso   1.00
Cu2    Cu    0.64842   0.60909   0.35136   0.01267  Uiso   1.00
Cu3    Cu    0.60909   0.35158   0.60136   0.01267  Uiso   1.00
Cu4    Cu    0.39091   0.64842   0.10136   0.01267  Uiso   1.00
H1     H     0.95470   0.10840   0.04450   0.01267  Uiso   1.00
H2     H     0.50160   0.03880   0.08970   0.01267  Uiso   1.00
H3     H     0.03880   0.49840   0.33970   0.01267  Uiso   1.00
H4     H     0.13340   0.09940   0.86210   0.01267  Uiso   1.00
H5     H     0.90060   0.13340   0.61210   0.01267  Uiso   1.00
H6     H     0.16080   0.66820   0.87180   0.01267  Uiso   1.00
H7     H     0.23220   0.93380   0.23490   0.01267  Uiso   1.00
H8     H     0.47420   0.78200   0.74800   0.01267  Uiso   1.00
H9     H     0.21800   0.47420   0.49800   0.01267  Uiso   1.00
H10    H     0.00120   0.46410   0.49440   0.01267  Uiso   1.00
H11    H     0.74570   0.49010   0.83500   0.01267  Uiso   1.00
H12    H     0.89160   0.95470   0.79450   0.01267  Uiso   1.00
H13    H     0.09940   0.86660   0.11210   0.01267  Uiso   1.00
H14    H     0.06620   0.23220   0.98490   0.01267  Uiso   1.00
H15    H     0.93380   0.76780   0.48490   0.01267  Uiso   1.00
H16    H     0.99880   0.53590   0.99440   0.01267  Uiso   1.00
H17    H     0.10540   0.25980   0.28990   0.01267  Uiso   1.00
H18    H     0.77860   0.63300   0.72790   0.01267  Uiso   1.00
H19    H     0.49840   0.96120   0.58970   0.01267  Uiso   1.00
H20    H     0.33180   0.16080   0.62180   0.01267  Uiso   1.00
H21    H     0.74020   0.10540   0.03990   0.01267  Uiso   1.00
H22    H     0.10840   0.04530   0.29450   0.01267  Uiso   1.00
H23    H     0.25430   0.50990   0.33500   0.01267  Uiso   1.00
H24    H     0.99200   0.22830   0.41900   0.01267  Uiso   1.00
H25    H     0.36700   0.77860   0.47790   0.01267  Uiso   1.00
H26    H     0.66820   0.83920   0.12180   0.01267  Uiso   1.00
H27    H     0.89460   0.74020   0.78990   0.01267  Uiso   1.00
H28    H     0.77170   0.99200   0.16900   0.01267  Uiso   1.00
H29    H     0.01180   0.98830   0.66080   0.01267  Uiso   1.00
H30    H     0.98820   0.01170   0.16080   0.01267  Uiso   1.00
H31    H     0.83920   0.33180   0.37180   0.01267  Uiso   1.00
H32    H     0.50990   0.74570   0.58500   0.01267  Uiso   1.00
H33    H     0.04530   0.89160   0.54450   0.01267  Uiso   1.00
H34    H     0.46410   0.99880   0.74440   0.01267  Uiso   1.00
H35    H     0.49010   0.25430   0.08500   0.01267  Uiso   1.00
H36    H     0.53590   0.00120   0.24440   0.01267  Uiso   1.00
H37    H     0.00800   0.77170   0.91900   0.01267  Uiso   1.00
H38    H     0.52580   0.21800   0.24800   0.01267  Uiso   1.00
H39    H     0.96120   0.50160   0.83970   0.01267  Uiso   1.00
H40    H     0.25980   0.89460   0.53990   0.01267  Uiso   1.00
H41    H     0.63300   0.22140   0.97790   0.01267  Uiso   1.00
H42    H     0.86660   0.90060   0.36210   0.01267  Uiso   1.00
H43    H     0.76780   0.06620   0.73490   0.01267  Uiso   1.00
H44    H     0.22830   0.00800   0.66900   0.01267  Uiso   1.00
H45    H     0.01170   0.01180   0.41080   0.01267  Uiso   1.00
H46    H     0.98830   0.98820   0.91080   0.01267  Uiso   1.00
H47    H     0.78200   0.52580   0.99800   0.01267  Uiso   1.00
H48    H     0.22140   0.36700   0.22790   0.01267  Uiso   1.00
C1     C     0.84260   0.91330   0.76820   0.01267  Uiso   1.00
C2     C     0.39040   0.87430   0.15140   0.01267  Uiso   1.00
C3     C     0.81980   0.75400   0.08590   0.01267  Uiso   1.00
C4     C     0.45050   0.08160   0.11460   0.01267  Uiso   1.00
C5     C     0.94630   0.05330   0.39300   0.01267  Uiso   1.00
C6     C     0.91840   0.45050   0.86460   0.01267  Uiso   1.00
C7     C     0.21230   0.55580   0.36210   0.01267  Uiso   1.00
C8     C     0.81650   0.93570   0.14700   0.01267  Uiso   1.00
C9     C     0.95250   0.76330   0.08297   0.01267  Uiso   1.00
C10    C     0.06430   0.81650   0.89700   0.01267  Uiso   1.00
C11    C     0.32410   0.02090   0.79930   0.01267  Uiso   1.00
C12    C     0.75510   0.84380   0.11920   0.01267  Uiso   1.00
C13    C     0.40980   0.95530   0.76780   0.01267  Uiso   1.00
C14    C     0.86100   0.98770   0.36300   0.01267  Uiso   1.00
C15    C     0.69540   0.91830   0.69210   0.01267  Uiso   1.00
C16    C     0.24250   0.34010   0.55500   0.01267  Uiso   1.00
C17    C     0.30460   0.08170   0.19210   0.01267  Uiso   1.00
C18    C     0.04470   0.40980   0.51780   0.01267  Uiso   1.00
C19    C     0.78310   0.30180   0.93930   0.01267  Uiso   1.00
C20    C     0.22460   0.27980   0.22810   0.01267  Uiso   1.00
C21    C     0.27980   0.77540   0.47810   0.01267  Uiso   1.00
C22    C     0.84380   0.24490   0.36920   0.01267  Uiso   1.00
C23    C     0.82420   0.58340   0.02030   0.01267  Uiso   1.00
C24    C     0.63910   0.38490   0.31030   0.01267  Uiso   1.00
C25    C     0.75400   0.18020   0.33590   0.01267  Uiso   1.00
C26    C     0.24600   0.81980   0.83590   0.01267  Uiso   1.00
C27    C     0.62770   0.72000   0.64830   0.01267  Uiso   1.00
C28    C     0.38490   0.36090   0.56030   0.01267  Uiso   1.00
C29    C     0.98770   0.13900   0.61300   0.01267  Uiso   1.00
C30    C     0.61740   0.98480   0.65340   0.01267  Uiso   1.00
C31    C     0.78440   0.15590   0.01520   0.01267  Uiso   1.00
C32    C     0.08160   0.54950   0.36460   0.01267  Uiso   1.00
C33    C     0.75750   0.65990   0.05500   0.01267  Uiso   1.00
C34    C     0.23670   0.95250   0.83297   0.01267  Uiso   1.00
C35    C     0.30180   0.21690   0.18930   0.01267  Uiso   1.00
C36    C     0.05370   0.94670   0.89300   0.01267  Uiso   1.00
C37    C     0.13900   0.01230   0.86300   0.01267  Uiso   1.00
C38    C     0.21690   0.69820   0.43930   0.01267  Uiso   1.00
C39    C     0.94670   0.94630   0.14300   0.01267  Uiso   1.00
C40    C     0.12570   0.39040   0.90140   0.01267  Uiso   1.00
C41    C     0.77540   0.72020   0.72810   0.01267  Uiso   1.00
C42    C     0.24490   0.15620   0.61920   0.01267  Uiso   1.00
C43    C     0.83750   0.33630   0.54950   0.01267  Uiso   1.00
C44    C     0.67590   0.97910   0.29930   0.01267  Uiso   1.00
C45    C     0.55580   0.78770   0.61210   0.01267  Uiso   1.00
C46    C     0.61510   0.63910   0.06030   0.01267  Uiso   1.00
C47    C     0.95530   0.59020   0.01780   0.01267  Uiso   1.00
C48    C     0.66370   0.83750   0.29950   0.01267  Uiso   1.00
C49    C     0.02090   0.67590   0.04930   0.01267  Uiso   1.00
C50    C     0.84410   0.78440   0.76520   0.01267  Uiso   1.00
C51    C     0.01520   0.61740   0.40340   0.01267  Uiso   1.00
C52    C     0.41660   0.82420   0.77030   0.01267  Uiso   1.00
C53    C     0.23060   0.02080   0.23260   0.01267  Uiso   1.00
C54    C     0.38260   0.01520   0.15340   0.01267  Uiso   1.00
C55    C     0.37340   0.42110   0.14210   0.01267  Uiso   1.00
C56    C     0.21560   0.84410   0.51520   0.01267  Uiso   1.00
C57    C     0.36090   0.61510   0.81030   0.01267  Uiso   1.00
C58    C     0.37230   0.28000   0.14830   0.01267  Uiso   1.00
C59    C     0.87430   0.60960   0.40140   0.01267  Uiso   1.00
C60    C     0.59020   0.04470   0.26780   0.01267  Uiso   1.00
C61    C     0.97910   0.32410   0.54930   0.01267  Uiso   1.00
C62    C     0.69820   0.78310   0.68930   0.01267  Uiso   1.00
C63    C     0.16250   0.66370   0.04950   0.01267  Uiso   1.00
C64    C     0.33630   0.16250   0.79950   0.01267  Uiso   1.00
C65    C     0.02080   0.76940   0.48260   0.01267  Uiso   1.00
C66    C     0.98480   0.38260   0.90340   0.01267  Uiso   1.00
C67    C     0.72000   0.37230   0.89830   0.01267  Uiso   1.00
C68    C     0.91830   0.30460   0.94210   0.01267  Uiso   1.00
C69    C     0.01230   0.86100   0.11300   0.01267  Uiso   1.00
C70    C     0.18350   0.06430   0.64700   0.01267  Uiso   1.00
C71    C     0.97920   0.23060   0.98260   0.01267  Uiso   1.00
C72    C     0.15590   0.21560   0.26520   0.01267  Uiso   1.00
C73    C     0.93570   0.18350   0.39700   0.01267  Uiso   1.00
C74    C     0.08170   0.69540   0.44210   0.01267  Uiso   1.00
C75    C     0.15620   0.75510   0.86920   0.01267  Uiso   1.00
C76    C     0.08670   0.84260   0.51820   0.01267  Uiso   1.00
C77    C     0.54950   0.91840   0.61460   0.01267  Uiso   1.00
C78    C     0.72020   0.22460   0.97810   0.01267  Uiso   1.00
C79    C     0.28000   0.62770   0.39830   0.01267  Uiso   1.00
C80    C     0.04750   0.23670   0.58297   0.01267  Uiso   1.00
C81    C     0.76330   0.04750   0.33297   0.01267  Uiso   1.00
C82    C     0.05330   0.05370   0.64300   0.01267  Uiso   1.00
C83    C     0.76940   0.97920   0.73260   0.01267  Uiso   1.00
C84    C     0.60960   0.12570   0.65140   0.01267  Uiso   1.00
C85    C     0.58340   0.17580   0.27030   0.01267  Uiso   1.00
C86    C     0.57890   0.37340   0.89210   0.01267  Uiso   1.00
C87    C     0.17580   0.41660   0.52030   0.01267  Uiso   1.00
C88    C     0.34010   0.75750   0.80500   0.01267  Uiso   1.00
C89    C     0.15740   0.08670   0.26820   0.01267  Uiso   1.00
C90    C     0.91330   0.15740   0.01820   0.01267  Uiso   1.00
C91    C     0.78770   0.44420   0.86210   0.01267  Uiso   1.00
C92    C     0.18020   0.24600   0.58590   0.01267  Uiso   1.00
C93    C     0.65990   0.24250   0.30500   0.01267  Uiso   1.00
C94    C     0.62660   0.57890   0.64210   0.01267  Uiso   1.00
C95    C     0.42110   0.62660   0.39210   0.01267  Uiso   1.00
C96    C     0.44420   0.21230   0.11210   0.01267  Uiso   1.00
O1     O     0.59240   0.17030   0.60281   0.01267  Uiso   1.00
O2     O     0.40760   0.82970   0.10281   0.01267  Uiso   1.00
O3     O     0.62920   0.44910   0.26734   0.01267  Uiso   1.00
O4     O     0.17030   0.40760   0.85281   0.01267  Uiso   1.00
O5     O     0.44910   0.37080   0.51734   0.01267  Uiso   1.00
O6     O     0.32920   0.21160   0.84743   0.01267  Uiso   1.00
O7     O     0.63340   0.42740   0.35925   0.01267  Uiso   1.00
O8     O     0.22030   0.64620   0.00590   0.01267  Uiso   1.00
O9     O     0.21160   0.67080   0.09743   0.01267  Uiso   1.00
O10    O     0.82970   0.59240   0.35281   0.01267  Uiso   1.00
O11    O     0.36660   0.57260   0.85925   0.01267  Uiso   1.00
O12    O     0.48930   0.62480   0.43436   0.01267  Uiso   1.00
O13    O     0.37420   0.46420   0.09254   0.01267  Uiso   1.00
O14    O     0.77970   0.35380   0.50590   0.01267  Uiso   1.00
O15    O     0.62580   0.53580   0.59254   0.01267  Uiso   1.00
O16    O     0.51070   0.37520   0.93436   0.01267  Uiso   1.00
O17    O     0.53580   0.37420   0.84254   0.01267  Uiso   1.00
O18    O     0.37520   0.48930   0.18436   0.01267  Uiso   1.00
O19    O     0.42740   0.36660   0.60925   0.01267  Uiso   1.00
O20    O     0.64620   0.77970   0.25590   0.01267  Uiso   1.00
O21    O     0.80920   0.61770   0.44390   0.01267  Uiso   1.00
O22    O     0.38230   0.80920   0.19390   0.01267  Uiso   1.00
O23    O     0.67080   0.78840   0.34743   0.01267  Uiso   1.00
O24    O     0.37080   0.55090   0.76734   0.01267  Uiso   1.00
O25    O     0.57260   0.63340   0.10925   0.01267  Uiso   1.00
O26    O     0.35380   0.22030   0.75590   0.01267  Uiso   1.00
O27    O     0.19080   0.38230   0.94390   0.01267  Uiso   1.00
O28    O     0.55090   0.62920   0.01734   0.01267  Uiso   1.00
O29    O     0.61770   0.19080   0.69390   0.01267  Uiso   1.00
O30    O     0.78840   0.32920   0.59743   0.01267  Uiso   1.00
O31    O     0.46420   0.62580   0.34254   0.01267  Uiso   1.00
O32    O     0.62480   0.51070   0.68436   0.01267  Uiso   1.00
