data_image0
_cell_length_a       5.3992
_cell_length_b       11.1408
_cell_length_c       13.6811
_cell_angle_alpha    90.885
_cell_angle_beta     94.25
_cell_angle_gamma    91.825

_symmetry_space_group_name_H-M    "P 1"
_symmetry_int_tables_number       1

loop_
  _symmetry_equiv_pos_as_xyz
  'x, y, z'

loop_
  _atom_site_label
  _atom_site_occupancy
  _atom_site_fract_x
  _atom_site_fract_y
  _atom_site_fract_z
  _atom_site_thermal_displace_type
  _atom_site_B_iso_or_equiv
  _atom_site_type_symbol
  O1       1.0000 0.46740  0.12653  0.43144  Biso   1.000  O
  C1       1.0000 0.43040  0.82680  0.33040  Biso   1.000  C
  H1       1.0000 0.55440  0.83950  0.38280  Biso   1.000  H
  C2       1.0000 0.05120  0.86970  0.25620  Biso   1.000  C
  H2       1.0000 0.90440  0.91460  0.25450  Biso   1.000  H
  C3       1.0000 0.07390  0.78530  0.18190  Biso   1.000  C
  H3       1.0000 0.94340  0.77130  0.13210  Biso   1.000  H
  C4       1.0000 0.47100  0.74270  0.25830  Biso   1.000  C
  H4       1.0000 0.62050  0.69980  0.26120  Biso   1.000  H
  C5       1.0000 0.29050  0.72190  0.18169  Biso   1.000  C
  C6       1.0000 0.33510  0.63300  0.09965  Biso   1.000  C
  C7       1.0000 0.68130  0.13130  0.40281  Biso   1.000  C
  C8       1.0000 0.73010  0.22260  0.32461  Biso   1.000  C
  C9       1.0000 0.93190  0.21780  0.26760  Biso   1.000  C
  H5       1.0000 0.05040  0.15710  0.27740  Biso   1.000  H
  C10      1.0000 0.95740  0.30330  0.19620  Biso   1.000  C
  H6       1.0000 0.09430  0.29810  0.15670  Biso   1.000  H
  C11      1.0000 0.61010  0.39750  0.23670  Biso   1.000  C
  H7       1.0000 0.49870  0.46130  0.22750  Biso   1.000  H
  C12      1.0000 0.56600  0.31490  0.30830  Biso   1.000  C
  H8       1.0000 0.42560  0.32110  0.34580  Biso   1.000  H
  Li1      1.0000 0.81520  0.51330  0.06430  Biso   1.000  Li
  Li2      1.0000 0.19670  0.01620  0.44250  Biso   1.000  Li
  N1       1.0000 0.22420  0.89130  0.32999  Biso   1.000  N
  N2       1.0000 0.80070  0.39270  0.17936  Biso   1.000  N
  O2       1.0000 0.14760  0.58402  0.05404  Biso   1.000  O
  O3       1.0000 0.55550  0.61740  0.08421  Biso   1.000  O
  O4       1.0000 0.85730  0.06688  0.43295  Biso   1.000  O
  O5       1.0000 0.53260  0.87347  0.56856  Biso   1.000  O
  C13      1.0000 0.56960  0.17320  0.66960  Biso   1.000  C
  H9       1.0000 0.44560  0.16050  0.61720  Biso   1.000  H
  C14      1.0000 0.94880  0.13030  0.74380  Biso   1.000  C
  H10      1.0000 0.09560  0.08540  0.74550  Biso   1.000  H
  C15      1.0000 0.92610  0.21470  0.81810  Biso   1.000  C
  H11      1.0000 0.05660  0.22870  0.86790  Biso   1.000  H
  C16      1.0000 0.52900  0.25730  0.74170  Biso   1.000  C
  H12      1.0000 0.37950  0.30020  0.73880  Biso   1.000  H
  C17      1.0000 0.70950  0.27810  0.81831  Biso   1.000  C
  C18      1.0000 0.66490  0.36700  0.90035  Biso   1.000  C
  C19      1.0000 0.31870  0.86870  0.59719  Biso   1.000  C
  C20      1.0000 0.26990  0.77740  0.67539  Biso   1.000  C
  C21      1.0000 0.06810  0.78220  0.73240  Biso   1.000  C
  H13      1.0000 0.94960  0.84290  0.72260  Biso   1.000  H
  C22      1.0000 0.04260  0.69670  0.80380  Biso   1.000  C
  H14      1.0000 0.90570  0.70190  0.84330  Biso   1.000  H
  C23      1.0000 0.38990  0.60250  0.76330  Biso   1.000  C
  H15      1.0000 0.50130  0.53870  0.77250  Biso   1.000  H
  C24      1.0000 0.43400  0.68510  0.69170  Biso   1.000  C
  H16      1.0000 0.57440  0.67890  0.65420  Biso   1.000  H
  Li3      1.0000 0.18480  0.48670  0.93570  Biso   1.000  Li
  Li4      1.0000 0.80330  0.98380  0.55750  Biso   1.000  Li
  N3       1.0000 0.77580  0.10870  0.67001  Biso   1.000  N
  N4       1.0000 0.19930  0.60730  0.82064  Biso   1.000  N
  O6       1.0000 0.85240  0.41598  0.94596  Biso   1.000  O
  O7       1.0000 0.44450  0.38260  0.91579  Biso   1.000  O
  O8       1.0000 0.14270  0.93312  0.56705  Biso   1.000  O
