data_ic401474f_si_002_clean
_audit_creation_date              2015-08-19
_audit_creation_method            'Materials Studio'
_symmetry_space_group_name_H-M    'P1'
_symmetry_Int_Tables_number       1
_symmetry_cell_setting            triclinic
loop_
_symmetry_equiv_pos_as_xyz
  x,y,z
_cell_length_a                    17.1560
_cell_length_b                    20.3870
_cell_length_c                    20.5620
_cell_angle_alpha                 90.0000
_cell_angle_beta                  90.0000
_cell_angle_gamma                 90.0000
loop_
_atom_site_label
_atom_site_type_symbol
_atom_site_fract_x
_atom_site_fract_y
_atom_site_fract_z
_atom_site_U_iso_or_equiv
_atom_site_adp_type
_atom_site_occupancy
K1     K     0.69618   0.01743   0.91169   0.01267  Uiso   1.00
K2     K     0.21282   0.91840   0.93686   0.01267  Uiso   1.00
K3     K     0.05638   0.35876   0.19287   0.01267  Uiso   1.00
K4     K     0.56074   0.69582   0.16115   0.01267  Uiso   1.00
K5     K     0.28718   0.41840   0.93686   0.01267  Uiso   1.00
K6     K     0.94362   0.85876   0.30713   0.01267  Uiso   1.00
K7     K     0.19618   0.01743   0.58831   0.01267  Uiso   1.00
K8     K     0.71282   0.91840   0.56314   0.01267  Uiso   1.00
K9     K     0.06074   0.80418   0.83885   0.01267  Uiso   1.00
K10    K     0.30382   0.51743   0.58831   0.01267  Uiso   1.00
K11    K     0.55638   0.35876   0.30713   0.01267  Uiso   1.00
K12    K     0.05638   0.14124   0.69287   0.01267  Uiso   1.00
K13    K     0.43926   0.19582   0.33885   0.01267  Uiso   1.00
K14    K     0.30382   0.98257   0.08831   0.01267  Uiso   1.00
K15    K     0.43926   0.30418   0.83885   0.01267  Uiso   1.00
K16    K     0.78718   0.41840   0.56314   0.01267  Uiso   1.00
K17    K     0.56074   0.80418   0.66115   0.01267  Uiso   1.00
K18    K     0.44362   0.85876   0.19287   0.01267  Uiso   1.00
K19    K     0.19618   0.48257   0.08831   0.01267  Uiso   1.00
K20    K     0.28718   0.08160   0.43686   0.01267  Uiso   1.00
K21    K     0.44362   0.64124   0.69287   0.01267  Uiso   1.00
K22    K     0.80382   0.98257   0.41169   0.01267  Uiso   1.00
K23    K     0.69618   0.48257   0.41169   0.01267  Uiso   1.00
K24    K     0.55638   0.14124   0.80713   0.01267  Uiso   1.00
K25    K     0.93926   0.19582   0.16115   0.01267  Uiso   1.00
K26    K     0.06074   0.69582   0.33885   0.01267  Uiso   1.00
K27    K     0.93926   0.30418   0.66115   0.01267  Uiso   1.00
K28    K     0.71282   0.58160   0.06314   0.01267  Uiso   1.00
K29    K     0.21282   0.58160   0.43686   0.01267  Uiso   1.00
K30    K     0.78718   0.08160   0.06314   0.01267  Uiso   1.00
K31    K     0.80382   0.51743   0.91169   0.01267  Uiso   1.00
K32    K     0.94362   0.64124   0.80713   0.01267  Uiso   1.00
Zr1    Zr    0.13073   0.97460   0.76559   0.01267  Uiso   1.00
Zr2    Zr    0.36927   0.47460   0.76559   0.01267  Uiso   1.00
Zr3    Zr    0.63073   0.97460   0.73441   0.01267  Uiso   1.00
Zr4    Zr    0.36927   0.02540   0.26559   0.01267  Uiso   1.00
Zr5    Zr    0.86927   0.02540   0.23441   0.01267  Uiso   1.00
Zr6    Zr    0.86927   0.47460   0.73441   0.01267  Uiso   1.00
Zr7    Zr    0.63073   0.52540   0.23441   0.01267  Uiso   1.00
Zr8    Zr    0.13073   0.52540   0.26559   0.01267  Uiso   1.00
H1     H     0.32010   0.42710   0.40540   0.01267  Uiso   1.00
H2     H     0.09760   0.69590   0.48950   0.01267  Uiso   1.00
H3     H     0.05710   0.62700   0.65460   0.01267  Uiso   1.00
H4     H     0.98470   0.46980   0.07680   0.01267  Uiso   1.00
H5     H     0.39910   0.64380   0.54630   0.01267  Uiso   1.00
H6     H     0.52750   0.08200   0.44930   0.01267  Uiso   1.00
H7     H     0.60090   0.35620   0.45370   0.01267  Uiso   1.00
H8     H     0.95000   0.67980   0.17650   0.01267  Uiso   1.00
H9     H     0.83090   0.88130   0.86620   0.01267  Uiso   1.00
H10    H     0.17710   0.78330   0.97620   0.01267  Uiso   1.00
H11    H     0.17450   0.16900   0.57220   0.01267  Uiso   1.00
H12    H     0.05000   0.17980   0.32350   0.01267  Uiso   1.00
H13    H     0.32550   0.83100   0.07220   0.01267  Uiso   1.00
H14    H     0.40240   0.30410   0.98950   0.01267  Uiso   1.00
H15    H     0.82290   0.21670   0.02380   0.01267  Uiso   1.00
H16    H     0.98470   0.03020   0.57680   0.01267  Uiso   1.00
H17    H     0.44290   0.37300   0.15460   0.01267  Uiso   1.00
H18    H     0.45000   0.67980   0.32350   0.01267  Uiso   1.00
H19    H     0.02750   0.08200   0.05070   0.01267  Uiso   1.00
H20    H     0.33090   0.61870   0.13380   0.01267  Uiso   1.00
H21    H     0.40240   0.19590   0.48950   0.01267  Uiso   1.00
H22    H     0.67990   0.92710   0.09460   0.01267  Uiso   1.00
H23    H     0.74960   0.77370   0.67090   0.01267  Uiso   1.00
H24    H     0.55000   0.32020   0.67650   0.01267  Uiso   1.00
H25    H     0.78390   0.15390   0.81120   0.01267  Uiso   1.00
H26    H     0.66910   0.38130   0.86620   0.01267  Uiso   1.00
H27    H     0.71610   0.84610   0.31120   0.01267  Uiso   1.00
H28    H     0.52750   0.41800   0.94930   0.01267  Uiso   1.00
H29    H     0.39910   0.85620   0.04630   0.01267  Uiso   1.00
H30    H     0.97250   0.58200   0.44930   0.01267  Uiso   1.00
H31    H     0.16910   0.38130   0.63380   0.01267  Uiso   1.00
H32    H     0.48470   0.03020   0.92320   0.01267  Uiso   1.00
H33    H     0.89910   0.85620   0.45370   0.01267  Uiso   1.00
H34    H     0.83090   0.61870   0.36620   0.01267  Uiso   1.00
H35    H     0.02750   0.41800   0.55070   0.01267  Uiso   1.00
H36    H     0.33090   0.88130   0.63380   0.01267  Uiso   1.00
H37    H     0.32290   0.28330   0.97620   0.01267  Uiso   1.00
H38    H     0.60090   0.14380   0.95370   0.01267  Uiso   1.00
H39    H     0.82010   0.42710   0.09460   0.01267  Uiso   1.00
H40    H     0.94290   0.12700   0.84540   0.01267  Uiso   1.00
H41    H     0.55000   0.17980   0.17650   0.01267  Uiso   1.00
H42    H     0.09760   0.80410   0.98950   0.01267  Uiso   1.00
H43    H     0.71610   0.65390   0.81120   0.01267  Uiso   1.00
H44    H     0.75040   0.22630   0.17090   0.01267  Uiso   1.00
H45    H     0.67710   0.71670   0.02380   0.01267  Uiso   1.00
H46    H     0.55710   0.62700   0.84540   0.01267  Uiso   1.00
H47    H     0.01530   0.96980   0.42320   0.01267  Uiso   1.00
H48    H     0.67990   0.57290   0.59460   0.01267  Uiso   1.00
H49    H     0.82550   0.83100   0.42780   0.01267  Uiso   1.00
H50    H     0.82290   0.28330   0.52380   0.01267  Uiso   1.00
H51    H     0.05000   0.32020   0.82350   0.01267  Uiso   1.00
H52    H     0.21610   0.65390   0.68880   0.01267  Uiso   1.00
H53    H     0.67450   0.33100   0.42780   0.01267  Uiso   1.00
H54    H     0.67450   0.16900   0.92780   0.01267  Uiso   1.00
H55    H     0.17990   0.57290   0.90540   0.01267  Uiso   1.00
H56    H     0.45000   0.82020   0.82350   0.01267  Uiso   1.00
H57    H     0.47250   0.91800   0.55070   0.01267  Uiso   1.00
H58    H     0.17450   0.33100   0.07220   0.01267  Uiso   1.00
H59    H     0.59760   0.69590   0.01050   0.01267  Uiso   1.00
H60    H     0.24960   0.77370   0.82910   0.01267  Uiso   1.00
H61    H     0.32010   0.07290   0.90540   0.01267  Uiso   1.00
H62    H     0.01530   0.53020   0.92320   0.01267  Uiso   1.00
H63    H     0.24960   0.72630   0.32910   0.01267  Uiso   1.00
H64    H     0.32550   0.66900   0.57220   0.01267  Uiso   1.00
H65    H     0.82550   0.66900   0.92780   0.01267  Uiso   1.00
H66    H     0.66910   0.11870   0.36620   0.01267  Uiso   1.00
H67    H     0.82010   0.07290   0.59460   0.01267  Uiso   1.00
H68    H     0.74960   0.72630   0.17090   0.01267  Uiso   1.00
H69    H     0.75040   0.27370   0.67090   0.01267  Uiso   1.00
H70    H     0.17710   0.71670   0.47620   0.01267  Uiso   1.00
H71    H     0.05710   0.87300   0.15460   0.01267  Uiso   1.00
H72    H     0.90240   0.19590   0.01050   0.01267  Uiso   1.00
H73    H     0.97250   0.91800   0.94930   0.01267  Uiso   1.00
H74    H     0.95000   0.82020   0.67650   0.01267  Uiso   1.00
H75    H     0.10090   0.35620   0.04630   0.01267  Uiso   1.00
H76    H     0.17990   0.92710   0.40540   0.01267  Uiso   1.00
H77    H     0.21610   0.84610   0.18880   0.01267  Uiso   1.00
H78    H     0.89910   0.64380   0.95370   0.01267  Uiso   1.00
H79    H     0.48470   0.46980   0.42320   0.01267  Uiso   1.00
H80    H     0.90240   0.30410   0.51050   0.01267  Uiso   1.00
H81    H     0.16910   0.11870   0.13380   0.01267  Uiso   1.00
H82    H     0.32290   0.21670   0.47620   0.01267  Uiso   1.00
H83    H     0.51530   0.96980   0.07680   0.01267  Uiso   1.00
H84    H     0.44290   0.12700   0.65460   0.01267  Uiso   1.00
H85    H     0.51530   0.53020   0.57680   0.01267  Uiso   1.00
H86    H     0.59760   0.80410   0.51050   0.01267  Uiso   1.00
H87    H     0.25040   0.22630   0.32910   0.01267  Uiso   1.00
H88    H     0.47250   0.58200   0.05070   0.01267  Uiso   1.00
H89    H     0.10090   0.14380   0.54630   0.01267  Uiso   1.00
H90    H     0.78390   0.34610   0.31120   0.01267  Uiso   1.00
H91    H     0.25040   0.27370   0.82910   0.01267  Uiso   1.00
H92    H     0.28390   0.34610   0.18880   0.01267  Uiso   1.00
H93    H     0.67710   0.78330   0.52380   0.01267  Uiso   1.00
H94    H     0.28390   0.15390   0.68880   0.01267  Uiso   1.00
H95    H     0.55710   0.87300   0.34540   0.01267  Uiso   1.00
H96    H     0.94290   0.37300   0.34540   0.01267  Uiso   1.00
C1     C     0.98210   0.02910   0.35110   0.01267  Uiso   1.00
C2     C     0.75970   0.43810   0.17730   0.01267  Uiso   1.00
C3     C     0.90010   0.50240   0.44480   0.01267  Uiso   1.00
C4     C     0.20800   0.63860   0.73090   0.01267  Uiso   1.00
C5     C     0.25970   0.06190   0.82270   0.01267  Uiso   1.00
C6     C     0.35220   0.16480   0.76920   0.01267  Uiso   1.00
C7     C     0.63630   0.63900   0.66030   0.01267  Uiso   1.00
C8     C     0.36370   0.36100   0.33970   0.01267  Uiso   1.00
C9     C     0.25500   0.90980   0.25600   0.01267  Uiso   1.00
C10    C     0.00230   0.45830   0.34510   0.01267  Uiso   1.00
C11    C     0.99770   0.95830   0.15490   0.01267  Uiso   1.00
C12    C     0.76780   0.79470   0.70800   0.01267  Uiso   1.00
C13    C     0.81700   0.86050   0.82770   0.01267  Uiso   1.00
C14    C     0.45360   0.63810   0.34160   0.01267  Uiso   1.00
C15    C     0.68520   0.58820   0.63690   0.01267  Uiso   1.00
C16    C     0.95360   0.63810   0.15840   0.01267  Uiso   1.00
C17    C     0.45360   0.86190   0.84160   0.01267  Uiso   1.00
C18    C     0.17050   0.23290   0.25540   0.01267  Uiso   1.00
C19    C     0.18520   0.91180   0.36310   0.01267  Uiso   1.00
C20    C     0.18300   0.36050   0.67230   0.01267  Uiso   1.00
C21    C     0.94560   0.08550   0.86390   0.01267  Uiso   1.00
C22    C     0.99440   0.40590   0.81780   0.01267  Uiso   1.00
C23    C     0.86370   0.13900   0.66030   0.01267  Uiso   1.00
C24    C     0.05440   0.58550   0.63610   0.01267  Uiso   1.00
C25    C     0.96400   0.95760   0.92790   0.01267  Uiso   1.00
C26    C     0.23550   0.64780   0.27220   0.01267  Uiso   1.00
C27    C     0.32950   0.76710   0.75540   0.01267  Uiso   1.00
C28    C     0.23220   0.29470   0.79200   0.01267  Uiso   1.00
C29    C     0.39150   0.43410   0.08780   0.01267  Uiso   1.00
C30    C     0.70800   0.63860   0.76910   0.01267  Uiso   1.00
C31    C     0.09510   0.38000   0.89430   0.01267  Uiso   1.00
C32    C     0.74500   0.09020   0.74400   0.01267  Uiso   1.00
C33    C     0.75950   0.88580   0.78980   0.01267  Uiso   1.00
C34    C     0.73550   0.85220   0.72780   0.01267  Uiso   1.00
C35    C     0.52580   0.00940   0.09750   0.01267  Uiso   1.00
C36    C     0.26450   0.35220   0.77220   0.01267  Uiso   1.00
C37    C     0.55440   0.91450   0.36390   0.01267  Uiso   1.00
C38    C     0.31700   0.86050   0.67230   0.01267  Uiso   1.00
C39    C     0.02580   0.00940   0.40250   0.01267  Uiso   1.00
C40    C     0.75950   0.61420   0.28980   0.01267  Uiso   1.00
C41    C     0.03600   0.45760   0.57210   0.01267  Uiso   1.00
C42    C     0.49440   0.09410   0.18220   0.01267  Uiso   1.00
C43    C     0.51790   0.52910   0.35110   0.01267  Uiso   1.00
C44    C     0.98210   0.47090   0.85110   0.01267  Uiso   1.00
C45    C     0.85580   0.80200   0.80800   0.01267  Uiso   1.00
C46    C     0.54640   0.36190   0.65840   0.01267  Uiso   1.00
C47    C     0.68300   0.36050   0.82770   0.01267  Uiso   1.00
C48    C     0.73220   0.20530   0.20800   0.01267  Uiso   1.00
C49    C     0.31700   0.63950   0.17230   0.01267  Uiso   1.00
C50    C     0.79200   0.13860   0.76910   0.01267  Uiso   1.00
C51    C     0.74050   0.38580   0.78980   0.01267  Uiso   1.00
C52    C     0.26780   0.70530   0.29200   0.01267  Uiso   1.00
C53    C     0.44560   0.41450   0.13610   0.01267  Uiso   1.00
C54    C     0.55440   0.58550   0.86390   0.01267  Uiso   1.00
C55    C     0.67050   0.26710   0.74460   0.01267  Uiso   1.00
C56    C     0.76780   0.70530   0.20800   0.01267  Uiso   1.00
C57    C     0.76450   0.35220   0.72780   0.01267  Uiso   1.00
C58    C     0.00560   0.59410   0.18220   0.01267  Uiso   1.00
C59    C     0.23550   0.85220   0.77220   0.01267  Uiso   1.00
C60    C     0.90490   0.88000   0.60570   0.01267  Uiso   1.00
C61    C     0.35220   0.33520   0.26920   0.01267  Uiso   1.00
C62    C     0.08760   0.45000   0.92430   0.01267  Uiso   1.00
C63    C     0.86370   0.36100   0.16030   0.01267  Uiso   1.00
C64    C     0.59510   0.38000   0.60570   0.01267  Uiso   1.00
C65    C     0.41240   0.55000   0.42430   0.01267  Uiso   1.00
C66    C     0.25500   0.59020   0.75600   0.01267  Uiso   1.00
C67    C     0.49770   0.54170   0.84510   0.01267  Uiso   1.00
C68    C     0.25950   0.88580   0.71020   0.01267  Uiso   1.00
C69    C     0.50230   0.45830   0.15490   0.01267  Uiso   1.00
C70    C     0.29200   0.36140   0.23090   0.01267  Uiso   1.00
C71    C     0.64420   0.19800   0.30800   0.01267  Uiso   1.00
C72    C     0.24030   0.93810   0.32270   0.01267  Uiso   1.00
C73    C     0.81480   0.41180   0.13690   0.01267  Uiso   1.00
C74    C     0.01350   0.97790   0.87930   0.01267  Uiso   1.00
C75    C     0.85220   0.33520   0.23080   0.01267  Uiso   1.00
C76    C     0.98650   0.47790   0.62070   0.01267  Uiso   1.00
C77    C     0.25970   0.43810   0.32270   0.01267  Uiso   1.00
C78    C     0.82950   0.73290   0.24460   0.01267  Uiso   1.00
C79    C     0.14780   0.83520   0.26920   0.01267  Uiso   1.00
C80    C     0.18520   0.58820   0.86310   0.01267  Uiso   1.00
C81    C     0.04640   0.13810   0.34160   0.01267  Uiso   1.00
C82    C     0.70800   0.86140   0.26910   0.01267  Uiso   1.00
C83    C     0.23220   0.20530   0.29200   0.01267  Uiso   1.00
C84    C     0.41240   0.95000   0.92430   0.01267  Uiso   1.00
C85    C     0.68300   0.13950   0.32770   0.01267  Uiso   1.00
C86    C     0.31480   0.41180   0.36310   0.01267  Uiso   1.00
C87    C     0.89150   0.43410   0.41220   0.01267  Uiso   1.00
C88    C     0.90490   0.62000   0.10570   0.01267  Uiso   1.00
C89    C     0.73550   0.64780   0.22780   0.01267  Uiso   1.00
C90    C     0.48650   0.47790   0.87930   0.01267  Uiso   1.00
C91    C     0.75970   0.06190   0.67730   0.01267  Uiso   1.00
C92    C     0.24050   0.11420   0.21020   0.01267  Uiso   1.00
C93    C     0.35580   0.69800   0.19200   0.01267  Uiso   1.00
C94    C     0.35580   0.80200   0.69200   0.01267  Uiso   1.00
C95    C     0.50560   0.59410   0.31780   0.01267  Uiso   1.00
C96    C     0.59510   0.12000   0.10570   0.01267  Uiso   1.00
C97    C     0.14780   0.66480   0.76920   0.01267  Uiso   1.00
C98    C     0.01790   0.97090   0.64890   0.01267  Uiso   1.00
C99    C     0.53600   0.04240   0.42790   0.01267  Uiso   1.00
C100   C     0.81480   0.08820   0.63690   0.01267  Uiso   1.00
C101   C     0.09990   0.00240   0.05520   0.01267  Uiso   1.00
C102   C     0.13630   0.86100   0.33970   0.01267  Uiso   1.00
C103   C     0.48650   0.02210   0.37930   0.01267  Uiso   1.00
C104   C     0.14420   0.30200   0.69200   0.01267  Uiso   1.00
C105   C     0.00230   0.04170   0.84510   0.01267  Uiso   1.00
C106   C     0.81700   0.63950   0.32770   0.01267  Uiso   1.00
C107   C     0.20800   0.86140   0.23090   0.01267  Uiso   1.00
C108   C     0.51350   0.97790   0.62070   0.01267  Uiso   1.00
C109   C     0.52580   0.49060   0.59750   0.01267  Uiso   1.00
C110   C     0.10850   0.56590   0.58780   0.01267  Uiso   1.00
C111   C     0.09510   0.12000   0.39430   0.01267  Uiso   1.00
C112   C     0.60850   0.56590   0.91220   0.01267  Uiso   1.00
C113   C     0.64780   0.66480   0.73080   0.01267  Uiso   1.00
C114   C     0.13630   0.63900   0.83970   0.01267  Uiso   1.00
C115   C     0.90010   0.99760   0.94480   0.01267  Uiso   1.00
C116   C     0.02580   0.49060   0.90250   0.01267  Uiso   1.00
C117   C     0.50560   0.90590   0.81780   0.01267  Uiso   1.00
C118   C     0.99440   0.09410   0.31780   0.01267  Uiso   1.00
C119   C     0.49440   0.40590   0.68220   0.01267  Uiso   1.00
C120   C     0.74050   0.11420   0.28980   0.01267  Uiso   1.00
C121   C     0.44560   0.08550   0.63610   0.01267  Uiso   1.00
C122   C     0.98650   0.02210   0.12070   0.01267  Uiso   1.00
C123   C     0.99770   0.54170   0.65490   0.01267  Uiso   1.00
C124   C     0.25950   0.61420   0.21020   0.01267  Uiso   1.00
C125   C     0.75500   0.90980   0.24400   0.01267  Uiso   1.00
C126   C     0.04640   0.36190   0.84160   0.01267  Uiso   1.00
C127   C     0.95360   0.86190   0.65840   0.01267  Uiso   1.00
C128   C     0.97420   0.99060   0.59750   0.01267  Uiso   1.00
C129   C     0.59990   0.49760   0.94480   0.01267  Uiso   1.00
C130   C     0.85580   0.69800   0.30800   0.01267  Uiso   1.00
C131   C     0.24500   0.09020   0.75600   0.01267  Uiso   1.00
C132   C     0.67050   0.23290   0.24460   0.01267  Uiso   1.00
C133   C     0.89150   0.06590   0.91220   0.01267  Uiso   1.00
C134   C     0.96400   0.54240   0.42790   0.01267  Uiso   1.00
C135   C     0.03600   0.04240   0.07210   0.01267  Uiso   1.00
C136   C     0.74500   0.40980   0.24400   0.01267  Uiso   1.00
C137   C     0.79200   0.36140   0.26910   0.01267  Uiso   1.00
C138   C     0.73220   0.29470   0.70800   0.01267  Uiso   1.00
C139   C     0.00560   0.90590   0.68220   0.01267  Uiso   1.00
C140   C     0.48210   0.02910   0.14890   0.01267  Uiso   1.00
C141   C     0.40490   0.62000   0.39430   0.01267  Uiso   1.00
C142   C     0.31480   0.08820   0.86310   0.01267  Uiso   1.00
C143   C     0.47420   0.50940   0.40250   0.01267  Uiso   1.00
C144   C     0.46400   0.95760   0.57210   0.01267  Uiso   1.00
C145   C     0.08760   0.05000   0.42430   0.01267  Uiso   1.00
C146   C     0.17050   0.26710   0.75540   0.01267  Uiso   1.00
C147   C     0.09990   0.49760   0.55520   0.01267  Uiso   1.00
C148   C     0.39150   0.06590   0.58780   0.01267  Uiso   1.00
C149   C     0.82950   0.76710   0.74460   0.01267  Uiso   1.00
C150   C     0.29200   0.13860   0.73090   0.01267  Uiso   1.00
C151   C     0.64780   0.83520   0.23080   0.01267  Uiso   1.00
C152   C     0.10850   0.93410   0.08780   0.01267  Uiso   1.00
C153   C     0.54640   0.13810   0.15840   0.01267  Uiso   1.00
C154   C     0.40010   0.99760   0.55520   0.01267  Uiso   1.00
C155   C     0.05440   0.91450   0.13610   0.01267  Uiso   1.00
C156   C     0.32950   0.73290   0.25540   0.01267  Uiso   1.00
C157   C     0.63630   0.86100   0.16030   0.01267  Uiso   1.00
C158   C     0.26780   0.79470   0.79200   0.01267  Uiso   1.00
C159   C     0.68520   0.91180   0.13690   0.01267  Uiso   1.00
C160   C     0.26450   0.14780   0.27220   0.01267  Uiso   1.00
C161   C     0.53600   0.45760   0.92790   0.01267  Uiso   1.00
C162   C     0.76450   0.14780   0.22780   0.01267  Uiso   1.00
C163   C     0.24500   0.40980   0.25600   0.01267  Uiso   1.00
C164   C     0.50230   0.04170   0.65490   0.01267  Uiso   1.00
C165   C     0.59990   0.00240   0.44480   0.01267  Uiso   1.00
C166   C     0.91240   0.95000   0.57570   0.01267  Uiso   1.00
C167   C     0.24030   0.56190   0.82270   0.01267  Uiso   1.00
C168   C     0.01790   0.52910   0.14890   0.01267  Uiso   1.00
C169   C     0.91240   0.55000   0.07570   0.01267  Uiso   1.00
C170   C     0.85220   0.16480   0.73080   0.01267  Uiso   1.00
C171   C     0.58760   0.45000   0.57570   0.01267  Uiso   1.00
C172   C     0.51350   0.52210   0.12070   0.01267  Uiso   1.00
C173   C     0.18300   0.13950   0.17230   0.01267  Uiso   1.00
C174   C     0.64420   0.30200   0.80800   0.01267  Uiso   1.00
C175   C     0.40010   0.50240   0.05520   0.01267  Uiso   1.00
C176   C     0.75500   0.59020   0.74400   0.01267  Uiso   1.00
C177   C     0.58760   0.05000   0.07570   0.01267  Uiso   1.00
C178   C     0.49770   0.95830   0.34510   0.01267  Uiso   1.00
C179   C     0.60850   0.93410   0.41220   0.01267  Uiso   1.00
C180   C     0.01350   0.52210   0.37930   0.01267  Uiso   1.00
C181   C     0.48210   0.47090   0.64890   0.01267  Uiso   1.00
C182   C     0.51790   0.97090   0.85110   0.01267  Uiso   1.00
C183   C     0.74030   0.93810   0.17730   0.01267  Uiso   1.00
C184   C     0.40490   0.88000   0.89430   0.01267  Uiso   1.00
C185   C     0.94560   0.41450   0.36390   0.01267  Uiso   1.00
C186   C     0.46400   0.54240   0.07210   0.01267  Uiso   1.00
C187   C     0.14420   0.19800   0.19200   0.01267  Uiso   1.00
C188   C     0.24050   0.38580   0.71020   0.01267  Uiso   1.00
C189   C     0.74030   0.56190   0.67730   0.01267  Uiso   1.00
C190   C     0.47420   0.99060   0.90250   0.01267  Uiso   1.00
C191   C     0.97420   0.50940   0.09750   0.01267  Uiso   1.00
C192   C     0.36370   0.13900   0.83970   0.01267  Uiso   1.00
O1     O     0.15130   0.01760   0.01600   0.01267  Uiso   1.00
O2     O     0.63360   0.21760   0.72800   0.01267  Uiso   1.00
O3     O     0.34870   0.98240   0.51600   0.01267  Uiso   1.00
O4     O     0.36840   0.63950   0.57750   0.01267  Uiso   1.00
O5     O     0.05030   0.44899   0.29705   0.01267  Uiso   1.00
O6     O     0.39970   0.29230   0.25100   0.01267  Uiso   1.00
O7     O     0.65130   0.48240   0.98400   0.01267  Uiso   1.00
O8     O     0.83370   0.40140   0.42870   0.01267  Uiso   1.00
O9     O     0.31220   0.93634   0.22590   0.01267  Uiso   1.00
O10    O     0.66630   0.59860   0.92870   0.01267  Uiso   1.00
O11    O     0.07480   0.49474   0.17473   0.01267  Uiso   1.00
O12    O     0.64610   0.15590   0.08120   0.01267  Uiso   1.00
O13    O     0.57180   0.94403   0.64241   0.01267  Uiso   1.00
O14    O     0.22030   0.93928   0.69880   0.01267  Uiso   1.00
O15    O     0.42820   0.44403   0.85759   0.01267  Uiso   1.00
O16    O     0.68780   0.43634   0.27410   0.01267  Uiso   1.00
O17    O     0.13360   0.28240   0.27200   0.01267  Uiso   1.00
O18    O     0.13360   0.21760   0.77200   0.01267  Uiso   1.00
O19    O     0.60030   0.79230   0.24900   0.01267  Uiso   1.00
O20    O     0.91700   0.33520   0.12930   0.01267  Uiso   1.00
O21    O     0.77970   0.43928   0.80120   0.01267  Uiso   1.00
O22    O     0.86640   0.71760   0.72800   0.01267  Uiso   1.00
O23    O     0.13850   0.80070   0.95470   0.01267  Uiso   1.00
O24    O     0.94970   0.55101   0.70295   0.01267  Uiso   1.00
O25    O     0.85390   0.65590   0.08120   0.01267  Uiso   1.00
O26    O     0.72030   0.56072   0.30120   0.01267  Uiso   1.00
O27    O     0.44970   0.55101   0.79705   0.01267  Uiso   1.00
O28    O     0.71490   0.01228   0.66374   0.01267  Uiso   1.00
O29    O     0.78510   0.98772   0.16374   0.01267  Uiso   1.00
O30    O     0.04980   0.60234   0.23305   0.01267  Uiso   1.00
O31    O     0.36350   0.53380   0.46497   0.01267  Uiso   1.00
O32    O     0.86150   0.19930   0.04530   0.01267  Uiso   1.00
O33    O     0.81750   0.38428   0.69526   0.01267  Uiso   1.00
O34    O     0.05030   0.05101   0.79705   0.01267  Uiso   1.00
O35    O     0.58900   0.22290   0.33790   0.01267  Uiso   1.00
O36    O     0.41100   0.77710   0.66210   0.01267  Uiso   1.00
O37    O     0.66630   0.90140   0.42870   0.01267  Uiso   1.00
O38    O     0.89970   0.20770   0.74900   0.01267  Uiso   1.00
O39    O     0.08900   0.27710   0.66210   0.01267  Uiso   1.00
O40    O     0.63360   0.28240   0.22800   0.01267  Uiso   1.00
O41    O     0.63850   0.80070   0.54530   0.01267  Uiso   1.00
O42    O     0.14610   0.34410   0.91880   0.01267  Uiso   1.00
O43    O     0.41100   0.72290   0.16210   0.01267  Uiso   1.00
O44    O     0.86350   0.96620   0.53503   0.01267  Uiso   1.00
O45    O     0.13160   0.36050   0.07750   0.01267  Uiso   1.00
O46    O     0.91700   0.16480   0.62930   0.01267  Uiso   1.00
O47    O     0.95020   0.39766   0.76695   0.01267  Uiso   1.00
O48    O     0.36640   0.78240   0.27200   0.01267  Uiso   1.00
O49    O     0.81220   0.93634   0.27410   0.01267  Uiso   1.00
O50    O     0.54980   0.60234   0.26695   0.01267  Uiso   1.00
O51    O     0.14610   0.15590   0.41880   0.01267  Uiso   1.00
O52    O     0.57480   0.49474   0.32527   0.01267  Uiso   1.00
O53    O     0.07180   0.94403   0.85759   0.01267  Uiso   1.00
O54    O     0.42520   0.50526   0.67473   0.01267  Uiso   1.00
O55    O     0.13650   0.03380   0.46497   0.01267  Uiso   1.00
O56    O     0.21490   0.01228   0.83626   0.01267  Uiso   1.00
O57    O     0.41700   0.16480   0.87070   0.01267  Uiso   1.00
O58    O     0.36150   0.19930   0.45470   0.01267  Uiso   1.00
O59    O     0.28510   0.51228   0.83626   0.01267  Uiso   1.00
O60    O     0.31220   0.56366   0.72590   0.01267  Uiso   1.00
O61    O     0.64610   0.34410   0.58120   0.01267  Uiso   1.00
O62    O     0.18250   0.61572   0.30474   0.01267  Uiso   1.00
O63    O     0.15130   0.48240   0.51600   0.01267  Uiso   1.00
O64    O     0.85390   0.84410   0.58120   0.01267  Uiso   1.00
O65    O     0.63160   0.36050   0.42250   0.01267  Uiso   1.00
O66    O     0.10030   0.70770   0.75100   0.01267  Uiso   1.00
O67    O     0.91100   0.72290   0.33790   0.01267  Uiso   1.00
O68    O     0.77970   0.06072   0.30120   0.01267  Uiso   1.00
O69    O     0.39970   0.20770   0.75100   0.01267  Uiso   1.00
O70    O     0.63650   0.03380   0.03503   0.01267  Uiso   1.00
O71    O     0.92820   0.44403   0.64241   0.01267  Uiso   1.00
O72    O     0.33370   0.09860   0.57130   0.01267  Uiso   1.00
O73    O     0.86840   0.63950   0.92250   0.01267  Uiso   1.00
O74    O     0.60030   0.70770   0.74900   0.01267  Uiso   1.00
O75    O     0.13160   0.13950   0.57750   0.01267  Uiso   1.00
O76    O     0.31750   0.38428   0.80474   0.01267  Uiso   1.00
O77    O     0.27970   0.06072   0.19880   0.01267  Uiso   1.00
O78    O     0.45020   0.10234   0.23305   0.01267  Uiso   1.00
O79    O     0.68780   0.06366   0.77410   0.01267  Uiso   1.00
O80    O     0.57180   0.55597   0.14241   0.01267  Uiso   1.00
O81    O     0.45020   0.39766   0.73305   0.01267  Uiso   1.00
O82    O     0.41700   0.33520   0.37070   0.01267  Uiso   1.00
O83    O     0.65130   0.01760   0.48400   0.01267  Uiso   1.00
O84    O     0.04980   0.89766   0.73305   0.01267  Uiso   1.00
O85    O     0.86350   0.53380   0.03503   0.01267  Uiso   1.00
O86    O     0.72030   0.93928   0.80120   0.01267  Uiso   1.00
O87    O     0.33370   0.40140   0.07130   0.01267  Uiso   1.00
O88    O     0.84870   0.51760   0.48400   0.01267  Uiso   1.00
O89    O     0.91100   0.77710   0.83790   0.01267  Uiso   1.00
O90    O     0.94970   0.94899   0.20295   0.01267  Uiso   1.00
O91    O     0.07180   0.55597   0.35759   0.01267  Uiso   1.00
O92    O     0.86640   0.78240   0.22800   0.01267  Uiso   1.00
O93    O     0.42820   0.05597   0.35759   0.01267  Uiso   1.00
O94    O     0.08900   0.22290   0.16210   0.01267  Uiso   1.00
O95    O     0.35390   0.84410   0.91880   0.01267  Uiso   1.00
O96    O     0.71490   0.48772   0.16374   0.01267  Uiso   1.00
O97    O     0.34870   0.51760   0.01600   0.01267  Uiso   1.00
O98    O     0.13850   0.69930   0.45470   0.01267  Uiso   1.00
O99    O     0.13650   0.46620   0.96497   0.01267  Uiso   1.00
O100   O     0.21490   0.48772   0.33626   0.01267  Uiso   1.00
O101   O     0.36150   0.30070   0.95470   0.01267  Uiso   1.00
O102   O     0.18780   0.06366   0.72590   0.01267  Uiso   1.00
O103   O     0.58900   0.27710   0.83790   0.01267  Uiso   1.00
O104   O     0.86150   0.30070   0.54530   0.01267  Uiso   1.00
O105   O     0.36350   0.96620   0.96497   0.01267  Uiso   1.00
O106   O     0.28510   0.98772   0.33626   0.01267  Uiso   1.00
O107   O     0.44970   0.94899   0.29705   0.01267  Uiso   1.00
O108   O     0.68250   0.61572   0.19526   0.01267  Uiso   1.00
O109   O     0.78510   0.51228   0.66374   0.01267  Uiso   1.00
O110   O     0.18250   0.88428   0.80474   0.01267  Uiso   1.00
O111   O     0.63850   0.69930   0.04530   0.01267  Uiso   1.00
O112   O     0.63650   0.46620   0.53503   0.01267  Uiso   1.00
O113   O     0.55030   0.05101   0.70295   0.01267  Uiso   1.00
O114   O     0.55030   0.44899   0.20295   0.01267  Uiso   1.00
O115   O     0.54980   0.89766   0.76695   0.01267  Uiso   1.00
O116   O     0.92820   0.05597   0.14241   0.01267  Uiso   1.00
O117   O     0.35390   0.65590   0.41880   0.01267  Uiso   1.00
O118   O     0.84870   0.98240   0.98400   0.01267  Uiso   1.00
O119   O     0.83370   0.09860   0.92870   0.01267  Uiso   1.00
O120   O     0.92520   0.99474   0.32527   0.01267  Uiso   1.00
O121   O     0.31750   0.11572   0.30474   0.01267  Uiso   1.00
O122   O     0.27970   0.43928   0.69880   0.01267  Uiso   1.00
O123   O     0.89970   0.29230   0.24900   0.01267  Uiso   1.00
O124   O     0.22030   0.56072   0.19880   0.01267  Uiso   1.00
O125   O     0.18780   0.43634   0.22590   0.01267  Uiso   1.00
O126   O     0.81750   0.11572   0.19526   0.01267  Uiso   1.00
O127   O     0.68250   0.88428   0.69526   0.01267  Uiso   1.00
O128   O     0.16630   0.90140   0.07130   0.01267  Uiso   1.00
O129   O     0.92520   0.50526   0.82527   0.01267  Uiso   1.00
O130   O     0.07480   0.00526   0.67473   0.01267  Uiso   1.00
O131   O     0.63160   0.13950   0.92250   0.01267  Uiso   1.00
O132   O     0.36640   0.71760   0.77200   0.01267  Uiso   1.00
O133   O     0.81220   0.56366   0.77410   0.01267  Uiso   1.00
O134   O     0.10030   0.79230   0.25100   0.01267  Uiso   1.00
O135   O     0.58300   0.66480   0.62930   0.01267  Uiso   1.00
O136   O     0.16630   0.59860   0.57130   0.01267  Uiso   1.00
O137   O     0.08300   0.83520   0.37070   0.01267  Uiso   1.00
O138   O     0.08300   0.66480   0.87070   0.01267  Uiso   1.00
O139   O     0.86840   0.86050   0.42250   0.01267  Uiso   1.00
O140   O     0.95020   0.10234   0.26695   0.01267  Uiso   1.00
O141   O     0.36840   0.86050   0.07750   0.01267  Uiso   1.00
O142   O     0.57480   0.00526   0.82527   0.01267  Uiso   1.00
O143   O     0.58300   0.83520   0.12930   0.01267  Uiso   1.00
O144   O     0.42520   0.99474   0.17473   0.01267  Uiso   1.00
