data_ic502042h_si_002_clean
_audit_creation_date              2015-08-19
_audit_creation_method            'Materials Studio'
_symmetry_space_group_name_H-M    'P1'
_symmetry_Int_Tables_number       1
_symmetry_cell_setting            triclinic
loop_
_symmetry_equiv_pos_as_xyz
  x,y,z
_cell_length_a                    13.8757
_cell_length_b                    16.1949
_cell_length_c                    16.1949
_cell_angle_alpha                 112.6390
_cell_angle_beta                  113.8800
_cell_angle_gamma                 66.1200
loop_
_atom_site_label
_atom_site_type_symbol
_atom_site_fract_x
_atom_site_fract_y
_atom_site_fract_z
_atom_site_U_iso_or_equiv
_atom_site_adp_type
_atom_site_occupancy
Na1    Na    0.82930   0.12840   0.87160   0.01267  Uiso   1.00
Na2    Na    0.17070   0.87160   0.12840   0.01267  Uiso   1.00
Na3    Na    0.05840   0.36360   0.63640   0.01267  Uiso   1.00
Na4    Na    0.94160   0.63640   0.36360   0.01267  Uiso   1.00
Dy1    Dy    0.58693   0.63278   0.36722   0.01267  Uiso   1.00
Dy2    Dy    0.33995   0.52257   0.47743   0.01267  Uiso   1.00
Dy3    Dy    0.96341   0.34336   0.18714   0.01267  Uiso   1.00
Dy4    Dy    0.41307   0.36722   0.63278   0.01267  Uiso   1.00
Dy5    Dy    0.03659   0.65664   0.81286   0.01267  Uiso   1.00
Dy6    Dy    0.15881   0.58146   0.62710   0.01267  Uiso   1.00
Dy7    Dy    0.15881   0.37290   0.41854   0.01267  Uiso   1.00
Dy8    Dy    0.03659   0.18714   0.34336   0.01267  Uiso   1.00
Dy9    Dy    0.96341   0.81286   0.65664   0.01267  Uiso   1.00
Dy10   Dy    0.66005   0.47743   0.52257   0.01267  Uiso   1.00
Dy11   Dy    0.84119   0.41854   0.37290   0.01267  Uiso   1.00
Dy12   Dy    0.84119   0.62710   0.58146   0.01267  Uiso   1.00
H1     H     0.14520   0.06270   0.68750   0.01267  Uiso   1.00
H2     H     0.38700   0.10630   0.64150   0.01267  Uiso   1.00
H3     H     0.56140   0.04540   0.34980   0.01267  Uiso   1.00
H4     H     0.15280   0.21550   0.25710   0.01267  Uiso   1.00
H5     H     0.38700   0.35850   0.89370   0.01267  Uiso   1.00
H6     H     0.48660   0.63560   0.57920   0.01267  Uiso   1.00
H7     H     0.43860   0.95460   0.65020   0.01267  Uiso   1.00
H8     H     0.83240   0.19950   0.57110   0.01267  Uiso   1.00
H9     H     0.14520   0.31250   0.93730   0.01267  Uiso   1.00
H10    H     0.03460   0.50010   0.65410   0.01267  Uiso   1.00
H11    H     0.84720   0.25710   0.21550   0.01267  Uiso   1.00
H12    H     0.61860   0.44100   0.32840   0.01267  Uiso   1.00
H13    H     0.12610   0.58680   0.05000   0.01267  Uiso   1.00
H14    H     0.15280   0.74290   0.78450   0.01267  Uiso   1.00
H15    H     0.81800   0.60380   0.39620   0.01267  Uiso   1.00
H16    H     0.61300   0.64150   0.10630   0.01267  Uiso   1.00
H17    H     0.83240   0.42890   0.80050   0.01267  Uiso   1.00
H18    H     0.51340   0.57920   0.63560   0.01267  Uiso   1.00
H19    H     0.84720   0.78450   0.74290   0.01267  Uiso   1.00
H20    H     0.87390   0.05000   0.58680   0.01267  Uiso   1.00
H21    H     0.16760   0.80050   0.42890   0.01267  Uiso   1.00
H22    H     0.38140   0.32840   0.44100   0.01267  Uiso   1.00
H23    H     0.61860   0.67160   0.55900   0.01267  Uiso   1.00
H24    H     0.35820   0.63210   0.13510   0.01267  Uiso   1.00
H25    H     0.87390   0.41320   0.95000   0.01267  Uiso   1.00
H26    H     0.85480   0.68750   0.06270   0.01267  Uiso   1.00
H27    H     0.12610   0.95000   0.41320   0.01267  Uiso   1.00
H28    H     0.51340   0.36440   0.42080   0.01267  Uiso   1.00
H29    H     0.35820   0.86490   0.36790   0.01267  Uiso   1.00
H30    H     0.61300   0.89370   0.35850   0.01267  Uiso   1.00
H31    H     0.10460   0.56370   0.43630   0.01267  Uiso   1.00
H32    H     0.43860   0.34980   0.04540   0.01267  Uiso   1.00
H33    H     0.38140   0.55900   0.67160   0.01267  Uiso   1.00
H34    H     0.56140   0.65020   0.95460   0.01267  Uiso   1.00
H35    H     0.03460   0.34590   0.49990   0.01267  Uiso   1.00
H36    H     0.16760   0.57110   0.19950   0.01267  Uiso   1.00
H37    H     0.48660   0.42080   0.36440   0.01267  Uiso   1.00
H38    H     0.64180   0.13510   0.63210   0.01267  Uiso   1.00
H39    H     0.89540   0.43630   0.56370   0.01267  Uiso   1.00
H40    H     0.64180   0.36790   0.86490   0.01267  Uiso   1.00
H41    H     0.96540   0.65410   0.50010   0.01267  Uiso   1.00
H42    H     0.96540   0.49990   0.34590   0.01267  Uiso   1.00
H43    H     0.18200   0.39620   0.60380   0.01267  Uiso   1.00
H44    H     0.85480   0.93730   0.31250   0.01267  Uiso   1.00
C1     C     0.55370   0.51260   0.79320   0.01267  Uiso   1.00
C2     C     0.41320   0.96700   0.59100   0.01267  Uiso   1.00
C3     C     0.36580   0.57610   0.08590   0.01267  Uiso   1.00
C4     C     0.66510   0.41920   0.00700   0.01267  Uiso   1.00
C5     C     0.16090   0.51930   0.14610   0.01267  Uiso   1.00
C6     C     0.83910   0.14610   0.51930   0.01267  Uiso   1.00
C7     C     0.36580   0.91410   0.42390   0.01267  Uiso   1.00
C8     C     0.59260   0.10550   0.48990   0.01267  Uiso   1.00
C9     C     0.31150   0.17990   0.50370   0.01267  Uiso   1.00
C10    C     0.17400   0.84520   0.56760   0.01267  Uiso   1.00
C11    C     0.13190   0.01990   0.54810   0.01267  Uiso   1.00
C12    C     0.55370   0.20680   0.48740   0.01267  Uiso   1.00
C13    C     0.63420   0.08590   0.57610   0.01267  Uiso   1.00
C14    C     0.44630   0.79320   0.51260   0.01267  Uiso   1.00
C15    C     0.10410   0.11670   0.54070   0.01267  Uiso   1.00
C16    C     0.40740   0.89450   0.51010   0.01267  Uiso   1.00
C17    C     0.89590   0.54070   0.11670   0.01267  Uiso   1.00
C18    C     0.83910   0.48070   0.85390   0.01267  Uiso   1.00
C19    C     0.58680   0.03300   0.40900   0.01267  Uiso   1.00
C20    C     0.58680   0.59100   0.96700   0.01267  Uiso   1.00
C21    C     0.19750   0.42900   0.25400   0.01267  Uiso   1.00
C22    C     0.34320   0.08030   0.50170   0.01267  Uiso   1.00
C23    C     0.16840   0.35610   0.07870   0.01267  Uiso   1.00
C24    C     0.14800   0.36530   0.99030   0.01267  Uiso   1.00
C25    C     0.13790   0.52770   0.05750   0.01267  Uiso   1.00
C26    C     0.68850   0.50370   0.17990   0.01267  Uiso   1.00
C27    C     0.86210   0.47230   0.94250   0.01267  Uiso   1.00
C28    C     0.85200   0.63470   0.00970   0.01267  Uiso   1.00
C29    C     0.63420   0.42390   0.91410   0.01267  Uiso   1.00
C30    C     0.82600   0.15480   0.43240   0.01267  Uiso   1.00
C31    C     0.89590   0.88330   0.45930   0.01267  Uiso   1.00
C32    C     0.80250   0.57100   0.74600   0.01267  Uiso   1.00
C33    C     0.16840   0.92130   0.64390   0.01267  Uiso   1.00
C34    C     0.61830   0.94270   0.41490   0.01267  Uiso   1.00
C35    C     0.14800   0.00970   0.63470   0.01267  Uiso   1.00
C36    C     0.40740   0.48990   0.10550   0.01267  Uiso   1.00
C37    C     0.59260   0.51010   0.89450   0.01267  Uiso   1.00
C38    C     0.19750   0.74600   0.57100   0.01267  Uiso   1.00
C39    C     0.17400   0.43240   0.15480   0.01267  Uiso   1.00
C40    C     0.83160   0.07870   0.35610   0.01267  Uiso   1.00
C41    C     0.65680   0.50170   0.08030   0.01267  Uiso   1.00
C42    C     0.83160   0.64390   0.92130   0.01267  Uiso   1.00
C43    C     0.82600   0.56760   0.84520   0.01267  Uiso   1.00
C44    C     0.86810   0.54810   0.01990   0.01267  Uiso   1.00
C45    C     0.10410   0.45930   0.88330   0.01267  Uiso   1.00
C46    C     0.86210   0.05750   0.52770   0.01267  Uiso   1.00
C47    C     0.38170   0.05730   0.58510   0.01267  Uiso   1.00
C48    C     0.16090   0.85390   0.48070   0.01267  Uiso   1.00
C49    C     0.86810   0.98010   0.45190   0.01267  Uiso   1.00
C50    C     0.34320   0.49830   0.91970   0.01267  Uiso   1.00
C51    C     0.33490   0.58080   0.99300   0.01267  Uiso   1.00
C52    C     0.38170   0.41490   0.94270   0.01267  Uiso   1.00
C53    C     0.31150   0.49630   0.82010   0.01267  Uiso   1.00
C54    C     0.44630   0.48740   0.20680   0.01267  Uiso   1.00
C55    C     0.33490   0.00700   0.41920   0.01267  Uiso   1.00
C56    C     0.65680   0.91970   0.49830   0.01267  Uiso   1.00
C57    C     0.13790   0.94250   0.47230   0.01267  Uiso   1.00
C58    C     0.61830   0.58510   0.05730   0.01267  Uiso   1.00
C59    C     0.80250   0.25400   0.42900   0.01267  Uiso   1.00
C60    C     0.66510   0.99300   0.58080   0.01267  Uiso   1.00
C61    C     0.68850   0.82010   0.49630   0.01267  Uiso   1.00
C62    C     0.13190   0.45190   0.98010   0.01267  Uiso   1.00
C63    C     0.41320   0.40900   0.03300   0.01267  Uiso   1.00
C64    C     0.85200   0.99030   0.36530   0.01267  Uiso   1.00
S1     S     0.18080   0.91517   0.75543   0.01267  Uiso   1.00
S2     S     0.28650   0.69504   0.97816   0.01267  Uiso   1.00
S3     S     0.28650   0.02184   0.30496   0.01267  Uiso   1.00
S4     S     0.71350   0.97816   0.69504   0.01267  Uiso   1.00
S5     S     0.18080   0.24457   0.08483   0.01267  Uiso   1.00
S6     S     0.81920   0.08483   0.24457   0.01267  Uiso   1.00
S7     S     0.81920   0.75543   0.91517   0.01267  Uiso   1.00
S8     S     0.71350   0.30496   0.02184   0.01267  Uiso   1.00
O1     O     0.78870   0.58250   0.41750   0.01267  Uiso   1.00
O2     O     0.32800   0.09140   0.30640   0.01267  Uiso   1.00
O3     O     0.67760   0.06790   0.75470   0.01267  Uiso   1.00
O4     O     0.37520   0.22540   0.56760   0.01267  Uiso   1.00
O5     O     0.89440   0.81700   0.38720   0.01267  Uiso   1.00
O6     O     0.67200   0.90860   0.69360   0.01267  Uiso   1.00
O7     O     0.50000   0.57960   0.57960   0.01267  Uiso   1.00
O8     O     0.89420   0.28490   0.25590   0.01267  Uiso   1.00
O9     O     0.73340   0.17070   0.22830   0.01267  Uiso   1.00
O10    O     0.92950   0.74580   0.91300   0.01267  Uiso   1.00
O11    O     0.16330   0.71850   0.94790   0.01267  Uiso   1.00
O12    O     0.55800   0.26850   0.56650   0.01267  Uiso   1.00
O13    O     0.22380   0.21400   0.44640   0.01267  Uiso   1.00
O14    O     0.55800   0.43350   0.73150   0.01267  Uiso   1.00
O15    O     0.50000   0.42040   0.42040   0.01267  Uiso   1.00
O16    O     0.13650   0.73130   0.60210   0.01267  Uiso   1.00
O17    O     0.21130   0.41750   0.58250   0.01267  Uiso   1.00
O18    O     0.34340   0.52550   0.62630   0.01267  Uiso   1.00
O19    O     0.26660   0.22830   0.17070   0.01267  Uiso   1.00
O20    O     0.07050   0.25420   0.08700   0.01267  Uiso   1.00
O21    O     0.44200   0.56650   0.26850   0.01267  Uiso   1.00
O22    O     0.32800   0.69360   0.90860   0.01267  Uiso   1.00
O23    O     0.73340   0.77170   0.82930   0.01267  Uiso   1.00
O24    O     0.07050   0.91300   0.74580   0.01267  Uiso   1.00
O25    O     0.79660   0.82180   0.99980   0.01267  Uiso   1.00
O26    O     0.89440   0.61280   0.18300   0.01267  Uiso   1.00
O27    O     0.37520   0.43240   0.77460   0.01267  Uiso   1.00
O28    O     0.67760   0.24530   0.93210   0.01267  Uiso   1.00
O29    O     0.89420   0.74410   0.71510   0.01267  Uiso   1.00
O30    O     0.77620   0.78600   0.55360   0.01267  Uiso   1.00
O31    O     0.62480   0.56760   0.22540   0.01267  Uiso   1.00
O32    O     0.02410   0.55750   0.66130   0.01267  Uiso   1.00
O33    O     0.67200   0.30640   0.09140   0.01267  Uiso   1.00
O34    O     0.65660   0.47450   0.37370   0.01267  Uiso   1.00
O35    O     0.65660   0.62630   0.52550   0.01267  Uiso   1.00
O36    O     0.22380   0.55360   0.78600   0.01267  Uiso   1.00
O37    O     0.27280   0.46030   0.31610   0.01267  Uiso   1.00
O38    O     0.92950   0.08700   0.25420   0.01267  Uiso   1.00
O39    O     0.34340   0.37370   0.47450   0.01267  Uiso   1.00
O40    O     0.72720   0.31610   0.46030   0.01267  Uiso   1.00
O41    O     0.79660   0.00020   0.17820   0.01267  Uiso   1.00
O42    O     0.15850   0.53000   0.47000   0.01267  Uiso   1.00
O43    O     0.51980   0.58790   0.77410   0.01267  Uiso   1.00
O44    O     0.10580   0.71510   0.74410   0.01267  Uiso   1.00
O45    O     0.86350   0.26870   0.39790   0.01267  Uiso   1.00
O46    O     0.91760   0.87540   0.53920   0.01267  Uiso   1.00
O47    O     0.13650   0.39790   0.26870   0.01267  Uiso   1.00
O48    O     0.32240   0.75470   0.06790   0.01267  Uiso   1.00
O49    O     0.62480   0.77460   0.43240   0.01267  Uiso   1.00
O50    O     0.77620   0.44640   0.21400   0.01267  Uiso   1.00
O51    O     0.32240   0.93210   0.24530   0.01267  Uiso   1.00
O52    O     0.97590   0.66130   0.55750   0.01267  Uiso   1.00
O53    O     0.20340   0.99980   0.82180   0.01267  Uiso   1.00
O54    O     0.86350   0.60210   0.73130   0.01267  Uiso   1.00
O55    O     0.97590   0.44250   0.33870   0.01267  Uiso   1.00
O56    O     0.84150   0.47000   0.53000   0.01267  Uiso   1.00
O57    O     0.91760   0.46080   0.12460   0.01267  Uiso   1.00
O58    O     0.44200   0.73150   0.43350   0.01267  Uiso   1.00
O59    O     0.26660   0.82930   0.77170   0.01267  Uiso   1.00
O60    O     0.16330   0.05210   0.28150   0.01267  Uiso   1.00
O61    O     0.10560   0.18300   0.61280   0.01267  Uiso   1.00
O62    O     0.51980   0.22590   0.41210   0.01267  Uiso   1.00
O63    O     0.48020   0.41210   0.22590   0.01267  Uiso   1.00
O64    O     0.10560   0.38720   0.81700   0.01267  Uiso   1.00
O65    O     0.83670   0.28150   0.05210   0.01267  Uiso   1.00
O66    O     0.08240   0.12460   0.46080   0.01267  Uiso   1.00
O67    O     0.48020   0.77410   0.58790   0.01267  Uiso   1.00
O68    O     0.20340   0.17820   0.00020   0.01267  Uiso   1.00
O69    O     0.83670   0.94790   0.71850   0.01267  Uiso   1.00
O70    O     0.10580   0.25590   0.28490   0.01267  Uiso   1.00
O71    O     0.27280   0.68390   0.53970   0.01267  Uiso   1.00
O72    O     0.72720   0.53970   0.68390   0.01267  Uiso   1.00
O73    O     0.02410   0.33870   0.44250   0.01267  Uiso   1.00
O74    O     0.08240   0.53920   0.87540   0.01267  Uiso   1.00
