data_ic501801f_si_002_clean
_audit_creation_date              2015-08-19
_audit_creation_method            'Materials Studio'
_symmetry_space_group_name_H-M    'P1'
_symmetry_Int_Tables_number       1
_symmetry_cell_setting            triclinic
loop_
_symmetry_equiv_pos_as_xyz
  x,y,z
_cell_length_a                    14.9156
_cell_length_b                    15.0624
_cell_length_c                    25.5528
_cell_angle_alpha                 90.0000
_cell_angle_beta                  93.6021
_cell_angle_gamma                 90.0000
loop_
_atom_site_label
_atom_site_type_symbol
_atom_site_fract_x
_atom_site_fract_y
_atom_site_fract_z
_atom_site_U_iso_or_equiv
_atom_site_adp_type
_atom_site_occupancy
Cd1    Cd    0.36320   0.66412   0.06975   0.01267  Uiso   1.00
Cd2    Cd    0.86320   0.83588   0.56975   0.01267  Uiso   1.00
Cd3    Cd    0.13680   0.16412   0.43025   0.01267  Uiso   1.00
Cd4    Cd    0.63680   0.33588   0.93025   0.01267  Uiso   1.00
Cd5    Cd    0.50000   0.50000   0.00000   0.01267  Uiso   1.00
Cd6    Cd   -0.00000   0.00000   0.50000   0.01267  Uiso   1.00
B1     B     0.61190   0.19200   0.26010   0.01267  Uiso   1.00
B2     B     0.38810   0.80800   0.73990   0.01267  Uiso   1.00
B3     B     0.11190   0.30800   0.76010   0.01267  Uiso   1.00
B4     B     0.88810   0.69200   0.23990   0.01267  Uiso   1.00
H1     H     0.89750   0.51700   0.15270   0.01267  Uiso   1.00
H2     H     0.45930   0.21370   0.04360   0.01267  Uiso   1.00
H3     H     0.97070   0.83600   0.25340   0.01267  Uiso   1.00
H4     H     0.29900   0.91730   0.79110   0.01267  Uiso   1.00
H5     H     0.61750   0.30960   0.33170   0.01267  Uiso   1.00
H6     H     0.71080   0.44100   0.12590   0.01267  Uiso   1.00
H7     H     0.28920   0.55900   0.87410   0.01267  Uiso   1.00
H8     H     0.75710   0.04270   0.46980   0.01267  Uiso   1.00
H9     H     0.36670   0.01400   0.39790   0.01267  Uiso   1.00
H10    H     0.30360   0.40140   0.70250   0.01267  Uiso   1.00
H11    H     0.02880   0.88290   0.21250   0.01267  Uiso   1.00
H12    H     0.98030   0.38260   0.56410   0.01267  Uiso   1.00
H13    H     0.03310   0.96450   0.68060   0.01267  Uiso   1.00
H14    H     0.23760   0.78230   0.42830   0.01267  Uiso   1.00
H15    H     0.82880   0.08670   0.64150   0.01267  Uiso   1.00
H16    H     0.70560   0.79450   0.28070   0.01267  Uiso   1.00
H17    H     0.79440   0.29450   0.21930   0.01267  Uiso   1.00
H18    H     0.38590   0.34890   0.10880   0.01267  Uiso   1.00
H19    H     0.29100   0.32890   0.28260   0.01267  Uiso   1.00
H20    H     0.24950   0.61210   0.79130   0.01267  Uiso   1.00
H21    H     0.24700   0.27610   0.95150   0.01267  Uiso   1.00
H22    H     0.89180   0.75990   0.11500   0.01267  Uiso   1.00
H23    H     0.68930   0.79590   0.07040   0.01267  Uiso   1.00
H24    H     0.27130   0.48970   0.72780   0.01267  Uiso   1.00
H25    H     0.85070   0.20650   0.45230   0.01267  Uiso   1.00
H26    H     0.51000   0.94020   0.84850   0.01267  Uiso   1.00
H27    H     0.64930   0.70650   0.04770   0.01267  Uiso   1.00
H28    H     0.31650   0.66840   0.61980   0.01267  Uiso   1.00
H29    H     0.57490   0.55860   0.87340   0.01267  Uiso   1.00
H30    H     0.95930   0.28630   0.54360   0.01267  Uiso   1.00
H31    H     0.06570   0.94980   0.73940   0.01267  Uiso   1.00
H32    H     0.71990   0.32890   0.25490   0.01267  Uiso   1.00
H33    H     0.09150   0.67550   0.40950   0.01267  Uiso   1.00
H34    H     0.00890   0.41900   0.71120   0.01267  Uiso   1.00
H35    H     0.73770   0.70280   0.66240   0.01267  Uiso   1.00
H36    H     0.68350   0.33160   0.38020   0.01267  Uiso   1.00
H37    H     0.04070   0.71370   0.45640   0.01267  Uiso   1.00
H38    H     0.13330   0.51400   0.10210   0.01267  Uiso   1.00
H39    H     0.10250   0.48300   0.84730   0.01267  Uiso   1.00
H40    H     0.63330   0.98600   0.60210   0.01267  Uiso   1.00
H41    H     0.74290   0.54270   0.03020   0.01267  Uiso   1.00
H42    H     0.66210   0.06850   0.48790   0.01267  Uiso   1.00
H43    H     0.81650   0.83160   0.11980   0.01267  Uiso   1.00
H44    H     0.60820   0.25990   0.38500   0.01267  Uiso   1.00
H45    H     0.46640   0.03160   0.69170   0.01267  Uiso   1.00
H46    H     0.92530   0.15420   0.73520   0.01267  Uiso   1.00
H47    H     0.25300   0.77610   0.54850   0.01267  Uiso   1.00
H48    H     0.40850   0.17550   0.09050   0.01267  Uiso   1.00
H49    H     0.07470   0.84580   0.26480   0.01267  Uiso   1.00
H50    H     0.29390   0.02180   0.49420   0.01267  Uiso   1.00
H51    H     0.76230   0.20280   0.83760   0.01267  Uiso   1.00
H52    H     0.78920   0.94100   0.37410   0.01267  Uiso   1.00
H53    H     0.89300   0.97350   0.29280   0.01267  Uiso   1.00
H54    H     0.46690   0.46450   0.81940   0.01267  Uiso   1.00
H55    H     0.20640   0.34320   0.10730   0.01267  Uiso   1.00
H56    H     0.90850   0.32450   0.59050   0.01267  Uiso   1.00
H57    H     0.70610   0.97820   0.50580   0.01267  Uiso   1.00
H58    H     0.31070   0.20410   0.92960   0.01267  Uiso   1.00
H59    H     0.48030   0.11740   0.06410   0.01267  Uiso   1.00
H60    H     0.83330   0.68490   0.94850   0.01267  Uiso   1.00
H61    H     0.02930   0.16400   0.74660   0.01267  Uiso   1.00
H62    H     0.71360   0.86890   0.37570   0.01267  Uiso   1.00
H63    H     0.26230   0.29720   0.33760   0.01267  Uiso   1.00
H64    H     0.52930   0.33600   0.24660   0.01267  Uiso   1.00
H65    H     0.33790   0.93150   0.51210   0.01267  Uiso   1.00
H66    H     0.28640   0.13110   0.62430   0.01267  Uiso   1.00
H67    H     0.53180   0.01120   0.60550   0.01267  Uiso   1.00
H68    H     0.96640   0.46840   0.19170   0.01267  Uiso   1.00
H69    H     0.18350   0.16840   0.88020   0.01267  Uiso   1.00
H70    H     0.61410   0.65110   0.89120   0.01267  Uiso   1.00
H71    H     0.73760   0.71770   0.92830   0.01267  Uiso   1.00
H72    H     0.10300   0.45780   0.14950   0.01267  Uiso   1.00
H73    H     0.97120   0.11710   0.78750   0.01267  Uiso   1.00
H74    H     0.49110   0.91900   0.78880   0.01267  Uiso   1.00
H75    H     0.50890   0.08100   0.21120   0.01267  Uiso   1.00
H76    H     0.19640   0.90140   0.79750   0.01267  Uiso   1.00
H77    H     0.66000   0.63350   0.66600   0.01267  Uiso   1.00
H78    H     0.21990   0.17110   0.75490   0.01267  Uiso   1.00
H79    H     0.39270   0.96970   0.71330   0.01267  Uiso   1.00
H80    H     0.99110   0.58100   0.28880   0.01267  Uiso   1.00
H81    H     0.39300   0.52650   0.79280   0.01267  Uiso   1.00
H82    H     0.78640   0.36890   0.12430   0.01267  Uiso   1.00
H83    H     0.78010   0.82890   0.24510   0.01267  Uiso   1.00
H84    H     0.03180   0.48880   0.10550   0.01267  Uiso   1.00
H85    H     0.47070   0.66400   0.75340   0.01267  Uiso   1.00
H86    H     0.57340   0.87540   0.82020   0.01267  Uiso   1.00
H87    H     0.49000   0.05980   0.15150   0.01267  Uiso   1.00
H88    H     0.20900   0.82890   0.21740   0.01267  Uiso   1.00
H89    H     0.16670   0.31510   0.05150   0.01267  Uiso   1.00
H90    H     0.79390   0.47820   0.99420   0.01267  Uiso   1.00
H91    H     0.17120   0.91330   0.35850   0.01267  Uiso   1.00
H92    H     0.01970   0.61740   0.43590   0.01267  Uiso   1.00
H93    H     0.75050   0.38790   0.20870   0.01267  Uiso   1.00
H94    H     0.39180   0.74010   0.61500   0.01267  Uiso   1.00
H95    H     0.46820   0.98880   0.39450   0.01267  Uiso   1.00
H96    H     0.70900   0.67110   0.71740   0.01267  Uiso   1.00
H97    H     0.20100   0.41730   0.70890   0.01267  Uiso   1.00
H98    H     0.60700   0.47350   0.20720   0.01267  Uiso   1.00
H99    H     0.77130   0.01030   0.22780   0.01267  Uiso   1.00
H100   H     0.39700   0.95780   0.35050   0.01267  Uiso   1.00
H101   H     0.84000   0.13350   0.83400   0.01267  Uiso   1.00
H102   H     0.75300   0.72390   0.04850   0.01267  Uiso   1.00
H103   H     0.39750   0.98300   0.65270   0.01267  Uiso   1.00
H104   H     0.14930   0.79350   0.54770   0.01267  Uiso   1.00
H105   H     0.16000   0.86650   0.16600   0.01267  Uiso   1.00
H106   H     0.22870   0.98970   0.77220   0.01267  Uiso   1.00
H107   H     0.42530   0.34580   0.23520   0.01267  Uiso   1.00
H108   H     0.72160   0.38590   0.07460   0.01267  Uiso   1.00
H109   H     0.54070   0.78630   0.95640   0.01267  Uiso   1.00
H110   H     0.33330   0.81510   0.44850   0.01267  Uiso   1.00
H111   H     0.96820   0.51120   0.89450   0.01267  Uiso   1.00
H112   H     0.34000   0.36650   0.33400   0.01267  Uiso   1.00
H113   H     0.88250   0.80960   0.16830   0.01267  Uiso   1.00
H114   H     0.60730   0.03030   0.28670   0.01267  Uiso   1.00
H115   H     0.56570   0.55020   0.23940   0.01267  Uiso   1.00
H116   H     0.79900   0.58270   0.29110   0.01267  Uiso   1.00
H117   H     0.29440   0.20550   0.71930   0.01267  Uiso   1.00
H118   H     0.70100   0.08270   0.20890   0.01267  Uiso   1.00
H119   H     0.99000   0.44020   0.65150   0.01267  Uiso   1.00
H120   H     0.18930   0.70410   0.57040   0.01267  Uiso   1.00
H121   H     0.77840   0.88590   0.42540   0.01267  Uiso   1.00
H122   H     0.42510   0.44140   0.12660   0.01267  Uiso   1.00
H123   H     0.21080   0.05900   0.62590   0.01267  Uiso   1.00
H124   H     0.72870   0.51030   0.27220   0.01267  Uiso   1.00
H125   H     0.22160   0.11410   0.57460   0.01267  Uiso   1.00
H126   H     0.11750   0.19040   0.83170   0.01267  Uiso   1.00
H127   H     0.38250   0.69040   0.66830   0.01267  Uiso   1.00
H128   H     0.43430   0.44980   0.76060   0.01267  Uiso   1.00
H129   H     0.11410   0.84890   0.39120   0.01267  Uiso   1.00
H130   H     0.53310   0.53550   0.18060   0.01267  Uiso   1.00
H131   H     0.57470   0.65420   0.76480   0.01267  Uiso   1.00
H132   H     0.47120   0.38290   0.28750   0.01267  Uiso   1.00
H133   H     0.28010   0.67110   0.74510   0.01267  Uiso   1.00
H134   H     0.79360   0.65680   0.89270   0.01267  Uiso   1.00
H135   H     0.80360   0.09860   0.20250   0.01267  Uiso   1.00
H136   H     0.60250   0.01700   0.34730   0.01267  Uiso   1.00
H137   H     0.26240   0.28230   0.07170   0.01267  Uiso   1.00
H138   H     0.83790   0.56850   0.01210   0.01267  Uiso   1.00
H139   H     0.60300   0.04220   0.64950   0.01267  Uiso   1.00
H140   H     0.51970   0.88260   0.93590   0.01267  Uiso   1.00
H141   H     0.25050   0.11210   0.70870   0.01267  Uiso   1.00
H142   H     0.93430   0.05020   0.26060   0.01267  Uiso   1.00
H143   H     0.21360   0.63110   0.87570   0.01267  Uiso   1.00
H144   H     0.79100   0.17110   0.78260   0.01267  Uiso   1.00
H145   H     0.70640   0.15680   0.60730   0.01267  Uiso   1.00
H146   H     0.03360   0.53160   0.80830   0.01267  Uiso   1.00
H147   H     0.10730   0.46970   0.78670   0.01267  Uiso   1.00
H148   H     0.59150   0.82450   0.90950   0.01267  Uiso   1.00
H149   H     0.07490   0.94140   0.37340   0.01267  Uiso   1.00
H150   H     0.29360   0.84320   0.39270   0.01267  Uiso   1.00
H151   H     0.76240   0.21770   0.57170   0.01267  Uiso   1.00
H152   H     0.89700   0.54220   0.85050   0.01267  Uiso   1.00
H153   H     0.10820   0.24010   0.88500   0.01267  Uiso   1.00
H154   H     0.23770   0.79720   0.16240   0.01267  Uiso   1.00
H155   H     0.67120   0.58670   0.85850   0.01267  Uiso   1.00
H156   H     0.20560   0.70550   0.78070   0.01267  Uiso   1.00
H157   H     0.35070   0.29350   0.95230   0.01267  Uiso   1.00
H158   H     0.92660   0.37540   0.67980   0.01267  Uiso   1.00
H159   H     0.69640   0.59860   0.29750   0.01267  Uiso   1.00
H160   H     0.16210   0.43150   0.98790   0.01267  Uiso   1.00
H161   H     0.86670   0.48600   0.89790   0.01267  Uiso   1.00
H162   H     0.74700   0.22390   0.45150   0.01267  Uiso   1.00
H163   H     0.66670   0.18490   0.55150   0.01267  Uiso   1.00
H164   H     0.10700   0.02650   0.70720   0.01267  Uiso   1.00
H165   H     0.32880   0.41330   0.14150   0.01267  Uiso   1.00
H166   H     0.24290   0.95730   0.53020   0.01267  Uiso   1.00
H167   H     0.81070   0.29590   0.42960   0.01267  Uiso   1.00
H168   H     0.27840   0.61410   0.92540   0.01267  Uiso   1.00
H169   H     0.42660   0.12460   0.17980   0.01267  Uiso   1.00
H170   H     0.89270   0.53030   0.21330   0.01267  Uiso   1.00
H171   H     0.07340   0.62460   0.32020   0.01267  Uiso   1.00
H172   H     0.25710   0.45730   0.96980   0.01267  Uiso   1.00
H173   H     0.53360   0.96840   0.30830   0.01267  Uiso   1.00
H174   H     0.92510   0.05860   0.62660   0.01267  Uiso   1.00
H175   H     0.20610   0.52180   0.00580   0.01267  Uiso   1.00
H176   H     0.52880   0.61710   0.71250   0.01267  Uiso   1.00
H177   H     0.01000   0.55980   0.34850   0.01267  Uiso   1.00
H178   H     0.88590   0.15110   0.60880   0.01267  Uiso   1.00
H179   H     0.74950   0.88790   0.29130   0.01267  Uiso   1.00
H180   H     0.96690   0.03550   0.31940   0.01267  Uiso   1.00
C1     C     0.66810   0.28600   0.18310   0.01267  Uiso   1.00
C2     C     0.08620   0.50480   0.12540   0.01267  Uiso   1.00
C3     C     0.19960   0.76670   0.56690   0.01267  Uiso   1.00
C4     C     0.80040   0.23330   0.43310   0.01267  Uiso   1.00
C5     C     0.06770   0.47820   0.81450   0.01267  Uiso   1.00
C6     C     0.84400   0.09540   0.31120   0.01267  Uiso   1.00
C7     C     0.64860   0.63150   0.13800   0.01267  Uiso   1.00
C8     C     0.40400   0.72110   0.90350   0.01267  Uiso   1.00
C9     C     0.67190   0.54530   0.93940   0.01267  Uiso   1.00
C10    C     0.73990   0.32820   0.21990   0.01267  Uiso   1.00
C11    C     0.37150   0.40990   0.11500   0.01267  Uiso   1.00
C12    C     0.42910   0.39380   0.89890   0.01267  Uiso   1.00
C13    C     0.41620   0.46700   0.79450   0.01267  Uiso   1.00
C14    C     0.41260   0.69020   0.95910   0.01267  Uiso   1.00
C15    C     0.08740   0.19020   0.54090   0.01267  Uiso   1.00
C16    C     0.12020   0.74000   0.18250   0.01267  Uiso   1.00
C17    C     0.21150   0.80880   0.62130   0.01267  Uiso   1.00
C18    C     0.71360   0.21410   0.34520   0.01267  Uiso   1.00
C19    C     0.27390   0.61610   0.88780   0.01267  Uiso   1.00
C20    C     0.13450   0.66100   0.15570   0.01267  Uiso   1.00
C21    C     0.27940   0.83080   0.42810   0.01267  Uiso   1.00
C22    C     0.07090   0.59040   0.15610   0.01267  Uiso   1.00
C23    C     0.85140   0.13150   0.36200   0.01267  Uiso   1.00
C24    C     0.71680   0.84590   0.62480   0.01267  Uiso   1.00
C25    C     0.73070   0.61620   0.22150   0.01267  Uiso   1.00
C26    C     0.52780   0.66380   0.73800   0.01267  Uiso   1.00
C27    C     0.58380   0.53300   0.20550   0.01267  Uiso   1.00
C28    C     0.71150   0.69120   0.12130   0.01267  Uiso   1.00
C29    C     0.23070   0.88380   0.72150   0.01267  Uiso   1.00
C30    C     0.51250   0.89510   0.82210   0.01267  Uiso   1.00
C31    C     0.01250   0.60490   0.32210   0.01267  Uiso   1.00
C32    C     0.49510   0.90030   0.68350   0.01267  Uiso   1.00
C33    C     0.81210   0.18500   0.81800   0.01267  Uiso   1.00
C34    C     0.78850   0.19120   0.37870   0.01267  Uiso   1.00
C35    C     0.66280   0.31540   0.13070   0.01267  Uiso   1.00
C36    C     0.16280   0.18460   0.63070   0.01267  Uiso   1.00
C37    C     0.26010   0.67180   0.78010   0.01267  Uiso   1.00
C38    C     0.11010   0.28070   0.70080   0.01267  Uiso   1.00
C39    C     0.28320   0.15410   0.37520   0.01267  Uiso   1.00
C40    C     0.63450   0.83900   0.65570   0.01267  Uiso   1.00
C41    C     0.96260   0.71320   0.38740   0.01267  Uiso   1.00
C42    C     0.76050   0.07300   0.22440   0.01267  Uiso   1.00
C43    C     0.69960   0.73330   0.06690   0.01267  Uiso   1.00
C44    C     0.34400   0.40460   0.81120   0.01267  Uiso   1.00
C45    C     0.97220   0.16380   0.76200   0.01267  Uiso   1.00
C46    C     0.70280   0.17370   0.29470   0.01267  Uiso   1.00
C47    C     0.46470   0.17660   0.07420   0.01267  Uiso   1.00
C48    C     0.08380   0.96700   0.70550   0.01267  Uiso   1.00
C49    C     0.58620   0.99520   0.62540   0.01267  Uiso   1.00
C50    C     0.50490   0.09970   0.31650   0.01267  Uiso   1.00
C51    C     0.96470   0.32340   0.57420   0.01267  Uiso   1.00
C52    C     0.57090   0.90960   0.65610   0.01267  Uiso   1.00
C53    C     0.87150   0.09010   0.61500   0.01267  Uiso   1.00
C54    C     0.68790   0.68500   0.68200   0.01267  Uiso   1.00
C55    C     0.46260   0.78680   0.88740   0.01267  Uiso   1.00
C56    C     0.12850   0.90990   0.38500   0.01267  Uiso   1.00
C57    C     0.78640   0.71410   0.15480   0.01267  Uiso   1.00
C58    C     0.61010   0.21930   0.20080   0.01267  Uiso   1.00
C59    C     0.35010   0.71470   0.63790   0.01267  Uiso   1.00
C60    C     0.83720   0.81540   0.36930   0.01267  Uiso   1.00
C61    C     0.00490   0.40030   0.81650   0.01267  Uiso   1.00
C62    C     0.42910   0.09040   0.34390   0.01267  Uiso   1.00
C63    C     0.31210   0.31500   0.31800   0.01267  Uiso   1.00
C64    C     0.47870   0.82110   0.71140   0.01267  Uiso   1.00
C65    C     0.28240   0.96070   0.50200   0.01267  Uiso   1.00
C66    C     0.47220   0.33620   0.26200   0.01267  Uiso   1.00
C67    C     0.77390   0.88390   0.38780   0.01267  Uiso   1.00
C68    C     0.21680   0.65410   0.12480   0.01267  Uiso   1.00
C69    C     0.95420   0.68240   0.33600   0.01267  Uiso   1.00
C70    C     0.95770   0.25290   0.78850   0.01267  Uiso   1.00
C71    C     0.76010   0.82820   0.28010   0.01267  Uiso   1.00
C72    C     0.28640   0.78590   0.65480   0.01267  Uiso   1.00
C73    C     0.14990   0.21470   0.86210   0.01267  Uiso   1.00
C74    C     0.56770   0.02180   0.31450   0.01267  Uiso   1.00
C75    C     0.76930   0.11620   0.27850   0.01267  Uiso   1.00
C76    C     0.20280   0.32630   0.79470   0.01267  Uiso   1.00
C77    C     0.93230   0.52180   0.18550   0.01267  Uiso   1.00
C78    C     0.09600   0.22110   0.59650   0.01267  Uiso   1.00
C79    C     0.92910   0.40960   0.84390   0.01267  Uiso   1.00
C80    C     0.33720   0.68460   0.86930   0.01267  Uiso   1.00
C81    C     0.17190   0.95470   0.43940   0.01267  Uiso   1.00
C82    C     0.26050   0.42700   0.72440   0.01267  Uiso   1.00
C83    C     0.37980   0.24000   0.31750   0.01267  Uiso   1.00
C84    C     0.21360   0.28590   0.84520   0.01267  Uiso   1.00
C85    C     0.43230   0.97820   0.68550   0.01267  Uiso   1.00
C86    C     0.57090   0.60620   0.10110   0.01267  Uiso   1.00
C87    C     0.78320   0.34590   0.87520   0.01267  Uiso   1.00
C88    C     0.15600   0.90460   0.68880   0.01267  Uiso   1.00
C89    C     0.98750   0.39510   0.67790   0.01267  Uiso   1.00
C90    C     0.85010   0.78530   0.13790   0.01267  Uiso   1.00
C91    C     0.99510   0.59970   0.18350   0.01267  Uiso   1.00
C92    C     0.88990   0.71930   0.29920   0.01267  Uiso   1.00
C93    C     0.28850   0.30880   0.87870   0.01267  Uiso   1.00
C94    C     0.48750   0.10490   0.17790   0.01267  Uiso   1.00
C95    C     0.64990   0.28530   0.36210   0.01267  Uiso   1.00
C96    C     0.32810   0.45470   0.06060   0.01267  Uiso   1.00
C97    C     0.79720   0.67370   0.20530   0.01267  Uiso   1.00
C98    C     0.73950   0.57300   0.27560   0.01267  Uiso   1.00
C99    C     0.72610   0.38390   0.11220   0.01267  Uiso   1.00
C100   C     0.91380   0.49520   0.87460   0.01267  Uiso   1.00
C101   C     0.29720   0.82630   0.70530   0.01267  Uiso   1.00
C102   C     0.77940   0.66920   0.92810   0.01267  Uiso   1.00
C103   C     0.18790   0.81500   0.18200   0.01267  Uiso   1.00
C104   C     0.38990   0.78070   0.79920   0.01267  Uiso   1.00
C105   C     0.21760   0.46070   0.99800   0.01267  Uiso   1.00
C106   C     0.71760   0.03930   0.49800   0.01267  Uiso   1.00
C107   C     0.41380   0.00480   0.37460   0.01267  Uiso   1.00
C108   C     0.23950   0.92700   0.77560   0.01267  Uiso   1.00
C109   C     0.58740   0.30980   0.04090   0.01267  Uiso   1.00
C110   C     0.91260   0.80980   0.45910   0.01267  Uiso   1.00
C111   C     0.07090   0.89380   0.60110   0.01267  Uiso   1.00
C112   C     0.30040   0.26670   0.93310   0.01267  Uiso   1.00
C113   C     0.83190   0.78600   0.31690   0.01267  Uiso   1.00
C114   C     0.92910   0.10620   0.39890   0.01267  Uiso   1.00
C115   C     0.22610   0.11610   0.61220   0.01267  Uiso   1.00
C116   C     0.52130   0.17890   0.28860   0.01267  Uiso   1.00
C117   C     0.02130   0.32110   0.78860   0.01267  Uiso   1.00
C118   C     0.65600   0.59540   0.18880   0.01267  Uiso   1.00
C119   C     0.02780   0.83620   0.23800   0.01267  Uiso   1.00
C120   C     0.26930   0.38380   0.77850   0.01267  Uiso   1.00
C121   C     0.35140   0.36850   0.86200   0.01267  Uiso   1.00
C122   C     0.33190   0.71400   0.81690   0.01267  Uiso   1.00
C123   C     0.62850   0.59010   0.88500   0.01267  Uiso   1.00
C124   C     0.16810   0.21400   0.68310   0.01267  Uiso   1.00
C125   C     0.53530   0.82340   0.92580   0.01267  Uiso   1.00
C126   C     0.59600   0.27890   0.09650   0.01267  Uiso   1.00
C127   C     0.45770   0.24710   0.28850   0.01267  Uiso   1.00
C128   C     0.36550   0.16100   0.34430   0.01267  Uiso   1.00
C129   C     0.97870   0.67890   0.21140   0.01267  Uiso   1.00
C130   C     0.62020   0.76000   0.68250   0.01267  Uiso   1.00
C131   C     0.14860   0.86850   0.63800   0.01267  Uiso   1.00
C132   C     0.04580   0.31760   0.66400   0.01267  Uiso   1.00
C133   C     0.04230   0.74710   0.21150   0.01267  Uiso   1.00
C134   C     0.54230   0.75290   0.71150   0.01267  Uiso   1.00
C135   C     0.90400   0.77890   0.40350   0.01267  Uiso   1.00
C136   C     0.87980   0.26000   0.81750   0.01267  Uiso   1.00
C137   C     0.45420   0.81760   0.83600   0.01267  Uiso   1.00
C138   C     0.22060   0.33080   0.07190   0.01267  Uiso   1.00
C139   C     0.82810   0.04530   0.56060   0.01267  Uiso   1.00
C140   C     0.54580   0.18240   0.16400   0.01267  Uiso   1.00
C141   C     0.91620   0.03300   0.29450   0.01267  Uiso   1.00
C142   C     0.86550   0.33900   0.84430   0.01267  Uiso   1.00
C143   C     0.78240   0.53930   0.00200   0.01267  Uiso   1.00
C144   C     0.72060   0.16920   0.57190   0.01267  Uiso   1.00
C145   C     0.23990   0.17180   0.71990   0.01267  Uiso   1.00
C146   C     0.53740   0.21320   0.11260   0.01267  Uiso   1.00
C147   C     0.03530   0.67660   0.42580   0.01267  Uiso   1.00
C148   C     0.03740   0.28680   0.61260   0.01267  Uiso   1.00
N1     N     0.26290   0.41390   0.04810   0.01267  Uiso   1.00
N2     N     0.23710   0.91390   0.45190   0.01267  Uiso   1.00
N3     N     0.76290   0.08610   0.54810   0.01267  Uiso   1.00
N4     N     0.73710   0.58610   0.95190   0.01267  Uiso   1.00
O1     O     0.02010   0.14070   0.52660   0.01267  Uiso   1.00
O2     O     0.47990   0.64070   0.97340   0.01267  Uiso   1.00
O3     O     0.28930   0.17560   0.42330   0.01267  Uiso   1.00
O4     O     0.36470   0.51540   0.04200   0.01267  Uiso   1.00
O5     O     0.99960   0.14870   0.39360   0.01267  Uiso   1.00
O6     O     0.00040   0.85130   0.60640   0.01267  Uiso   1.00
O7     O     0.50040   0.64870   0.10640   0.01267  Uiso   1.00
O8     O     0.14510   0.21470   0.51090   0.01267  Uiso   1.00
O9     O     0.85490   0.78530   0.48910   0.01267  Uiso   1.00
O10    O     0.86470   0.98460   0.54200   0.01267  Uiso   1.00
O11    O     0.35490   0.71470   0.98910   0.01267  Uiso   1.00
O12    O     0.97990   0.85930   0.47340   0.01267  Uiso   1.00
O13    O     0.49960   0.35130   0.89360   0.01267  Uiso   1.00
O14    O     0.28850   0.62430   0.14620   0.01267  Uiso   1.00
O15    O     0.41714   0.45560   0.93104   0.01267  Uiso   1.00
O16    O     0.78850   0.87570   0.64620   0.01267  Uiso   1.00
O17    O     0.91714   0.04440   0.43104   0.01267  Uiso   1.00
O18    O     0.78930   0.32440   0.92330   0.01267  Uiso   1.00
O19    O     0.63530   0.48460   0.95800   0.01267  Uiso   1.00
O20    O     0.08286   0.95560   0.56896   0.01267  Uiso   1.00
O21    O     0.71150   0.37570   0.85380   0.01267  Uiso   1.00
O22    O     0.21070   0.67560   0.07670   0.01267  Uiso   1.00
O23    O     0.13530   0.01540   0.45800   0.01267  Uiso   1.00
O24    O     0.52010   0.35930   0.02660   0.01267  Uiso   1.00
O25    O     0.71070   0.82440   0.57670   0.01267  Uiso   1.00
O26    O     0.21150   0.12430   0.35380   0.01267  Uiso   1.00
O27    O     0.64510   0.28530   0.01090   0.01267  Uiso   1.00
O28    O     0.58286   0.54440   0.06896   0.01267  Uiso   1.00
