data_ic502254c_si_002_clean
_audit_creation_date              2015-08-19
_audit_creation_method            'Materials Studio'
_symmetry_space_group_name_H-M    'P1'
_symmetry_Int_Tables_number       1
_symmetry_cell_setting            triclinic
loop_
_symmetry_equiv_pos_as_xyz
  x,y,z
_cell_length_a                    20.5195
_cell_length_b                    20.5195
_cell_length_c                    20.5195
_cell_angle_alpha                 92.2063
_cell_angle_beta                  92.2063
_cell_angle_gamma                 92.2063
loop_
_atom_site_label
_atom_site_type_symbol
_atom_site_fract_x
_atom_site_fract_y
_atom_site_fract_z
_atom_site_U_iso_or_equiv
_atom_site_adp_type
_atom_site_occupancy
Zn1    Zn    0.66954   0.96819   0.53961   0.01267  Uiso   1.00
Zn2    Zn    0.53961   0.66954   0.96819   0.01267  Uiso   1.00
Zn3    Zn    0.03181   0.33046   0.46039   0.01267  Uiso   1.00
Zn4    Zn    0.66385   0.69067   0.85747   0.01267  Uiso   1.00
Zn5    Zn    0.33615   0.14253   0.30933   0.01267  Uiso   1.00
Zn6    Zn    0.85747   0.66385   0.69067   0.01267  Uiso   1.00
Zn7    Zn    0.30933   0.33615   0.14253   0.01267  Uiso   1.00
Zn8    Zn    0.96819   0.53961   0.66954   0.01267  Uiso   1.00
Zn9    Zn    0.14253   0.30933   0.33615   0.01267  Uiso   1.00
Zn10   Zn    0.33046   0.46039   0.03181   0.01267  Uiso   1.00
Zn11   Zn    0.46039   0.03181   0.33046   0.01267  Uiso   1.00
Zn12   Zn    0.69067   0.85747   0.66385   0.01267  Uiso   1.00
H1     H     0.87700   0.43490   0.05530   0.01267  Uiso   1.00
H2     H     0.54040   0.94060   0.73980   0.01267  Uiso   1.00
H3     H     0.58100   0.11160   0.05390   0.01267  Uiso   1.00
H4     H     0.05530   0.87700   0.43490   0.01267  Uiso   1.00
H5     H     0.08110   0.15070   0.54500   0.01267  Uiso   1.00
H6     H     0.45960   0.26020   0.05940   0.01267  Uiso   1.00
H7     H     0.66860   0.60860   0.10900   0.01267  Uiso   1.00
H8     H     0.07770   0.88710   0.65030   0.01267  Uiso   1.00
H9     H     0.11160   0.05390   0.58100   0.01267  Uiso   1.00
H10    H     0.92230   0.34970   0.11290   0.01267  Uiso   1.00
H11    H     0.00390   0.54380   0.30830   0.01267  Uiso   1.00
H12    H     0.39140   0.33140   0.89100   0.01267  Uiso   1.00
H13    H     0.73140   0.39300   0.17380   0.01267  Uiso   1.00
H14    H     0.49610   0.39690   0.94500   0.01267  Uiso   1.00
H15    H     0.00220   0.81200   0.68330   0.01267  Uiso   1.00
H16    H     0.81200   0.68330   0.00220   0.01267  Uiso   1.00
H17    H     0.65590   0.36990   0.84220   0.01267  Uiso   1.00
H18    H     0.18800   0.99780   0.31670   0.01267  Uiso   1.00
H19    H     0.11290   0.92230   0.34970   0.01267  Uiso   1.00
H20    H     0.18230   0.74410   0.57050   0.01267  Uiso   1.00
H21    H     0.50320   0.50630   0.92510   0.01267  Uiso   1.00
H22    H     0.94470   0.56510   0.12300   0.01267  Uiso   1.00
H23    H     0.84220   0.65590   0.36990   0.01267  Uiso   1.00
H24    H     0.15070   0.54500   0.08110   0.01267  Uiso   1.00
H25    H     0.52130   0.33680   0.17190   0.01267  Uiso   1.00
H26    H     0.88840   0.41900   0.94610   0.01267  Uiso   1.00
H27    H     0.33140   0.89100   0.39140   0.01267  Uiso   1.00
H28    H     0.63010   0.34410   0.15780   0.01267  Uiso   1.00
H29    H     0.30830   0.00390   0.54380   0.01267  Uiso   1.00
H30    H     0.82810   0.66320   0.47870   0.01267  Uiso   1.00
H31    H     0.68330   0.00220   0.81200   0.01267  Uiso   1.00
H32    H     0.36990   0.84220   0.65590   0.01267  Uiso   1.00
H33    H     0.07490   0.49370   0.49680   0.01267  Uiso   1.00
H34    H     0.41900   0.94610   0.88840   0.01267  Uiso   1.00
H35    H     0.73980   0.54040   0.94060   0.01267  Uiso   1.00
H36    H     0.05940   0.45960   0.26020   0.01267  Uiso   1.00
H37    H     0.22280   0.15310   0.41740   0.01267  Uiso   1.00
H38    H     0.66320   0.47870   0.82810   0.01267  Uiso   1.00
H39    H     0.91890   0.45500   0.84930   0.01267  Uiso   1.00
H40    H     0.92510   0.50320   0.50630   0.01267  Uiso   1.00
H41    H     0.39690   0.94500   0.49610   0.01267  Uiso   1.00
H42    H     0.69170   0.45620   0.99610   0.01267  Uiso   1.00
H43    H     0.25590   0.81770   0.42950   0.01267  Uiso   1.00
H44    H     0.15780   0.63010   0.34410   0.01267  Uiso   1.00
H45    H     0.88710   0.65030   0.07770   0.01267  Uiso   1.00
H46    H     0.47870   0.82810   0.66320   0.01267  Uiso   1.00
H47    H     0.33680   0.17190   0.52130   0.01267  Uiso   1.00
H48    H     0.50630   0.92510   0.50320   0.01267  Uiso   1.00
H49    H     0.94060   0.73980   0.54040   0.01267  Uiso   1.00
H50    H     0.94610   0.88840   0.41900   0.01267  Uiso   1.00
H51    H     0.49680   0.07490   0.49370   0.01267  Uiso   1.00
H52    H     0.42950   0.25590   0.81770   0.01267  Uiso   1.00
H53    H     0.26020   0.05940   0.45960   0.01267  Uiso   1.00
H54    H     0.05500   0.60310   0.50390   0.01267  Uiso   1.00
H55    H     0.49370   0.49680   0.07490   0.01267  Uiso   1.00
H56    H     0.43490   0.05530   0.87700   0.01267  Uiso   1.00
H57    H     0.17190   0.52130   0.33680   0.01267  Uiso   1.00
H58    H     0.74410   0.57050   0.18230   0.01267  Uiso   1.00
H59    H     0.12300   0.94470   0.56510   0.01267  Uiso   1.00
H60    H     0.94500   0.49610   0.39690   0.01267  Uiso   1.00
H61    H     0.82620   0.60700   0.26860   0.01267  Uiso   1.00
H62    H     0.15310   0.41740   0.22280   0.01267  Uiso   1.00
H63    H     0.63275   0.00000   0.36725   0.01267  Uiso   1.00
H64    H     0.41740   0.22280   0.15310   0.01267  Uiso   1.00
H65    H     0.54380   0.30830   0.00390   0.01267  Uiso   1.00
H66    H     0.10900   0.66860   0.60860   0.01267  Uiso   1.00
H67    H     0.45500   0.84930   0.91890   0.01267  Uiso   1.00
H68    H     0.81770   0.42950   0.25590   0.01267  Uiso   1.00
H69    H     0.50390   0.05500   0.60310   0.01267  Uiso   1.00
H70    H     0.84690   0.77720   0.58260   0.01267  Uiso   1.00
H71    H     0.45620   0.99610   0.69170   0.01267  Uiso   1.00
H72    H     0.60310   0.50390   0.05500   0.01267  Uiso   1.00
H73    H     0.99780   0.31670   0.18800   0.01267  Uiso   1.00
H74    H     0.77720   0.58260   0.84690   0.01267  Uiso   1.00
H75    H     0.57050   0.18230   0.74410   0.01267  Uiso   1.00
H76    H     0.54500   0.08110   0.15070   0.01267  Uiso   1.00
H77    H     0.05390   0.58100   0.11160   0.01267  Uiso   1.00
H78    H     0.58260   0.84690   0.77720   0.01267  Uiso   1.00
H79    H     0.60860   0.10900   0.66860   0.01267  Uiso   1.00
H80    H     0.84930   0.91890   0.45500   0.01267  Uiso   1.00
H81    H     0.60700   0.26860   0.82620   0.01267  Uiso   1.00
H82    H     0.26860   0.82620   0.60700   0.01267  Uiso   1.00
H83    H     0.31670   0.18800   0.99780   0.01267  Uiso   1.00
H84    H     0.34970   0.11290   0.92230   0.01267  Uiso   1.00
H85    H     0.99610   0.69170   0.45620   0.01267  Uiso   1.00
H86    H     0.65030   0.07770   0.88710   0.01267  Uiso   1.00
H87    H     0.00000   0.36725   0.63275   0.01267  Uiso   1.00
H88    H     0.89100   0.39140   0.33140   0.01267  Uiso   1.00
H89    H     0.17380   0.73140   0.39300   0.01267  Uiso   1.00
H90    H     0.36725   0.63275   0.00000   0.01267  Uiso   1.00
H91    H     0.56510   0.12300   0.94470   0.01267  Uiso   1.00
H92    H     0.34410   0.15780   0.63010   0.01267  Uiso   1.00
H93    H     0.39300   0.17380   0.73140   0.01267  Uiso   1.00
C1     C     0.33992   0.20142   0.96212   0.01267  Uiso   1.00
C2     C     0.89738   0.57698   0.36988   0.01267  Uiso   1.00
C3     C     0.45066   0.92486   0.86526   0.01267  Uiso   1.00
C4     C     0.88374   0.47355   0.86912   0.01267  Uiso   1.00
C5     C     0.89820   0.38560   0.28710   0.01267  Uiso   1.00
C6     C     0.34050   0.31580   0.00610   0.01267  Uiso   1.00
C7     C     0.54742   0.21363   0.98041   0.01267  Uiso   1.00
C8     C     0.41674   0.12484   0.49574   0.01267  Uiso   1.00
C9     C     0.00000   0.39868   0.60133   0.01267  Uiso   1.00
C10    C     0.54934   0.13474   0.07514   0.01267  Uiso   1.00
C11    C     0.79858   0.66008   0.03788   0.01267  Uiso   1.00
C12    C     0.46177   0.85137   0.62887   0.01267  Uiso   1.00
C13    C     0.96212   0.33992   0.20142   0.01267  Uiso   1.00
C14    C     0.85137   0.62887   0.46177   0.01267  Uiso   1.00
C15    C     0.13839   0.82679   0.60909   0.01267  Uiso   1.00
C16    C     0.64406   0.04526   0.73246   0.01267  Uiso   1.00
C17    C     0.18658   0.87569   0.59030   0.01267  Uiso   1.00
C18    C     0.85315   0.40615   0.24245   0.01267  Uiso   1.00
C19    C     0.95474   0.35594   0.26754   0.01267  Uiso   1.00
C20    C     0.06470   0.83310   0.43280   0.01267  Uiso   1.00
C21    C     0.59385   0.14685   0.75755   0.01267  Uiso   1.00
C22    C     0.80742   0.47716   0.95140   0.01267  Uiso   1.00
C23    C     0.47716   0.95140   0.80742   0.01267  Uiso   1.00
C24    C     0.04526   0.73246   0.64406   0.01267  Uiso   1.00
C25    C     0.36988   0.89738   0.57698   0.01267  Uiso   1.00
C26    C     0.07754   0.47604   0.22304   0.01267  Uiso   1.00
C27    C     0.86526   0.45066   0.92486   0.01267  Uiso   1.00
C28    C     0.03788   0.79858   0.66008   0.01267  Uiso   1.00
C29    C     0.54893   0.86627   0.79891   0.01267  Uiso   1.00
C30    C     0.45107   0.20109   0.13373   0.01267  Uiso   1.00
C31    C     0.31580   0.00610   0.34050   0.01267  Uiso   1.00
C32    C     0.12242   0.22240   0.44671   0.01267  Uiso   1.00
C33    C     0.50426   0.87516   0.58326   0.01267  Uiso   1.00
C34    C     0.01959   0.78637   0.45258   0.01267  Uiso   1.00
C35    C     0.52645   0.11626   0.13088   0.01267  Uiso   1.00
C36    C     0.92115   0.53025   0.41315   0.01267  Uiso   1.00
C37    C     0.47604   0.22304   0.07754   0.01267  Uiso   1.00
C38    C     0.38560   0.28710   0.89820   0.01267  Uiso   1.00
C39    C     0.47548   0.14714   0.16183   0.01267  Uiso   1.00
C40    C     0.42085   0.41275   0.13445   0.01267  Uiso   1.00
C41    C     0.66008   0.03788   0.79858   0.01267  Uiso   1.00
C42    C     0.74605   0.40870   0.13475   0.01267  Uiso   1.00
C43    C     0.87569   0.59030   0.18658   0.01267  Uiso   1.00
C44    C     0.20142   0.96212   0.33992   0.01267  Uiso   1.00
C45    C     0.08388   0.84308   0.64098   0.01267  Uiso   1.00
C46    C     0.22304   0.07754   0.47604   0.01267  Uiso   1.00
C47    C     0.59030   0.18658   0.87569   0.01267  Uiso   1.00
C48    C     0.97050   0.55232   0.27828   0.01267  Uiso   1.00
C49    C     0.61440   0.10180   0.71290   0.01267  Uiso   1.00
C50    C     0.20109   0.13373   0.45107   0.01267  Uiso   1.00
C51    C     0.91003   0.57013   0.29943   0.01267  Uiso   1.00
C52    C     0.63012   0.42302   0.10262   0.01267  Uiso   1.00
C53    C     0.45258   0.01959   0.78637   0.01267  Uiso   1.00
C54    C     0.40870   0.13475   0.74605   0.01267  Uiso   1.00
C55    C     0.62887   0.46177   0.85137   0.01267  Uiso   1.00
C56    C     0.12484   0.49574   0.41674   0.01267  Uiso   1.00
C57    C     0.62541   0.39671   0.86061   0.01267  Uiso   1.00
C58    C     0.90918   0.53458   0.47908   0.01267  Uiso   1.00
C59    C     0.39671   0.86061   0.62541   0.01267  Uiso   1.00
C60    C     0.43280   0.06470   0.83310   0.01267  Uiso   1.00
C61    C     0.55329   0.77760   0.87758   0.01267  Uiso   1.00
C62    C     0.35902   0.15692   0.91612   0.01267  Uiso   1.00
C63    C     0.86061   0.62541   0.39671   0.01267  Uiso   1.00
C64    C     0.86912   0.88374   0.47355   0.01267  Uiso   1.00
C65    C     0.35594   0.26754   0.95474   0.01267  Uiso   1.00
C66    C     0.10262   0.63012   0.42302   0.01267  Uiso   1.00
C67    C     0.86555   0.58725   0.57915   0.01267  Uiso   1.00
C68    C     0.82679   0.60909   0.13839   0.01267  Uiso   1.00
C69    C     0.52284   0.19258   0.04860   0.01267  Uiso   1.00
C70    C     0.60329   0.37459   0.13939   0.01267  Uiso   1.00
C71    C     0.47908   0.90918   0.53458   0.01267  Uiso   1.00
C72    C     0.92486   0.86526   0.45066   0.01267  Uiso   1.00
C73    C     0.29943   0.91003   0.57013   0.01267  Uiso   1.00
C74    C     0.41275   0.13445   0.42085   0.01267  Uiso   1.00
C75    C     0.11626   0.13088   0.52645   0.01267  Uiso   1.00
C76    C     0.83310   0.43280   0.06470   0.01267  Uiso   1.00
C77    C     0.02950   0.72172   0.44768   0.01267  Uiso   1.00
C78    C     0.39868   0.60133   0.00000   0.01267  Uiso   1.00
C79    C     0.87758   0.55329   0.77760   0.01267  Uiso   1.00
C80    C     0.60133  -0.00000   0.39868   0.01267  Uiso   1.00
C81    C     0.40615   0.24245   0.85315   0.01267  Uiso   1.00
C82    C     0.41315   0.92115   0.53025   0.01267  Uiso   1.00
C83    C     0.60909   0.13839   0.82679   0.01267  Uiso   1.00
C84    C     0.75755   0.59385   0.14685   0.01267  Uiso   1.00
C85    C     0.95140   0.80742   0.47716   0.01267  Uiso   1.00
C86    C     0.37459   0.13939   0.60329   0.01267  Uiso   1.00
C87    C     0.53823   0.37113   0.14863   0.01267  Uiso   1.00
C88    C     0.98041   0.54742   0.21363   0.01267  Uiso   1.00
C89    C     0.40970   0.12431   0.81342   0.01267  Uiso   1.00
C90    C     0.12431   0.81342   0.40970   0.01267  Uiso   1.00
C91    C     0.14685   0.75755   0.59385   0.01267  Uiso   1.00
C92    C     0.65950   0.99390   0.68420   0.01267  Uiso   1.00
C93    C     0.46542   0.09082   0.52092   0.01267  Uiso   1.00
C94    C     0.86525   0.59130   0.25395   0.01267  Uiso   1.00
C95    C     0.19258   0.04860   0.52284   0.01267  Uiso   1.00
C96    C     0.58725   0.57915   0.86555   0.01267  Uiso   1.00
C97    C     0.52396   0.92246   0.77696   0.01267  Uiso   1.00
C98    C     0.16183   0.47548   0.14714   0.01267  Uiso   1.00
C99    C     0.13939   0.60329   0.37459   0.01267  Uiso   1.00
C100   C     0.52092   0.46542   0.09082   0.01267  Uiso   1.00
C101   C     0.68420   0.65950   0.99390   0.01267  Uiso   1.00
C102   C     0.57915   0.86555   0.58725   0.01267  Uiso   1.00
C103   C     0.25395   0.86525   0.59130   0.01267  Uiso   1.00
C104   C     0.09082   0.52092   0.46542   0.01267  Uiso   1.00
C105   C     0.13475   0.74605   0.40870   0.01267  Uiso   1.00
C106   C     0.53458   0.47908   0.90918   0.01267  Uiso   1.00
C107   C     0.22240   0.44671   0.12242   0.01267  Uiso   1.00
C108   C     0.13474   0.07514   0.54934   0.01267  Uiso   1.00
C109   C     0.46975   0.07885   0.58685   0.01267  Uiso   1.00
C110   C     0.07885   0.58685   0.46975   0.01267  Uiso   1.00
C111   C     0.77696   0.52396   0.92246   0.01267  Uiso   1.00
C112   C     0.13088   0.52645   0.11626   0.01267  Uiso   1.00
C113   C     0.44671   0.12242   0.22240   0.01267  Uiso   1.00
C114   C     0.13445   0.42085   0.41275   0.01267  Uiso   1.00
C115   C     0.13373   0.45107   0.20109   0.01267  Uiso   1.00
C116   C     0.10180   0.71290   0.61440   0.01267  Uiso   1.00
C117   C     0.17321   0.86161   0.39091   0.01267  Uiso   1.00
C118   C     0.49574   0.41674   0.12484   0.01267  Uiso   1.00
C119   C     0.81342   0.40970   0.12431   0.01267  Uiso   1.00
C120   C     0.28710   0.89820   0.38560   0.01267  Uiso   1.00
C121   C     0.64098   0.08388   0.84308   0.01267  Uiso   1.00
C122   C     0.59130   0.25395   0.86525   0.01267  Uiso   1.00
C123   C     0.79891   0.54893   0.86627   0.01267  Uiso   1.00
C124   C     0.26754   0.95474   0.35594   0.01267  Uiso   1.00
C125   C     0.55232   0.27828   0.97050   0.01267  Uiso   1.00
C126   C     0.92246   0.77696   0.52396   0.01267  Uiso   1.00
C127   C     0.71290   0.61440   0.10180   0.01267  Uiso   1.00
C128   C     0.78637   0.45258   0.01959   0.01267  Uiso   1.00
C129   C     0.04860   0.52284   0.19258   0.01267  Uiso   1.00
C130   C     0.27828   0.97050   0.55232   0.01267  Uiso   1.00
C131   C     0.70057   0.42987   0.08997   0.01267  Uiso   1.00
C132   C     0.42302   0.10262   0.63012   0.01267  Uiso   1.00
C133   C     0.53025   0.41315   0.92115   0.01267  Uiso   1.00
C134   C     0.91612   0.35902   0.15692   0.01267  Uiso   1.00
C135   C     0.07514   0.54934   0.13474   0.01267  Uiso   1.00
C136   C     0.58685   0.46975   0.07885   0.01267  Uiso   1.00
C137   C     0.57698   0.36988   0.89738   0.01267  Uiso   1.00
C138   C     0.52452   0.83817   0.85286   0.01267  Uiso   1.00
C139   C     0.16690   0.93530   0.56720   0.01267  Uiso   1.00
C140   C     0.00610   0.34050   0.31580   0.01267  Uiso   1.00
C141   C     0.77760   0.87758   0.55329   0.01267  Uiso   1.00
C142   C     0.86161   0.39091   0.17321   0.01267  Uiso   1.00
C143   C     0.87516   0.58326   0.50426   0.01267  Uiso   1.00
C144   C     0.14714   0.16183   0.47548   0.01267  Uiso   1.00
C145   C     0.37113   0.14863   0.53823   0.01267  Uiso   1.00
C146   C     0.56720   0.16690   0.93530   0.01267  Uiso   1.00
C147   C     0.73246   0.64406   0.04526   0.01267  Uiso   1.00
C148   C     0.85286   0.52452   0.83817   0.01267  Uiso   1.00
C149   C     0.58326   0.50426   0.87516   0.01267  Uiso   1.00
C150   C     0.47355   0.86912   0.88374   0.01267  Uiso   1.00
C151   C     0.83817   0.85286   0.52452   0.01267  Uiso   1.00
C152   C     0.15692   0.91612   0.35902   0.01267  Uiso   1.00
C153   C     0.93530   0.56720   0.16690   0.01267  Uiso   1.00
C154   C     0.08997   0.70057   0.42987   0.01267  Uiso   1.00
C155   C     0.72172   0.44768   0.02950   0.01267  Uiso   1.00
C156   C     0.86627   0.79891   0.54893   0.01267  Uiso   1.00
C157   C     0.57013   0.29943   0.91003   0.01267  Uiso   1.00
C158   C     0.21363   0.98041   0.54742   0.01267  Uiso   1.00
C159   C     0.39091   0.17321   0.86161   0.01267  Uiso   1.00
C160   C     0.24245   0.85315   0.40615   0.01267  Uiso   1.00
C161   C     0.84308   0.64098   0.08388   0.01267  Uiso   1.00
C162   C     0.14863   0.53823   0.37113   0.01267  Uiso   1.00
C163   C     0.42987   0.08997   0.70057   0.01267  Uiso   1.00
C164   C     0.44768   0.02950   0.72172   0.01267  Uiso   1.00
C165   C     0.99390   0.68420   0.65950   0.01267  Uiso   1.00
S1     S     0.25915   0.25915   0.25915   0.01267  Uiso   1.00
S2     S     0.74085   0.74085   0.74085   0.01267  Uiso   1.00
O1     O     0.70460   0.69173   0.94622   0.01267  Uiso   1.00
O2     O     0.30827   0.29540   0.05378   0.01267  Uiso   1.00
O3     O     0.26705   0.19667   0.28544   0.01267  Uiso   1.00
O4     O     0.35879   0.37426   0.99856   0.01267  Uiso   1.00
O5     O     0.75090   0.92586   0.52574   0.01267  Uiso   1.00
O6     O     0.47426   0.07414   0.24910   0.01267  Uiso   1.00
O7     O     0.80333   0.73295   0.71456   0.01267  Uiso   1.00
O8     O     0.29540   0.05378   0.30827   0.01267  Uiso   1.00
O9     O     0.05378   0.30827   0.29540   0.01267  Uiso   1.00
O10    O     0.75719   0.84855   0.60213   0.01267  Uiso   1.00
O11    O     0.24910   0.47426   0.07414   0.01267  Uiso   1.00
O12    O     0.99856   0.35879   0.37426   0.01267  Uiso   1.00
O13    O     0.35975   0.15745   0.40183   0.01267  Uiso   1.00
O14    O     0.00860   0.46700   0.62530   0.01267  Uiso   1.00
O15    O     0.64025   0.59817   0.84255   0.01267  Uiso   1.00
O16    O     0.15745   0.40183   0.35975   0.01267  Uiso   1.00
O17    O     0.59817   0.84255   0.64025   0.01267  Uiso   1.00
O18    O     0.28544   0.26705   0.19667   0.01267  Uiso   1.00
O19    O     0.07414   0.24910   0.47426   0.01267  Uiso   1.00
O20    O     0.69173   0.94622   0.70460   0.01267  Uiso   1.00
O21    O     0.60213   0.75719   0.84855   0.01267  Uiso   1.00
O22    O     0.40183   0.35975   0.15745   0.01267  Uiso   1.00
O23    O     0.71456   0.80333   0.73295   0.01267  Uiso   1.00
O24    O     0.54394   0.61280   0.88559   0.01267  Uiso   1.00
O25    O     0.73295   0.71456   0.80333   0.01267  Uiso   1.00
O26    O     0.11441   0.38720   0.45606   0.01267  Uiso   1.00
O27    O     0.84255   0.64025   0.59817   0.01267  Uiso   1.00
O28    O     0.94622   0.70460   0.69173   0.01267  Uiso   1.00
O29    O     0.37470   0.53300   0.99140   0.01267  Uiso   1.00
O30    O     0.64121   0.00144   0.62574   0.01267  Uiso   1.00
O31    O     0.00144   0.62574   0.64121   0.01267  Uiso   1.00
O32    O     0.62530   0.00860   0.46700   0.01267  Uiso   1.00
O33    O     0.61280   0.88559   0.54394   0.01267  Uiso   1.00
O34    O     0.19667   0.28544   0.26705   0.01267  Uiso   1.00
O35    O     0.92586   0.52574   0.75090   0.01267  Uiso   1.00
O36    O     0.46700   0.62530   0.00860   0.01267  Uiso   1.00
O37    O     0.24281   0.39787   0.15145   0.01267  Uiso   1.00
O38    O     0.15145   0.24281   0.39787   0.01267  Uiso   1.00
O39    O     0.39787   0.15145   0.24281   0.01267  Uiso   1.00
O40    O     0.38720   0.45606   0.11441   0.01267  Uiso   1.00
O41    O     0.53300   0.99140   0.37470   0.01267  Uiso   1.00
O42    O     0.37426   0.99856   0.35879   0.01267  Uiso   1.00
O43    O     0.62574   0.64121   0.00144   0.01267  Uiso   1.00
O44    O     0.99140   0.37470   0.53300   0.01267  Uiso   1.00
O45    O     0.45606   0.11441   0.38720   0.01267  Uiso   1.00
O46    O     0.52574   0.75090   0.92586   0.01267  Uiso   1.00
O47    O     0.88559   0.54394   0.61280   0.01267  Uiso   1.00
O48    O     0.84855   0.60213   0.75719   0.01267  Uiso   1.00
