data_ic502725y_si_003_clean
_audit_creation_date              2015-08-19
_audit_creation_method            'Materials Studio'
_symmetry_space_group_name_H-M    'P1'
_symmetry_Int_Tables_number       1
_symmetry_cell_setting            triclinic
loop_
_symmetry_equiv_pos_as_xyz
  x,y,z
_cell_length_a                    9.1948
_cell_length_b                    10.7270
_cell_length_c                    10.7270
_cell_angle_alpha                 114.5830
_cell_angle_beta                  102.9270
_cell_angle_gamma                 102.9270
loop_
_atom_site_label
_atom_site_type_symbol
_atom_site_fract_x
_atom_site_fract_y
_atom_site_fract_z
_atom_site_U_iso_or_equiv
_atom_site_adp_type
_atom_site_occupancy
Th1    Th    0.25000   0.48131   0.51869   0.01267  Uiso   1.00
Th2    Th    0.75000   0.51869   0.48131   0.01267  Uiso   1.00
H1     H     0.52180   0.20330   0.04890   0.01267  Uiso   1.00
H2     H     0.25270   0.02350   0.48210   0.01267  Uiso   1.00
H3     H     0.78660   0.46320   0.81040   0.01267  Uiso   1.00
H4     H     0.07060   0.16630   0.01970   0.01267  Uiso   1.00
H5     H     0.02180   0.04890   0.20330   0.01267  Uiso   1.00
H6     H     0.75270   0.48210   0.02350   0.01267  Uiso   1.00
H7     H     0.97820   0.95110   0.79670   0.01267  Uiso   1.00
H8     H     0.92940   0.83370   0.98030   0.01267  Uiso   1.00
H9     H     0.71340   0.18960   0.53680   0.01267  Uiso   1.00
H10    H     0.57060   0.01970   0.16630   0.01267  Uiso   1.00
H11    H     0.47820   0.79670   0.95110   0.01267  Uiso   1.00
H12    H     0.24730   0.51790   0.97650   0.01267  Uiso   1.00
H13    H     0.74730   0.97650   0.51790   0.01267  Uiso   1.00
H14    H     0.21340   0.53680   0.18960   0.01267  Uiso   1.00
H15    H     0.28660   0.81040   0.46320   0.01267  Uiso   1.00
H16    H     0.42940   0.98030   0.83370   0.01267  Uiso   1.00
C1     C     0.86480   0.21590   0.32370   0.01267  Uiso   1.00
C2     C     0.35730   0.01640   0.87220   0.01267  Uiso   1.00
C3     C     0.14270   0.12780   0.98360   0.01267  Uiso   1.00
C4     C     0.13520   0.78410   0.67630   0.01267  Uiso   1.00
C5     C     0.14810   0.51100   0.98600   0.01267  Uiso   1.00
C6     C     0.85730   0.87220   0.01640   0.01267  Uiso   1.00
C7     C     0.87250   0.47830   0.88690   0.01267  Uiso   1.00
C8     C     0.69480   0.80020   0.93800   0.01267  Uiso   1.00
C9     C     0.37250   0.88690   0.47830   0.01267  Uiso   1.00
C10    C     0.02090   0.48990   0.87250   0.01267  Uiso   1.00
C11    C     0.08710   0.99760   0.85100   0.01267  Uiso   1.00
C12    C     0.30520   0.19980   0.06200   0.01267  Uiso   1.00
C13    C     0.35190   0.01400   0.48900   0.01267  Uiso   1.00
C14    C     0.91290   0.00240   0.14900   0.01267  Uiso   1.00
C15    C     0.97910   0.51010   0.12750   0.01267  Uiso   1.00
C16    C     0.58710   0.85100   0.99760   0.01267  Uiso   1.00
C17    C     0.04420   0.48060   0.73560   0.01267  Uiso   1.00
C18    C     0.36480   0.32370   0.21590   0.01267  Uiso   1.00
C19    C     0.12750   0.52170   0.11310   0.01267  Uiso   1.00
C20    C     0.85190   0.48900   0.01400   0.01267  Uiso   1.00
C21    C     0.95580   0.51940   0.26440   0.01267  Uiso   1.00
C22    C     0.62750   0.11310   0.52170   0.01267  Uiso   1.00
C23    C     0.45580   0.26440   0.51940   0.01267  Uiso   1.00
C24    C     0.64270   0.98360   0.12780   0.01267  Uiso   1.00
C25    C     0.64810   0.98600   0.51100   0.01267  Uiso   1.00
C26    C     0.52090   0.87250   0.48990   0.01267  Uiso   1.00
C27    C     0.19480   0.93800   0.80020   0.01267  Uiso   1.00
C28    C     0.63520   0.67630   0.78410   0.01267  Uiso   1.00
C29    C     0.41290   0.14900   0.00240   0.01267  Uiso   1.00
C30    C     0.54420   0.73560   0.48060   0.01267  Uiso   1.00
C31    C     0.47910   0.12750   0.51010   0.01267  Uiso   1.00
C32    C     0.80520   0.06200   0.19980   0.01267  Uiso   1.00
O1     O     0.32720   0.28057   0.52603   0.01267  Uiso   1.00
O2     O     0.51100   0.40288   0.27232   0.01267  Uiso   1.00
O3     O     0.01100   0.27232   0.40288   0.01267  Uiso   1.00
O4     O     0.06630   0.51763   0.35697   0.01267  Uiso   1.00
O5     O     0.48900   0.59712   0.72768   0.01267  Uiso   1.00
O6     O     0.82720   0.52603   0.28057   0.01267  Uiso   1.00
O7     O     0.26690   0.33833   0.28067   0.01267  Uiso   1.00
O8     O     0.73310   0.66167   0.71933   0.01267  Uiso   1.00
O9     O     0.17280   0.47397   0.71943   0.01267  Uiso   1.00
O10    O     0.98900   0.72768   0.59712   0.01267  Uiso   1.00
O11    O     0.23310   0.71933   0.66167   0.01267  Uiso   1.00
O12    O     0.93370   0.48237   0.64303   0.01267  Uiso   1.00
O13    O     0.43370   0.64303   0.48237   0.01267  Uiso   1.00
O14    O     0.56630   0.35697   0.51763   0.01267  Uiso   1.00
O15    O     0.67280   0.71943   0.47397   0.01267  Uiso   1.00
O16    O     0.76690   0.28067   0.33833   0.01267  Uiso   1.00
