data_ic501898x_si_005_clean
_audit_creation_date              2015-08-19
_audit_creation_method            'Materials Studio'
_symmetry_space_group_name_H-M    'P1'
_symmetry_Int_Tables_number       1
_symmetry_cell_setting            triclinic
loop_
_symmetry_equiv_pos_as_xyz
  x,y,z
_cell_length_a                    10.5027
_cell_length_b                    20.8287
_cell_length_c                    20.8287
_cell_angle_alpha                 86.3556
_cell_angle_beta                  75.3969
_cell_angle_gamma                 75.3971
loop_
_atom_site_label
_atom_site_type_symbol
_atom_site_fract_x
_atom_site_fract_y
_atom_site_fract_z
_atom_site_U_iso_or_equiv
_atom_site_adp_type
_atom_site_occupancy
Mn1    Mn    0.05414   0.72348   0.18600   0.01267  Uiso   1.00
Mn2    Mn    0.75986   0.18600   0.77652   0.01267  Uiso   1.00
Mn3    Mn    0.46362   0.77652   0.31400   0.01267  Uiso   1.00
Mn4    Mn    0.22238   0.31400   0.72348   0.01267  Uiso   1.00
Mn5    Mn    0.94586   0.27652   0.81400   0.01267  Uiso   1.00
Mn6    Mn    0.24014   0.81400   0.22348   0.01267  Uiso   1.00
Mn7    Mn    0.53638   0.22348   0.68600   0.01267  Uiso   1.00
Mn8    Mn    0.77762   0.68600   0.27652   0.01267  Uiso   1.00
H1     H     0.88490   0.87310   0.13470   0.01267  Uiso   1.00
H2     H     0.64910   0.02350   0.59710   0.01267  Uiso   1.00
H3     H     0.47510   0.51560   0.38320   0.01267  Uiso   1.00
H4     H     0.88810   0.16810   0.11510   0.01267  Uiso   1.00
H5     H     0.12610   0.01560   0.88320   0.01267  Uiso   1.00
H6     H     0.98040   0.13470   0.62690   0.01267  Uiso   1.00
H7     H     0.39270   0.62690   0.36530   0.01267  Uiso   1.00
H8     H     0.40490   0.22230   0.02930   0.01267  Uiso   1.00
H9     H     0.05620   0.61510   0.83190   0.01267  Uiso   1.00
H10    H     0.62920   0.29610   0.49230   0.01267  Uiso   1.00
H11    H     0.84350   0.72230   0.52930   0.01267  Uiso   1.00
H12    H     0.37280   0.47070   0.22230   0.01267  Uiso   1.00
H13    H     0.99680   0.11510   0.33190   0.01267  Uiso   1.00
H14    H     0.94380   0.38490   0.16810   0.01267  Uiso   1.00
H15    H     0.24620   0.40290   0.52350   0.01267  Uiso   1.00
H16    H     0.87410   0.70270   0.41790   0.01267  Uiso   1.00
H17    H     0.72500   0.91500   0.56240   0.01267  Uiso   1.00
H18    H     0.67260   0.09710   0.97650   0.01267  Uiso   1.00
H19    H     0.12150   0.50770   0.79610   0.01267  Uiso   1.00
H20    H     0.08240   0.79610   0.99230   0.01267  Uiso   1.00
H21    H     0.49470   0.79730   0.08210   0.01267  Uiso   1.00
H22    H     0.00930   0.11680   0.51560   0.01267  Uiso   1.00
H23    H     0.52490   0.48440   0.61680   0.01267  Uiso   1.00
H24    H     0.87390   0.98440   0.11680   0.01267  Uiso   1.00
H25    H     0.14170   0.38320   0.98440   0.01267  Uiso   1.00
H26    H     0.62720   0.52930   0.77770   0.01267  Uiso   1.00
H27    H     0.32740   0.90290   0.02350   0.01267  Uiso   1.00
H28    H     0.00320   0.88490   0.66810   0.01267  Uiso   1.00
H29    H     0.71260   0.56240   0.58500   0.01267  Uiso   1.00
H30    H     0.15650   0.27770   0.47070   0.01267  Uiso   1.00
H31    H     0.01960   0.86530   0.37310   0.01267  Uiso   1.00
H32    H     0.42320   0.08210   0.70270   0.01267  Uiso   1.00
H33    H     0.57680   0.91790   0.29730   0.01267  Uiso   1.00
H34    H     0.92530   0.99230   0.70390   0.01267  Uiso   1.00
H35    H     0.28740   0.43760   0.41500   0.01267  Uiso   1.00
H36    H     0.85830   0.61680   0.01560   0.01267  Uiso   1.00
H37    H     0.35090   0.97650   0.40290   0.01267  Uiso   1.00
H38    H     0.99070   0.88320   0.48440   0.01267  Uiso   1.00
H39    H     0.70240   0.58500   0.93760   0.01267  Uiso   1.00
H40    H     0.12590   0.29730   0.58210   0.01267  Uiso   1.00
H41    H     0.43420   0.97070   0.72230   0.01267  Uiso   1.00
H42    H     0.60730   0.37310   0.63470   0.01267  Uiso   1.00
H43    H     0.23030   0.52350   0.09710   0.01267  Uiso   1.00
H44    H     0.64000   0.06240   0.08500   0.01267  Uiso   1.00
H45    H     0.29760   0.41500   0.06240   0.01267  Uiso   1.00
H46    H     0.11190   0.83190   0.88490   0.01267  Uiso   1.00
H47    H     0.75380   0.59710   0.47650   0.01267  Uiso   1.00
H48    H     0.87850   0.49230   0.20390   0.01267  Uiso   1.00
H49    H     0.59510   0.77770   0.97070   0.01267  Uiso   1.00
H50    H     0.76970   0.47650   0.90290   0.01267  Uiso   1.00
H51    H     0.29200   0.58210   0.20270   0.01267  Uiso   1.00
H52    H     0.27500   0.08500   0.43760   0.01267  Uiso   1.00
H53    H     0.75800   0.63470   0.12690   0.01267  Uiso   1.00
H54    H     0.07470   0.00770   0.29610   0.01267  Uiso   1.00
H55    H     0.37080   0.70390   0.50770   0.01267  Uiso   1.00
H56    H     0.56580   0.02930   0.27770   0.01267  Uiso   1.00
H57    H     0.50530   0.20270   0.91790   0.01267  Uiso   1.00
H58    H     0.32870   0.66810   0.61510   0.01267  Uiso   1.00
H59    H     0.36000   0.93760   0.91500   0.01267  Uiso   1.00
H60    H     0.67130   0.33190   0.38490   0.01267  Uiso   1.00
H61    H     0.91760   0.20390   0.00770   0.01267  Uiso   1.00
H62    H     0.70800   0.41790   0.79730   0.01267  Uiso   1.00
H63    H     0.11510   0.12690   0.86530   0.01267  Uiso   1.00
H64    H     0.24200   0.36530   0.87310   0.01267  Uiso   1.00
C1     C     0.66791   0.61181   0.50437   0.01267  Uiso   1.00
C2     C     0.26499   0.11658   0.78084   0.01267  Uiso   1.00
C3     C     0.24019   0.88807   0.88815   0.01267  Uiso   1.00
C4     C     0.59245   0.67926   0.41044   0.01267  Uiso   1.00
C5     C     0.94742   0.22164   0.39872   0.01267  Uiso   1.00
C6     C     0.43871   0.52903   0.34675   0.01267  Uiso   1.00
C7     C     0.72003   0.01837   0.19577   0.01267  Uiso   1.00
C8     C     0.82187   0.90432   0.16414   0.01267  Uiso   1.00
C9     C     0.81788   0.68618   0.90746   0.01267  Uiso   1.00
C10    C     0.11517   0.02296   0.32490   0.01267  Uiso   1.00
C11    C     0.21266   0.43053   0.09095   0.01267  Uiso   1.00
C12    C     0.03697   0.52296   0.82490   0.01267  Uiso   1.00
C13    C     0.36253   0.06902   0.73872   0.01267  Uiso   1.00
C14    C     0.72534   0.09254   0.18618   0.01267  Uiso   1.00
C15    C     0.22138   0.98008   0.34576   0.01267  Uiso   1.00
C16    C     0.56845   0.76128   0.06902   0.01267  Uiso   1.00
C17    C     0.99760   0.58738   0.84602   0.01267  Uiso   1.00
C18    C     0.27972   0.00437   0.38819   0.01267  Uiso   1.00
C19    C     0.05258   0.77836   0.60128   0.01267  Uiso   1.00
C20    C     0.44007   0.67510   0.52296   0.01267  Uiso   1.00
C21    C     0.56129   0.47097   0.65325   0.01267  Uiso   1.00
C22    C     0.67027   0.43098   0.76128   0.01267  Uiso   1.00
C23    C     0.12826   0.38815   0.11193   0.01267  Uiso   1.00
C24    C     0.71591   0.11181   0.00437   0.01267  Uiso   1.00
C25    C     0.98601   0.83586   0.40432   0.01267  Uiso   1.00
C26    C     0.75981   0.11193   0.11185   0.01267  Uiso   1.00
C27    C     0.96303   0.47704   0.17510   0.01267  Uiso   1.00
C28    C     0.04722   0.51992   0.15424   0.01267  Uiso   1.00
C29    C     0.27171   0.91044   0.32074   0.01267  Uiso   1.00
C30    C     0.69639   0.09095   0.06947   0.01267  Uiso   1.00
C31    C     0.70528   0.31213   0.73471   0.01267  Uiso   1.00
C32    C     0.78546   0.65325   0.02903   0.01267  Uiso   1.00
C33    C     0.18212   0.31382   0.09254   0.01267  Uiso   1.00
C34    C     0.17813   0.09568   0.83586   0.01267  Uiso   1.00
C35    C     0.56001   0.73471   0.18787   0.01267  Uiso   1.00
C36    C     0.51641   0.61193   0.61185   0.01267  Uiso   1.00
C37    C     0.06778   0.27836   0.10128   0.01267  Uiso   1.00
C38    C     0.55503   0.63939   0.71795   0.01267  Uiso   1.00
C39    C     0.56714   0.65424   0.48008   0.01267  Uiso   1.00
C40    C     0.13813   0.82490   0.97704   0.01267  Uiso   1.00
C41    C     0.27997   0.98163   0.80423   0.01267  Uiso   1.00
C42    C     0.81785   0.17926   0.91044   0.01267  Uiso   1.00
C43    C     0.56583   0.51837   0.69577   0.01267  Uiso   1.00
C44    C     0.32973   0.56902   0.23872   0.01267  Uiso   1.00
C45    C     0.10125   0.26128   0.56902   0.01267  Uiso   1.00
C46    C     0.74788   0.81213   0.23471   0.01267  Uiso   1.00
C47    C     0.98259   0.76529   0.31213   0.01267  Uiso   1.00
C48    C     0.49594   0.59254   0.68618   0.01267  Uiso   1.00
C49    C     0.33759   0.61658   0.28084   0.01267  Uiso   1.00
C50    C     0.73501   0.88342   0.21916   0.01267  Uiso   1.00
C51    C     0.62871   0.74936   0.00222   0.01267  Uiso   1.00
C52    C     0.43417   0.48163   0.30423   0.01267  Uiso   1.00
C53    C     0.84362   0.15398   0.08738   0.01267  Uiso   1.00
C54    C     0.95278   0.48008   0.84576   0.01267  Uiso   1.00
C55    C     0.77862   0.01992   0.65424   0.01267  Uiso   1.00
C56    C     0.25212   0.18787   0.76529   0.01267  Uiso   1.00
C57    C     0.26160   0.30423   0.01837   0.01267  Uiso   1.00
C58    C     0.82772   0.50437   0.88819   0.01267  Uiso   1.00
C59    C     0.79854   0.15424   0.98008   0.01267  Uiso   1.00
C60    C     0.80558   0.78205   0.63939   0.01267  Uiso   1.00
C61    C     0.38157   0.28084   0.88342   0.01267  Uiso   1.00
C62    C     0.27298   0.28205   0.13939   0.01267  Uiso   1.00
C63    C     0.88483   0.97704   0.67510   0.01267  Uiso   1.00
C64    C     0.23414   0.06947   0.40905   0.01267  Uiso   1.00
C65    C     0.61843   0.71916   0.11658   0.01267  Uiso   1.00
C66    C     0.27381   0.33586   0.90432   0.01267  Uiso   1.00
C67    C     0.08420   0.19577   0.48163   0.01267  Uiso   1.00
C68    C     0.87174   0.61185   0.88807   0.01267  Uiso   1.00
C69    C     0.88029   0.75064   0.49778   0.01267  Uiso   1.00
C70    C     0.48359   0.38807   0.38815   0.01267  Uiso   1.00
C71    C     0.03226   0.15325   0.52903   0.01267  Uiso   1.00
C72    C     0.11971   0.24936   0.50222   0.01267  Uiso   1.00
C73    C     0.55993   0.32490   0.47704   0.01267  Uiso   1.00
C74    C     0.78734   0.56947   0.90905   0.01267  Uiso   1.00
C75    C     0.20146   0.84576   0.01992   0.01267  Uiso   1.00
C76    C     0.19442   0.21795   0.36061   0.01267  Uiso   1.00
C77    C     0.63747   0.93098   0.26128   0.01267  Uiso   1.00
C78    C     0.44497   0.36061   0.28205   0.01267  Uiso   1.00
C79    C     0.63093   0.99778   0.24936   0.01267  Uiso   1.00
C80    C     0.89875   0.73872   0.43098   0.01267  Uiso   1.00
C81    C     0.28409   0.88819   0.99563   0.01267  Uiso   1.00
C82    C     0.86187   0.17510   0.02296   0.01267  Uiso   1.00
C83    C     0.18215   0.82074   0.08956   0.01267  Uiso   1.00
C84    C     0.04583   0.21916   0.61658   0.01267  Uiso   1.00
C85    C     0.95417   0.78084   0.38342   0.01267  Uiso   1.00
C86    C     0.93100   0.91262   0.65398   0.01267  Uiso   1.00
C87    C     0.43999   0.26529   0.81213   0.01267  Uiso   1.00
C88    C     0.62193   0.49778   0.74936   0.01267  Uiso   1.00
C89    C     0.73840   0.69577   0.98163   0.01267  Uiso   1.00
C90    C     0.35681   0.40905   0.43053   0.01267  Uiso   1.00
C91    C     0.00240   0.41262   0.15398   0.01267  Uiso   1.00
C92    C     0.39033   0.59568   0.33586   0.01267  Uiso   1.00
C93    C     0.34614   0.60128   0.72164   0.01267  Uiso   1.00
C94    C     0.64319   0.59095   0.56947   0.01267  Uiso   1.00
C95    C     0.72028   0.99563   0.61181   0.01267  Uiso   1.00
C96    C     0.08848   0.18618   0.40746   0.01267  Uiso   1.00
C97    C     0.93222   0.72164   0.89872   0.01267  Uiso   1.00
C98    C     0.43286   0.34576   0.51992   0.01267  Uiso   1.00
C99    C     0.01399   0.16414   0.59568   0.01267  Uiso   1.00
C100   C     0.50406   0.40746   0.31382   0.01267  Uiso   1.00
C101   C     0.00289   0.58956   0.17926   0.01267  Uiso   1.00
C102   C     0.91580   0.80423   0.51837   0.01267  Uiso   1.00
C103   C     0.91152   0.81382   0.59254   0.01267  Uiso   1.00
C104   C     0.87166   0.88815   0.61193   0.01267  Uiso   1.00
C105   C     0.37129   0.25064   0.99778   0.01267  Uiso   1.00
C106   C     0.58498   0.34602   0.41262   0.01267  Uiso   1.00
C107   C     0.72702   0.71795   0.86061   0.01267  Uiso   1.00
C108   C     0.15638   0.84602   0.91262   0.01267  Uiso   1.00
C109   C     0.72829   0.08956   0.67926   0.01267  Uiso   1.00
C110   C     0.60967   0.40432   0.66414   0.01267  Uiso   1.00
C111   C     0.16906   0.89872   0.77836   0.01267  Uiso   1.00
C112   C     0.43155   0.23872   0.93098   0.01267  Uiso   1.00
C113   C     0.65386   0.39872   0.27836   0.01267  Uiso   1.00
C114   C     0.18551   0.02903   0.84675   0.01267  Uiso   1.00
C115   C     0.36907   0.00222   0.75064   0.01267  Uiso   1.00
C116   C     0.66241   0.38342   0.71916   0.01267  Uiso   1.00
C117   C     0.30361   0.90905   0.93053   0.01267  Uiso   1.00
C118   C     0.29472   0.68787   0.26529   0.01267  Uiso   1.00
C119   C     0.81449   0.97097   0.15325   0.01267  Uiso   1.00
C120   C     0.17228   0.49563   0.11181   0.01267  Uiso   1.00
C121   C     0.21454   0.34675   0.97097   0.01267  Uiso   1.00
C122   C     0.99711   0.41044   0.82074   0.01267  Uiso   1.00
C123   C     0.76586   0.93053   0.59095   0.01267  Uiso   1.00
C124   C     0.96774   0.84675   0.47097   0.01267  Uiso   1.00
C125   C     0.27466   0.90746   0.81382   0.01267  Uiso   1.00
C126   C     0.40755   0.32074   0.58956   0.01267  Uiso   1.00
C127   C     0.83094   0.10128   0.22164   0.01267  Uiso   1.00
C128   C     0.33209   0.38819   0.49563   0.01267  Uiso   1.00
C129   C     0.12834   0.11185   0.38807   0.01267  Uiso   1.00
C130   C     0.72619   0.66414   0.09568   0.01267  Uiso   1.00
C131   C     0.06900   0.08738   0.34602   0.01267  Uiso   1.00
C132   C     0.41502   0.65398   0.58738   0.01267  Uiso   1.00
C133   C     0.01741   0.23471   0.68787   0.01267  Uiso   1.00
C134   C     0.58763   0.13939   0.21795   0.01267  Uiso   1.00
C135   C     0.37807   0.50222   0.25064   0.01267  Uiso   1.00
C136   C     0.41237   0.86061   0.78205   0.01267  Uiso   1.00
O1     O     0.23199   0.84427   0.12855   0.01267  Uiso   1.00
O2     O     0.22081   0.89555   0.27683   0.01267  Uiso   1.00
O3     O     0.03694   0.28828   0.70476   0.01267  Uiso   1.00
O4     O     0.25830   0.70476   0.21172   0.01267  Uiso   1.00
O5     O     0.96306   0.71172   0.29524   0.01267  Uiso   1.00
O6     O     0.92374   0.37145   0.84427   0.01267  Uiso   1.00
O7     O     0.07626   0.62855   0.15573   0.01267  Uiso   1.00
O8     O     0.70481   0.65573   0.37145   0.01267  Uiso   1.00
O9     O     0.50236   0.27683   0.60445   0.01267  Uiso   1.00
O10    O     0.10681   0.39555   0.77683   0.01267  Uiso   1.00
O11    O     0.67478   0.79524   0.28828   0.01267  Uiso   1.00
O12    O     0.11636   0.77683   0.10445   0.01267  Uiso   1.00
O13    O     0.39882   0.30425   0.76825   0.01267  Uiso   1.00
O14    O     0.76801   0.15573   0.87145   0.01267  Uiso   1.00
O15    O     0.60118   0.69575   0.23175   0.01267  Uiso   1.00
O16    O     0.83293   0.76825   0.19575   0.01267  Uiso   1.00
O17    O     0.32522   0.20476   0.71172   0.01267  Uiso   1.00
O18    O     0.88364   0.22317   0.89555   0.01267  Uiso   1.00
O19    O     0.89319   0.60445   0.22317   0.01267  Uiso   1.00
O20    O     0.16707   0.23175   0.80425   0.01267  Uiso   1.00
O21    O     0.02868   0.80425   0.26825   0.01267  Uiso   1.00
O22    O     0.47002   0.78828   0.20476   0.01267  Uiso   1.00
O23    O     0.29693   0.73175   0.30425   0.01267  Uiso   1.00
O24    O     0.63946   0.12855   0.65573   0.01267  Uiso   1.00
O25    O     0.97132   0.19575   0.73175   0.01267  Uiso   1.00
O26    O     0.52998   0.21172   0.79524   0.01267  Uiso   1.00
O27    O     0.49764   0.72317   0.39555   0.01267  Uiso   1.00
O28    O     0.74170   0.29524   0.78828   0.01267  Uiso   1.00
O29    O     0.29519   0.34427   0.62855   0.01267  Uiso   1.00
O30    O     0.77919   0.10445   0.72317   0.01267  Uiso   1.00
O31    O     0.36054   0.87145   0.34427   0.01267  Uiso   1.00
O32    O     0.70307   0.26825   0.69575   0.01267  Uiso   1.00
F1     F     0.48648   0.12238   0.20186   0.01267  Uiso   1.00
F2     F     0.31166   0.20186   0.37762   0.01267  Uiso   1.00
F3     F     0.60886   0.70186   0.87762   0.01267  Uiso   1.00
F4     F     0.90477   0.28272   0.42634   0.01267  Uiso   1.00
F5     F     0.78542   0.69786   0.79810   0.01267  Uiso   1.00
F6     F     0.85429   0.18902   0.42900   0.01267  Uiso   1.00
F7     F     0.78138   0.80214   0.70190   0.01267  Uiso   1.00
F8     F     0.51352   0.87762   0.79814   0.01267  Uiso   1.00
F9     F     0.17153   0.83553   0.76961   0.01267  Uiso   1.00
F10    F     0.48548   0.35997   0.21527   0.01267  Uiso   1.00
F11    F     0.14571   0.81098   0.57100   0.01267  Uiso   1.00
F12    F     0.88617   0.78272   0.92634   0.01267  Uiso   1.00
F13    F     0.41648   0.79810   0.80214   0.01267  Uiso   1.00
F14    F     0.95669   0.07100   0.18902   0.01267  Uiso   1.00
F15    F     0.99294   0.73039   0.83553   0.01267  Uiso   1.00
F16    F     0.43928   0.85997   0.71527   0.01267  Uiso   1.00
F17    F     0.58352   0.20190   0.19786   0.01267  Uiso   1.00
F18    F     0.71671   0.42900   0.31098   0.01267  Uiso   1.00
F19    F     0.15455   0.28473   0.35997   0.01267  Uiso   1.00
F20    F     0.33111   0.57366   0.78272   0.01267  Uiso   1.00
F21    F     0.21862   0.19786   0.29810   0.01267  Uiso   1.00
F22    F     0.18749   0.92634   0.71728   0.01267  Uiso   1.00
F23    F     0.84545   0.71527   0.64003   0.01267  Uiso   1.00
F24    F     0.28329   0.57100   0.68902   0.01267  Uiso   1.00
F25    F     0.51452   0.64003   0.78473   0.01267  Uiso   1.00
F26    F     0.56072   0.14003   0.28473   0.01267  Uiso   1.00
F27    F     0.05886   0.76961   0.66447   0.01267  Uiso   1.00
F28    F     0.09523   0.71728   0.57366   0.01267  Uiso   1.00
F29    F     0.04331   0.92900   0.81098   0.01267  Uiso   1.00
F30    F     0.97231   0.31098   0.07100   0.01267  Uiso   1.00
F31    F     0.27667   0.66447   0.73039   0.01267  Uiso   1.00
F32    F     0.68834   0.79814   0.62238   0.01267  Uiso   1.00
F33    F     0.66889   0.42634   0.21728   0.01267  Uiso   1.00
F34    F     0.82847   0.16447   0.23039   0.01267  Uiso   1.00
F35    F     0.48328   0.29810   0.30214   0.01267  Uiso   1.00
F36    F     0.21458   0.30214   0.20190   0.01267  Uiso   1.00
F37    F     0.00706   0.26961   0.16447   0.01267  Uiso   1.00
F38    F     0.68928   0.62238   0.70186   0.01267  Uiso   1.00
F39    F     0.81251   0.07366   0.28272   0.01267  Uiso   1.00
F40    F     0.02769   0.68902   0.92900   0.01267  Uiso   1.00
F41    F     0.29925   0.21527   0.14003   0.01267  Uiso   1.00
F42    F     0.72333   0.33553   0.26961   0.01267  Uiso   1.00
F43    F     0.51672   0.70190   0.69786   0.01267  Uiso   1.00
F44    F     0.31072   0.37762   0.29814   0.01267  Uiso   1.00
F45    F     0.94114   0.23039   0.33553   0.01267  Uiso   1.00
F46    F     0.70075   0.78473   0.85997   0.01267  Uiso   1.00
F47    F     0.39114   0.29814   0.12238   0.01267  Uiso   1.00
F48    F     0.11383   0.21728   0.07366   0.01267  Uiso   1.00
