data_ic5011133_si_003_clean
_audit_creation_date              2015-08-19
_audit_creation_method            'Materials Studio'
_symmetry_space_group_name_H-M    'P1'
_symmetry_Int_Tables_number       1
_symmetry_cell_setting            triclinic
loop_
_symmetry_equiv_pos_as_xyz
  x,y,z
_cell_length_a                    9.3727
_cell_length_b                    11.9865
_cell_length_c                    16.4276
_cell_angle_alpha                 90.0000
_cell_angle_beta                  90.0000
_cell_angle_gamma                 109.6160
loop_
_atom_site_label
_atom_site_type_symbol
_atom_site_fract_x
_atom_site_fract_y
_atom_site_fract_z
_atom_site_U_iso_or_equiv
_atom_site_adp_type
_atom_site_occupancy
Co1    Co    0.87611   0.52069   0.41239   0.01267  Uiso   1.00
Co2    Co    0.62389   0.97931   0.91239   0.01267  Uiso   1.00
Co3    Co    0.37611   0.02069   0.08761   0.01267  Uiso   1.00
Co4    Co    0.12389   0.47931   0.58761   0.01267  Uiso   1.00
H1     H     0.73070   0.26620   0.19570   0.01267  Uiso   1.00
H2     H     0.23070   0.76620   0.30430   0.01267  Uiso   1.00
H3     H     0.01480   0.87950   0.93360   0.01267  Uiso   1.00
H4     H     0.65440   0.80490   0.23220   0.01267  Uiso   1.00
H5     H     0.15440   0.30490   0.26780   0.01267  Uiso   1.00
H6     H     0.51480   0.37950   0.56640   0.01267  Uiso   1.00
H7     H     0.76930   0.23380   0.69570   0.01267  Uiso   1.00
H8     H     0.48520   0.62050   0.43360   0.01267  Uiso   1.00
H9     H     0.34560   0.19510   0.76780   0.01267  Uiso   1.00
H10    H     0.98520   0.12050   0.06640   0.01267  Uiso   1.00
H11    H     0.84560   0.69510   0.73220   0.01267  Uiso   1.00
H12    H     0.26930   0.73380   0.80430   0.01267  Uiso   1.00
C1     C     0.76580   0.82530   0.84400   0.01267  Uiso   1.00
C2     C     0.73420   0.67470   0.34400   0.01267  Uiso   1.00
C3     C     0.70720   0.12790   0.06610   0.01267  Uiso   1.00
C4     C     0.92520   0.72560   0.76860   0.01267  Uiso   1.00
C5     C     0.90800   0.79320   0.83440   0.01267  Uiso   1.00
C6     C     0.79280   0.37210   0.56610   0.01267  Uiso   1.00
C7     C     0.42540   0.87120   0.18590   0.01267  Uiso   1.00
C8     C     0.92540   0.37120   0.31410   0.01267  Uiso   1.00
C9     C     0.29280   0.87210   0.93390   0.01267  Uiso   1.00
C10    C     0.42520   0.22560   0.73140   0.01267  Uiso   1.00
C11    C     0.09200   0.20680   0.16560   0.01267  Uiso   1.00
C12    C     0.43860   0.79700   0.25660   0.01267  Uiso   1.00
C13    C     0.82090   0.25110   0.18840   0.01267  Uiso   1.00
C14    C     0.93860   0.29700   0.24340   0.01267  Uiso   1.00
C15    C     0.16410   0.81710   0.87750   0.01267  Uiso   1.00
C16    C     0.33590   0.68290   0.37750   0.01267  Uiso   1.00
C17    C     0.26580   0.32530   0.65600   0.01267  Uiso   1.00
C18    C     0.57480   0.77440   0.26860   0.01267  Uiso   1.00
C19    C     0.06140   0.70300   0.75660   0.01267  Uiso   1.00
C20    C     0.97320   0.16360   0.11140   0.01267  Uiso   1.00
C21    C     0.23420   0.17470   0.15600   0.01267  Uiso   1.00
C22    C     0.40800   0.29320   0.66560   0.01267  Uiso   1.00
C23    C     0.66410   0.31710   0.62250   0.01267  Uiso   1.00
C24    C     0.83590   0.18290   0.12250   0.01267  Uiso   1.00
C25    C     0.20720   0.62790   0.43390   0.01267  Uiso   1.00
C26    C     0.17910   0.74890   0.81160   0.01267  Uiso   1.00
C27    C     0.52680   0.33640   0.61140   0.01267  Uiso   1.00
C28    C     0.07460   0.62880   0.68590   0.01267  Uiso   1.00
C29    C     0.32090   0.75110   0.31160   0.01267  Uiso   1.00
C30    C     0.57460   0.12880   0.81410   0.01267  Uiso   1.00
C31    C     0.47320   0.66360   0.38860   0.01267  Uiso   1.00
C32    C     0.02680   0.83640   0.88860   0.01267  Uiso   1.00
C33    C     0.59200   0.70680   0.33440   0.01267  Uiso   1.00
C34    C     0.67910   0.24890   0.68840   0.01267  Uiso   1.00
C35    C     0.56140   0.20300   0.74340   0.01267  Uiso   1.00
C36    C     0.07480   0.27440   0.23140   0.01267  Uiso   1.00
O1     O     0.00860   0.38190   0.37470   0.01267  Uiso   1.00
O2     O     0.83210   0.70320   0.29070   0.01267  Uiso   1.00
O3     O     0.82710   0.42360   0.31030   0.01267  Uiso   1.00
O4     O     0.99140   0.61810   0.62530   0.01267  Uiso   1.00
O5     O     0.26760   0.92490   0.99480   0.01267  Uiso   1.00
O6     O     0.08040   0.63580   0.41480   0.01267  Uiso   1.00
O7     O     0.58040   0.13580   0.08520   0.01267  Uiso   1.00
O8     O     0.41960   0.86420   0.91480   0.01267  Uiso   1.00
O9     O     0.67290   0.07640   0.81030   0.01267  Uiso   1.00
O10    O     0.16790   0.29680   0.70930   0.01267  Uiso   1.00
O11    O     0.76760   0.42490   0.50520   0.01267  Uiso   1.00
O12    O     0.73240   0.07510   0.00520   0.01267  Uiso   1.00
O13    O     0.26090   0.38380   0.59210   0.01267  Uiso   1.00
O14    O     0.49140   0.11810   0.87470   0.01267  Uiso   1.00
O15    O     0.32710   0.92360   0.18970   0.01267  Uiso   1.00
O16    O     0.91960   0.36420   0.58520   0.01267  Uiso   1.00
O17    O     0.66790   0.79680   0.79070   0.01267  Uiso   1.00
O18    O     0.33210   0.20320   0.20930   0.01267  Uiso   1.00
O19    O     0.50860   0.88190   0.12530   0.01267  Uiso   1.00
O20    O     0.73910   0.61620   0.40790   0.01267  Uiso   1.00
O21    O     0.23240   0.57510   0.49480   0.01267  Uiso   1.00
O22    O     0.23910   0.11620   0.09210   0.01267  Uiso   1.00
O23    O     0.17290   0.57640   0.68970   0.01267  Uiso   1.00
O24    O     0.76090   0.88380   0.90790   0.01267  Uiso   1.00
