data_ic501477u_si_002_clean
_audit_creation_date              2015-08-19
_audit_creation_method            'Materials Studio'
_symmetry_space_group_name_H-M    'P1'
_symmetry_Int_Tables_number       1
_symmetry_cell_setting            triclinic
loop_
_symmetry_equiv_pos_as_xyz
  x,y,z
_cell_length_a                    18.0208
_cell_length_b                    18.0208
_cell_length_c                    18.3684
_cell_angle_alpha                 69.5197
_cell_angle_beta                  62.0287
_cell_angle_gamma                 99.5140
loop_
_atom_site_label
_atom_site_type_symbol
_atom_site_fract_x
_atom_site_fract_y
_atom_site_fract_z
_atom_site_U_iso_or_equiv
_atom_site_adp_type
_atom_site_occupancy
Zn1    Zn    0.96189   0.81981   0.48808   0.01267  Uiso   1.00
Zn2    Zn    0.19211   0.55003   0.98808   0.01267  Uiso   1.00
H1     H     0.10420   0.66280   0.75880   0.01267  Uiso   1.00
H2     H     0.38910   0.80490   0.15180   0.01267  Uiso   1.00
H3     H     0.62990   0.53870   0.55860   0.01267  Uiso   1.00
H4     H     0.53170   0.53270   0.58640   0.01267  Uiso   1.00
H5     H     0.54330   0.45910   0.65180   0.01267  Uiso   1.00
H6     H     0.03100   0.29140   0.05220   0.01267  Uiso   1.00
H7     H     0.95710   0.66860   0.59710   0.01267  Uiso   1.00
H8     H     0.28290   0.89630   0.21380   0.01267  Uiso   1.00
H9     H     0.11320   0.32100   0.17180   0.01267  Uiso   1.00
H10    H     0.25860   0.49970   0.83270   0.01267  Uiso   1.00
H11    H     0.28900   0.84030   0.73190   0.01267  Uiso   1.00
H12    H     0.23430   0.44580   0.09710   0.01267  Uiso   1.00
H13    H     0.40270   0.81150   0.05860   0.01267  Uiso   1.00
H14    H     0.72920   0.61800   0.54500   0.01267  Uiso   1.00
H15    H     0.04830   0.52360   0.14930   0.01267  Uiso   1.00
H16    H     0.31890   0.92450   0.57840   0.01267  Uiso   1.00
H17    H     0.10250   0.66740   0.31130   0.01267  Uiso   1.00
H18    H     0.82710   0.80240   0.64930   0.01267  Uiso   1.00
H19    H     0.38990   0.50330   0.71380   0.01267  Uiso   1.00
H20    H     0.16760   0.90870   0.33270   0.01267  Uiso   1.00
H21    H     0.07840   0.13700   0.25880   0.01267  Uiso   1.00
H22    H     0.33700   0.72580   0.04500   0.01267  Uiso   1.00
H23    H     0.15640   0.91680   0.55220   0.01267  Uiso   1.00
H24    H     0.38090   0.88190   0.08640   0.01267  Uiso   1.00
H25    H     0.28420   0.73590   0.84830   0.01267  Uiso   1.00
H26    H     0.38680   0.57100   0.93360   0.01267  Uiso   1.00
H27    H     0.14420   0.45170   0.16630   0.01267  Uiso   1.00
H28    H     0.99710   0.10270   0.07840   0.01267  Uiso   1.00
H29    H     0.92780   0.97910   0.23190   0.01267  Uiso   1.00
H30    H     0.24520   0.94270   0.65170   0.01267  Uiso   1.00
H31    H     0.82640   0.86880   0.56680   0.01267  Uiso   1.00
H32    H     0.70530   0.73020   0.65250   0.01267  Uiso   1.00
H33    H     0.52130   0.58620   0.81130   0.01267  Uiso   1.00
H34    H     0.98210   0.18900   0.05830   0.01267  Uiso   1.00
H35    H     0.90560   0.10310   0.15170   0.01267  Uiso   1.00
H36    H     0.00720   0.71500   0.67180   0.01267  Uiso   1.00
H37    H     0.99540   0.67960   0.43360   0.01267  Uiso   1.00
H38    H     0.09790   0.56070   0.88300   0.01267  Uiso   1.00
H39    H     0.88200   0.68950   0.66630   0.01267  Uiso   1.00
H40    H     0.11730   0.64220   0.15250   0.01267  Uiso   1.00
H41    H     0.25270   0.95960   0.55830   0.01267  Uiso   1.00
H42    H     0.05630   0.01910   0.38300   0.01267  Uiso   1.00
H43    H     0.06440   0.60680   0.06680   0.01267  Uiso   1.00
H44    H     0.91580   0.86750   0.34830   0.01267  Uiso   1.00
C1     C     0.56790   0.52010   0.61040   0.01267  Uiso   1.00
C2     C     0.99990   0.06960   0.23810   0.01267  Uiso   1.00
C3     C     0.94780   0.92330   0.33170   0.01267  Uiso   1.00
C4     C     0.23620   0.65810   0.05110   0.01267  Uiso   1.00
C5     C     0.05480   0.83360   0.57260   0.01267  Uiso   1.00
C6     C     0.13950   0.67940   0.77890   0.01267  Uiso   1.00
C7     C     0.56600   0.56960   0.66720   0.01267  Uiso   1.00
C8     C     0.19230   0.76200   0.73810   0.01267  Uiso   1.00
C9     C     0.24500   0.72050   0.83170   0.01267  Uiso   1.00
C10    C     0.22420   0.85270   0.25610   0.01267  Uiso   1.00
C11    C     0.09380   0.37260   0.07260   0.01267  Uiso   1.00
C12    C     0.02990   0.01020   0.35210   0.01267  Uiso   1.00
C13    C     0.79080   0.71270   0.55110   0.01267  Uiso   1.00
C14    C     0.15420   0.85890   0.32850   0.01267  Uiso   1.00
C15    C     0.20200   0.77710   0.25010   0.01267  Uiso   1.00
C16    C     0.95420   0.98910   0.26230   0.01267  Uiso   1.00
C17    C     0.13770   0.61800   0.85210   0.01267  Uiso   1.00
C18    C     0.97050   0.13550   0.10660   0.01267  Uiso   1.00
C19    C     0.31260   0.51730   0.82850   0.01267  Uiso   1.00
C20    C     0.04170   0.08160   0.27890   0.01267  Uiso   1.00
C21    C     0.47280   0.54790   0.75010   0.01267  Uiso   1.00
C22    C     0.01230   0.15380   0.15590   0.01267  Uiso   1.00
C23    C     0.26320   0.76680   0.16720   0.01267  Uiso   1.00
C24    C     0.05230   0.72530   0.38740   0.01267  Uiso   1.00
C25    C     0.38730   0.56030   0.88740   0.01267  Uiso   1.00
C26    C     0.11820   0.71730   0.31470   0.01267  Uiso   1.00
C27    C     0.39120   0.51970   0.75610   0.01267  Uiso   1.00
C28    C     0.25790   0.92290   0.60660   0.01267  Uiso   1.00
C29    C     0.24860   0.78350   0.76230   0.01267  Uiso   1.00
C30    C     0.46800   0.56710   0.81470   0.01267  Uiso   1.00
C31    C     0.36950   0.82170   0.11040   0.01267  Uiso   1.00
C32    C     0.19030   0.83180   0.65590   0.01267  Uiso   1.00
N1     N     0.62840   0.62080   0.65320   0.01267  Uiso   1.00
N2     N     0.04740   0.22430   0.15170   0.01267  Uiso   1.00
N3     N     0.27820   0.70460   0.07620   0.01267  Uiso   1.00
N4     N     0.14380   0.62940   0.10860   0.01267  Uiso   1.00
N5     N     0.17490   0.44440   0.11110   0.01267  Uiso   1.00
N6     N     0.00280   0.74690   0.62790   0.01267  Uiso   1.00
N7     N     0.30970   0.53840   0.89190   0.01267  Uiso   1.00
N8     N     0.94450   0.71400   0.61110   0.01267  Uiso   1.00
N9     N     0.11990   0.86330   0.58420   0.01267  Uiso   1.00
N10    N     0.18930   0.63760   0.87850   0.01267  Uiso   1.00
N11    N     0.98390   0.93220   0.37850   0.01267  Uiso   1.00
N12    N     0.06970   0.79840   0.39190   0.01267  Uiso   1.00
N13    N     0.12520   0.36930   0.12790   0.01267  Uiso   1.00
N14    N     0.71920   0.64560   0.57620   0.01267  Uiso   1.00
N15    N     0.09460   0.57700   0.09120   0.01267  Uiso   1.00
N16    N     0.05250   0.29590   0.08420   0.01267  Uiso   1.00
N17    N     0.12400   0.80090   0.65170   0.01267  Uiso   1.00
N18    N     0.76200   0.74760   0.60860   0.01267  Uiso   1.00
N19    N     0.22600   0.71840   0.15320   0.01267  Uiso   1.00
N20    N     0.83180   0.81420   0.59120   0.01267  Uiso   1.00
O1     O     0.04370   0.88340   0.51470   0.01267  Uiso   1.00
O2     O     0.27900   0.64330   0.98730   0.01267  Uiso   1.00
O3     O     0.10190   0.44160   0.01470   0.01267  Uiso   1.00
O4     O     0.86940   0.73370   0.48730   0.01267  Uiso   1.00
Zn3    Zn    0.80789   0.44997   0.01192   0.01267  Uiso   1.00
Zn4    Zn    0.03811   0.18019   0.51192   0.01267  Uiso   1.00
H45    H     0.17290   0.19760   0.35070   0.01267  Uiso   1.00
H46    H     0.94370   0.98090   0.61700   0.01267  Uiso   1.00
H47    H     0.01790   0.81100   0.94170   0.01267  Uiso   1.00
H48    H     0.96900   0.70860   0.94780   0.01267  Uiso   1.00
H49    H     0.71710   0.10370   0.78620   0.01267  Uiso   1.00
H50    H     0.83240   0.09130   0.66730   0.01267  Uiso   1.00
H51    H     0.59730   0.18850   0.94140   0.01267  Uiso   1.00
H52    H     0.00290   0.89730   0.92160   0.01267  Uiso   1.00
H53    H     0.85580   0.54830   0.83370   0.01267  Uiso   1.00
H54    H     0.89750   0.33260   0.68870   0.01267  Uiso   1.00
H55    H     0.07220   0.02090   0.76810   0.01267  Uiso   1.00
H56    H     0.00460   0.32040   0.56640   0.01267  Uiso   1.00
H57    H     0.09440   0.89690   0.84830   0.01267  Uiso   1.00
H58    H     0.46830   0.46730   0.41360   0.01267  Uiso   1.00
H59    H     0.61320   0.42900   0.06640   0.01267  Uiso   1.00
H60    H     0.74730   0.04040   0.44170   0.01267  Uiso   1.00
H61    H     0.93560   0.39320   0.93320   0.01267  Uiso   1.00
H62    H     0.95170   0.47640   0.85070   0.01267  Uiso   1.00
H63    H     0.61090   0.19510   0.84820   0.01267  Uiso   1.00
H64    H     0.04290   0.33140   0.40290   0.01267  Uiso   1.00
H65    H     0.08420   0.13250   0.65170   0.01267  Uiso   1.00
H66    H     0.84360   0.08320   0.44780   0.01267  Uiso   1.00
H67    H     0.99280   0.28500   0.32820   0.01267  Uiso   1.00
H68    H     0.88680   0.67900   0.82820   0.01267  Uiso   1.00
H69    H     0.89580   0.33720   0.24120   0.01267  Uiso   1.00
H70    H     0.74140   0.50030   0.16730   0.01267  Uiso   1.00
H71    H     0.37010   0.46130   0.44140   0.01267  Uiso   1.00
H72    H     0.11800   0.31050   0.33370   0.01267  Uiso   1.00
H73    H     0.88270   0.35780   0.84750   0.01267  Uiso   1.00
H74    H     0.27080   0.38200   0.45500   0.01267  Uiso   1.00
H75    H     0.29470   0.26980   0.34750   0.01267  Uiso   1.00
H76    H     0.71100   0.15970   0.26810   0.01267  Uiso   1.00
H77    H     0.75480   0.05730   0.34830   0.01267  Uiso   1.00
H78    H     0.45670   0.54090   0.34820   0.01267  Uiso   1.00
H79    H     0.71580   0.26410   0.15170   0.01267  Uiso   1.00
H80    H     0.68110   0.07550   0.42160   0.01267  Uiso   1.00
H81    H     0.76570   0.55420   0.90290   0.01267  Uiso   1.00
H82    H     0.17360   0.13120   0.43320   0.01267  Uiso   1.00
H83    H     0.47870   0.41380   0.18870   0.01267  Uiso   1.00
H84    H     0.92160   0.86300   0.74120   0.01267  Uiso   1.00
H85    H     0.90210   0.43930   0.11700   0.01267  Uiso   1.00
H86    H     0.66300   0.27420   0.95500   0.01267  Uiso   1.00
H87    H     0.61010   0.49670   0.28620   0.01267  Uiso   1.00
H88    H     0.61910   0.11810   0.91360   0.01267  Uiso   1.00
C33    C     0.53200   0.43290   0.18530   0.01267  Uiso   1.00
C34    C     0.60880   0.48030   0.24390   0.01267  Uiso   1.00
C35    C     0.05220   0.07670   0.66830   0.01267  Uiso   1.00
C36    C     0.80970   0.16820   0.34410   0.01267  Uiso   1.00
C37    C     0.79800   0.22290   0.74990   0.01267  Uiso   1.00
C38    C     0.63050   0.17830   0.88960   0.01267  Uiso   1.00
C39    C     0.76380   0.34190   0.94890   0.01267  Uiso   1.00
C40    C     0.77580   0.14730   0.74390   0.01267  Uiso   1.00
C41    C     0.04580   0.01090   0.73770   0.01267  Uiso   1.00
C42    C     0.90620   0.62740   0.92740   0.01267  Uiso   1.00
C43    C     0.75140   0.21650   0.23770   0.01267  Uiso   1.00
C44    C     0.95830   0.91840   0.72110   0.01267  Uiso   1.00
C45    C     0.97010   0.98980   0.64790   0.01267  Uiso   1.00
C46    C     0.02950   0.86450   0.89340   0.01267  Uiso   1.00
C47    C     0.68740   0.48270   0.17150   0.01267  Uiso   1.00
C48    C     0.98770   0.84620   0.84410   0.01267  Uiso   1.00
C49    C     0.80770   0.23800   0.26190   0.01267  Uiso   1.00
C50    C     0.84580   0.14110   0.67150   0.01267  Uiso   1.00
C51    C     0.94520   0.16640   0.42740   0.01267  Uiso   1.00
C52    C     0.88180   0.28270   0.68530   0.01267  Uiso   1.00
C53    C     0.43400   0.43040   0.33280   0.01267  Uiso   1.00
C54    C     0.52720   0.45210   0.24990   0.01267  Uiso   1.00
C55    C     0.00010   0.93040   0.76190   0.01267  Uiso   1.00
C56    C     0.86230   0.38200   0.14790   0.01267  Uiso   1.00
C57    C     0.94770   0.27470   0.61260   0.01267  Uiso   1.00
C58    C     0.75500   0.27950   0.16830   0.01267  Uiso   1.00
C59    C     0.86050   0.32060   0.22110   0.01267  Uiso   1.00
C60    C     0.61270   0.43970   0.11260   0.01267  Uiso   1.00
C61    C     0.74210   0.07710   0.39340   0.01267  Uiso   1.00
C62    C     0.20920   0.28730   0.44890   0.01267  Uiso   1.00
C63    C     0.43210   0.47990   0.38960   0.01267  Uiso   1.00
C64    C     0.73680   0.23320   0.83280   0.01267  Uiso   1.00
N21    N     0.90540   0.42300   0.90880   0.01267  Uiso   1.00
N22    N     0.69030   0.46160   0.10810   0.01267  Uiso   1.00
N23    N     0.23800   0.25240   0.39140   0.01267  Uiso   1.00
N24    N     0.87480   0.63070   0.87210   0.01267  Uiso   1.00
N25    N     0.81070   0.36240   0.12150   0.01267  Uiso   1.00
N26    N     0.72180   0.29540   0.92380   0.01267  Uiso   1.00
N27    N     0.88010   0.13670   0.41580   0.01267  Uiso   1.00
N28    N     0.16820   0.18580   0.40880   0.01267  Uiso   1.00
N29    N     0.37160   0.37920   0.34680   0.01267  Uiso   1.00
N30    N     0.93030   0.20160   0.60810   0.01267  Uiso   1.00
N31    N     0.01610   0.06780   0.62150   0.01267  Uiso   1.00
N32    N     0.87600   0.19910   0.34830   0.01267  Uiso   1.00
N33    N     0.95260   0.77570   0.84830   0.01267  Uiso   1.00
N34    N     0.28080   0.35440   0.42380   0.01267  Uiso   1.00
N35    N     0.82510   0.55560   0.88890   0.01267  Uiso   1.00
N36    N     0.77400   0.28160   0.84680   0.01267  Uiso   1.00
N37    N     0.85620   0.37060   0.89140   0.01267  Uiso   1.00
N38    N     0.94750   0.70410   0.91580   0.01267  Uiso   1.00
N39    N     0.99720   0.25310   0.37210   0.01267  Uiso   1.00
N40    N     0.05550   0.28600   0.38890   0.01267  Uiso   1.00
O5     O     0.95630   0.11660   0.48530   0.01267  Uiso   1.00
O6     O     0.72100   0.35670   0.01270   0.01267  Uiso   1.00
O7     O     0.89810   0.55840   0.98530   0.01267  Uiso   1.00
O8     O     0.13060   0.26630   0.51270   0.01267  Uiso   1.00
