data_ic5011133_si_004_clean
_audit_creation_date              2015-08-19
_audit_creation_method            'Materials Studio'
_symmetry_space_group_name_H-M    'P1'
_symmetry_Int_Tables_number       1
_symmetry_cell_setting            triclinic
loop_
_symmetry_equiv_pos_as_xyz
  x,y,z
_cell_length_a                    15.3552
_cell_length_b                    15.3552
_cell_length_c                    16.9580
_cell_angle_alpha                 67.5030
_cell_angle_beta                  67.5030
_cell_angle_gamma                 64.4311
loop_
_atom_site_label
_atom_site_type_symbol
_atom_site_fract_x
_atom_site_fract_y
_atom_site_fract_z
_atom_site_U_iso_or_equiv
_atom_site_adp_type
_atom_site_occupancy
Co1    Co    0.45822   0.26710   0.38258   0.01267  Uiso   1.00
Co2    Co    0.73290   0.54178   0.11742   0.01267  Uiso   1.00
Co3    Co    0.34301   0.65699   0.75000   0.01267  Uiso   1.00
Co4    Co    0.26710   0.45822   0.88258   0.01267  Uiso   1.00
Co5    Co    0.65699   0.34301   0.25000   0.01267  Uiso   1.00
Co6    Co    0.54178   0.73290   0.61742   0.01267  Uiso   1.00
H1     H     0.96300   0.63520   0.94440   0.01267  Uiso   1.00
H2     H     0.43600   0.34240   0.61250   0.01267  Uiso   1.00
H3     H     0.68430   0.40550   0.45070   0.01267  Uiso   1.00
H4     H     0.36480   0.03700   0.55560   0.01267  Uiso   1.00
H5     H     0.89510   0.75590   0.35860   0.01267  Uiso   1.00
H6     H     0.03700   0.36480   0.05560   0.01267  Uiso   1.00
H7     H     0.04590   0.84070   0.72260   0.01267  Uiso   1.00
H8     H     0.34240   0.43600   0.11250   0.01267  Uiso   1.00
H9     H     0.56400   0.65760   0.38750   0.01267  Uiso   1.00
H10    H     0.24410   0.10490   0.14140   0.01267  Uiso   1.00
H11    H     0.31570   0.59450   0.54930   0.01267  Uiso   1.00
H12    H     0.40550   0.68430   0.95070   0.01267  Uiso   1.00
H13    H     0.84070   0.04590   0.22260   0.01267  Uiso   1.00
H14    H     0.59450   0.31570   0.04930   0.01267  Uiso   1.00
H15    H     0.63520   0.96300   0.44440   0.01267  Uiso   1.00
H16    H     0.10490   0.24410   0.64140   0.01267  Uiso   1.00
H17    H     0.95410   0.15930   0.27740   0.01267  Uiso   1.00
H18    H     0.75590   0.89510   0.85860   0.01267  Uiso   1.00
H19    H     0.49570   0.54750   0.17350   0.01267  Uiso   1.00
H20    H     0.15930   0.95410   0.77740   0.01267  Uiso   1.00
H21    H     0.45250   0.50430   0.32650   0.01267  Uiso   1.00
H22    H     0.65760   0.56400   0.88750   0.01267  Uiso   1.00
H23    H     0.54750   0.49570   0.67350   0.01267  Uiso   1.00
H24    H     0.50430   0.45250   0.82650   0.01267  Uiso   1.00
C1     C     0.61060   0.56320   0.26790   0.01267  Uiso   1.00
C2     C     0.52140   0.57900   0.34500   0.01267  Uiso   1.00
C3     C     0.37130   0.48390   0.09870   0.01267  Uiso   1.00
C4     C     0.76590   0.73070   0.99080   0.01267  Uiso   1.00
C5     C     0.18050   0.00370   0.73110   0.01267  Uiso   1.00
C6     C     0.02150   0.72450   0.83130   0.01267  Uiso   1.00
C7     C     0.23840   0.15300   0.58590   0.01267  Uiso   1.00
C8     C     0.65670   0.12750   0.31710   0.01267  Uiso   1.00
C9     C     0.81950   0.99630   0.26890   0.01267  Uiso   1.00
C10    C     0.85260   0.82200   0.35160   0.01267  Uiso   1.00
C11    C     0.34330   0.87250   0.68290   0.01267  Uiso   1.00
C12    C     0.45660   0.62880   0.05900   0.01267  Uiso   1.00
C13    C     0.17800   0.14740   0.14840   0.01267  Uiso   1.00
C14    C     0.94680   0.69680   0.90340   0.01267  Uiso   1.00
C15    C     0.56280   0.36540   0.52050   0.01267  Uiso   1.00
C16    C     0.56320   0.61060   0.76790   0.01267  Uiso   1.00
C17    C     0.46310   0.55110   0.13540   0.01267  Uiso   1.00
C18    C     0.26930   0.23410   0.50920   0.01267  Uiso   1.00
C19    C     0.97850   0.27550   0.16870   0.01267  Uiso   1.00
C20    C     0.14740   0.17800   0.64840   0.01267  Uiso   1.00
C21    C     0.10400   0.12020   0.22160   0.01267  Uiso   1.00
C22    C     0.50620   0.70580   0.03060   0.01267  Uiso   1.00
C23    C     0.12750   0.65670   0.81710   0.01267  Uiso   1.00
C24    C     0.37120   0.54340   0.44100   0.01267  Uiso   1.00
C25    C     0.56170   0.32250   0.45530   0.01267  Uiso   1.00
C26    C     0.62870   0.51610   0.90130   0.01267  Uiso   1.00
C27    C     0.30320   0.05320   0.59660   0.01267  Uiso   1.00
C28    C     0.36540   0.56280   0.02050   0.01267  Uiso   1.00
C29    C     0.05320   0.30320   0.09660   0.01267  Uiso   1.00
C30    C     0.36720   0.59140   0.49760   0.01267  Uiso   1.00
C31    C     0.63460   0.43720   0.97950   0.01267  Uiso   1.00
C32    C     0.29420   0.49380   0.46940   0.01267  Uiso   1.00
C33    C     0.87250   0.34330   0.18290   0.01267  Uiso   1.00
C34    C     0.51610   0.62870   0.40130   0.01267  Uiso   1.00
C35    C     0.32250   0.56170   0.95530   0.01267  Uiso   1.00
C36    C     0.89600   0.87980   0.77840   0.01267  Uiso   1.00
C37    C     0.97640   0.86760   0.20700   0.01267  Uiso   1.00
C38    C     0.57900   0.52140   0.84500   0.01267  Uiso   1.00
C39    C     0.70580   0.50620   0.53060   0.01267  Uiso   1.00
C40    C     0.63280   0.40860   0.50240   0.01267  Uiso   1.00
C41    C     0.67750   0.43830   0.04470   0.01267  Uiso   1.00
C42    C     0.84700   0.76160   0.91410   0.01267  Uiso   1.00
C43    C     0.23410   0.26930   0.00920   0.01267  Uiso   1.00
C44    C     0.55110   0.46310   0.63540   0.01267  Uiso   1.00
C45    C     0.48390   0.37130   0.59870   0.01267  Uiso   1.00
C46    C     0.38940   0.43680   0.73210   0.01267  Uiso   1.00
C47    C     0.27550   0.97850   0.66870   0.01267  Uiso   1.00
C48    C     0.13240   0.02360   0.29300   0.01267  Uiso   1.00
C49    C     0.44890   0.53690   0.36460   0.01267  Uiso   1.00
C50    C     0.00370   0.18050   0.23110   0.01267  Uiso   1.00
C51    C     0.76160   0.84700   0.41410   0.01267  Uiso   1.00
C52    C     0.40860   0.63280   0.00240   0.01267  Uiso   1.00
C53    C     0.59140   0.36720   0.99760   0.01267  Uiso   1.00
C54    C     0.15300   0.23840   0.08590   0.01267  Uiso   1.00
C55    C     0.43720   0.63460   0.47950   0.01267  Uiso   1.00
C56    C     0.87980   0.89600   0.27840   0.01267  Uiso   1.00
C57    C     0.62880   0.45660   0.55900   0.01267  Uiso   1.00
C58    C     0.69680   0.94680   0.40340   0.01267  Uiso   1.00
C59    C     0.86760   0.97640   0.70700   0.01267  Uiso   1.00
C60    C     0.99630   0.81950   0.76890   0.01267  Uiso   1.00
C61    C     0.02360   0.13240   0.79300   0.01267  Uiso   1.00
C62    C     0.47860   0.42100   0.65500   0.01267  Uiso   1.00
C63    C     0.54340   0.37120   0.94100   0.01267  Uiso   1.00
C64    C     0.72450   0.02150   0.33130   0.01267  Uiso   1.00
C65    C     0.43680   0.38940   0.23210   0.01267  Uiso   1.00
C66    C     0.73070   0.76590   0.49080   0.01267  Uiso   1.00
C67    C     0.12020   0.10400   0.72160   0.01267  Uiso   1.00
C68    C     0.43830   0.67750   0.54470   0.01267  Uiso   1.00
C69    C     0.42100   0.47860   0.15500   0.01267  Uiso   1.00
C70    C     0.49380   0.29420   0.96940   0.01267  Uiso   1.00
C71    C     0.82200   0.85260   0.85160   0.01267  Uiso   1.00
C72    C     0.53690   0.44890   0.86460   0.01267  Uiso   1.00
O1     O     0.99820   0.06080   0.85220   0.01267  Uiso   1.00
O2     O     0.35828   0.20448   0.46070   0.01267  Uiso   1.00
O3     O     0.69147   0.19347   0.26250   0.01267  Uiso   1.00
O4     O     0.77700   0.02300   0.70930   0.01267  Uiso   1.00
O5     O     0.93920   0.00180   0.64780   0.01267  Uiso   1.00
O6     O     0.86016   0.43376   0.13590   0.01267  Uiso   1.00
O7     O     0.37452   0.49852   0.77360   0.01267  Uiso   1.00
O8     O     0.63203   0.32523   0.38320   0.01267  Uiso   1.00
O9     O     0.02300   0.77700   0.20930   0.01267  Uiso   1.00
O10    O     0.70950   0.50730   0.02670   0.01267  Uiso   1.00
O11    O     0.29050   0.49270   0.97330   0.01267  Uiso   1.00
O12    O     0.67873   0.78953   0.00100   0.01267  Uiso   1.00
O13    O     0.79552   0.64172   0.03930   0.01267  Uiso   1.00
O14    O     0.49852   0.37452   0.27360   0.01267  Uiso   1.00
O15    O     0.80653   0.30853   0.23750   0.01267  Uiso   1.00
O16    O     0.36797   0.67477   0.61680   0.01267  Uiso   1.00
O17    O     0.66728   0.61288   0.24000   0.01267  Uiso   1.00
O18    O     0.50148   0.62548   0.72640   0.01267  Uiso   1.00
O19    O     0.13984   0.56624   0.86410   0.01267  Uiso   1.00
O20    O     0.67477   0.36797   0.11680   0.01267  Uiso   1.00
O21    O     0.49270   0.29050   0.47330   0.01267  Uiso   1.00
O22    O     0.44212   0.30772   0.91570   0.01267  Uiso   1.00
O23    O     0.43376   0.86016   0.63590   0.01267  Uiso   1.00
O24    O     0.61288   0.66728   0.74000   0.01267  Uiso   1.00
O25    O     0.06080   0.99820   0.35220   0.01267  Uiso   1.00
O26    O     0.33272   0.38712   0.76000   0.01267  Uiso   1.00
O27    O     0.56624   0.13984   0.36410   0.01267  Uiso   1.00
O28    O     0.78953   0.67873   0.50100   0.01267  Uiso   1.00
O29    O     0.69228   0.55788   0.58430   0.01267  Uiso   1.00
O30    O     0.00180   0.93920   0.14780   0.01267  Uiso   1.00
O31    O     0.19347   0.69147   0.76250   0.01267  Uiso   1.00
O32    O     0.50260   0.22580   0.03460   0.01267  Uiso   1.00
O33    O     0.38712   0.33272   0.26000   0.01267  Uiso   1.00
O34    O     0.62548   0.50148   0.22640   0.01267  Uiso   1.00
O35    O     0.77420   0.49740   0.46540   0.01267  Uiso   1.00
O36    O     0.22300   0.97700   0.29070   0.01267  Uiso   1.00
O37    O     0.22580   0.50260   0.53460   0.01267  Uiso   1.00
O38    O     0.20448   0.35828   0.96070   0.01267  Uiso   1.00
O39    O     0.49740   0.77420   0.96540   0.01267  Uiso   1.00
O40    O     0.30772   0.44212   0.41570   0.01267  Uiso   1.00
O41    O     0.50730   0.70950   0.52670   0.01267  Uiso   1.00
O42    O     0.30853   0.80653   0.73750   0.01267  Uiso   1.00
O43    O     0.55788   0.69228   0.08430   0.01267  Uiso   1.00
O44    O     0.32523   0.63203   0.88320   0.01267  Uiso   1.00
O45    O     0.97700   0.22300   0.79070   0.01267  Uiso   1.00
O46    O     0.64172   0.79552   0.53930   0.01267  Uiso   1.00
O47    O     0.32127   0.21047   0.99900   0.01267  Uiso   1.00
O48    O     0.21047   0.32127   0.49900   0.01267  Uiso   1.00
