data_image0
_cell_length_a       11.3127
_cell_length_b       14.687
_cell_length_c       14.766
_cell_angle_alpha    85.881
_cell_angle_beta     79.811
_cell_angle_gamma    70.3

_symmetry_space_group_name_H-M    "P 1"
_symmetry_int_tables_number       1

loop_
  _symmetry_equiv_pos_as_xyz
  'x, y, z'

loop_
  _atom_site_label
  _atom_site_occupancy
  _atom_site_fract_x
  _atom_site_fract_y
  _atom_site_fract_z
  _atom_site_thermal_displace_type
  _atom_site_B_iso_or_equiv
  _atom_site_type_symbol
  Pt1      1.0000 0.25720  0.75276  0.50498  Biso   1.000  Pt
  Pt2      1.0000 0.33002  0.75755  0.00565  Biso   1.000  Pt
  Se1      1.0000 0.08101  0.63685  0.09421  Biso   1.000  Se
  Se2      1.0000 0.99917  0.37894  0.39289  Biso   1.000  Se
  Fe1      1.0000 0.54180  0.50671  0.25200  Biso   1.000  Fe
  Fe2      1.0000 0.10576  0.02126  0.25236  Biso   1.000  Fe
  N1       1.0000 0.70940  0.55390  0.19920  Biso   1.000  N
  N2       1.0000 0.94930  0.86740  0.85950  Biso   1.000  N
  N3       1.0000 0.37520  0.45720  0.30210  Biso   1.000  N
  N4       1.0000 0.07140  0.17120  0.64920  Biso   1.000  N
  N5       1.0000 0.46370  0.61560  0.35810  Biso   1.000  N
  N6       1.0000 0.35280  0.59380  0.65420  Biso   1.000  N
  N7       1.0000 0.04020  0.88350  0.65080  Biso   1.000  N
  N8       1.0000 0.16680  0.91560  0.35750  Biso   1.000  N
  N9       1.0000 0.24040  0.92290  0.15120  Biso   1.000  N
  N10      1.0000 0.23380  0.91810  0.85790  Biso   1.000  N
  N11      1.0000 0.39920  0.59920  0.85400  Biso   1.000  N
  N12      1.0000 0.43740  0.60640  0.15750  Biso   1.000  N
  C1       1.0000 0.74150  0.57080  0.10920  Biso   1.000  C
  H1       1.0000 0.68960  0.56520  0.06810  Biso   1.000  H
  C2       1.0000 0.84940  0.59660  0.07430  Biso   1.000  C
  H2       1.0000 0.86980  0.60730  0.01080  Biso   1.000  H
  C3       1.0000 0.92670  0.60640  0.13510  Biso   1.000  C
  C4       1.0000 0.89230  0.58950  0.22680  Biso   1.000  C
  H3       1.0000 0.94160  0.59560  0.26960  Biso   1.000  H
  C5       1.0000 0.78370  0.56340  0.25660  Biso   1.000  C
  H4       1.0000 0.76180  0.55190  0.31980  Biso   1.000  H
  C6       1.0000 0.02250  0.72940  0.99900  Biso   1.000  C
  C7       1.0000 0.96580  0.82510  0.01960  Biso   1.000  C
  H5       1.0000 0.95150  0.84580  0.08050  Biso   1.000  H
  C8       1.0000 0.92950  0.89180  0.94900  Biso   1.000  C
  H6       1.0000 0.88890  0.95720  0.96440  Biso   1.000  H
  C9       1.0000 0.00870  0.77300  0.83990  Biso   1.000  C
  H7       1.0000 0.02500  0.75390  0.77820  Biso   1.000  H
  C10      1.0000 0.04690  0.70230  0.90700  Biso   1.000  C
  H8       1.0000 0.08860  0.63720  0.89050  Biso   1.000  H
  C11      1.0000 0.33880  0.43690  0.39090  Biso   1.000  C
  H9       1.0000 0.38940  0.44050  0.43370  Biso   1.000  H
  C12      1.0000 0.23140  0.41090  0.42370  Biso   1.000  C
  H10      1.0000 0.21020  0.39770  0.48650  Biso   1.000  H
  C13      1.0000 0.15600  0.40480  0.36030  Biso   1.000  C
  C14      1.0000 0.19490  0.42340  0.26700  Biso   1.000  C
  H11      1.0000 0.14780  0.41830  0.22220  Biso   1.000  H
  C15      1.0000 0.30140  0.44890  0.24210  Biso   1.000  C
  H12      1.0000 0.32530  0.46150  0.17950  Biso   1.000  H
  C16      1.0000 0.03410  0.29960  0.50050  Biso   1.000  C
  C17      1.0000 0.95920  0.32230  0.58280  Biso   1.000  C
  H13      1.0000 0.89460  0.38270  0.59140  Biso   1.000  H
  C18      1.0000 0.97820  0.25510  0.65560  Biso   1.000  C
  H14      1.0000 0.92200  0.27050  0.71160  Biso   1.000  H
  C19      1.0000 0.14340  0.14550  0.56450  Biso   1.000  C
  H15      1.0000 0.20530  0.08370  0.55750  Biso   1.000  H
  C20      1.0000 0.12880  0.20690  0.48840  Biso   1.000  C
  H16      1.0000 0.17970  0.18780  0.43090  Biso   1.000  H
  C21      1.0000 0.39020  0.66780  0.41120  Biso   1.000  C
  C22      1.0000 0.31330  0.65160  0.60150  Biso   1.000  C
  C23      1.0000 0.11980  0.83640  0.59790  Biso   1.000  C
  C24      1.0000 0.20130  0.85600  0.41010  Biso   1.000  C
  C25      1.0000 0.27670  0.86100  0.09900  Biso   1.000  C
  C26      1.0000 0.26710  0.85820  0.91150  Biso   1.000  C
  C27      1.0000 0.37430  0.65600  0.91080  Biso   1.000  C
  C28      1.0000 0.39690  0.66060  0.10060  Biso   1.000  C
  Pt3      1.0000 0.74280  0.24724  0.49502  Biso   1.000  Pt
  Pt4      1.0000 0.66998  0.24245  0.99435  Biso   1.000  Pt
  Se3      1.0000 0.91899  0.36315  0.90579  Biso   1.000  Se
  Se4      1.0000 0.00083  0.62106  0.60711  Biso   1.000  Se
  Fe3      1.0000 0.45820  0.49329  0.74800  Biso   1.000  Fe
  Fe4      1.0000 0.89424  0.97874  0.74764  Biso   1.000  Fe
  N13      1.0000 0.29060  0.44610  0.80080  Biso   1.000  N
  N14      1.0000 0.05070  0.13260  0.14050  Biso   1.000  N
  N15      1.0000 0.62480  0.54280  0.69790  Biso   1.000  N
  N16      1.0000 0.92860  0.82880  0.35080  Biso   1.000  N
  N17      1.0000 0.53630  0.38440  0.64190  Biso   1.000  N
  N18      1.0000 0.64720  0.40620  0.34580  Biso   1.000  N
  N19      1.0000 0.95980  0.11650  0.34920  Biso   1.000  N
  N20      1.0000 0.83320  0.08440  0.64250  Biso   1.000  N
  N21      1.0000 0.75960  0.07710  0.84880  Biso   1.000  N
  N22      1.0000 0.76620  0.08190  0.14210  Biso   1.000  N
  N23      1.0000 0.60080  0.40080  0.14600  Biso   1.000  N
  N24      1.0000 0.56260  0.39360  0.84250  Biso   1.000  N
  C29      1.0000 0.25850  0.42920  0.89080  Biso   1.000  C
  H17      1.0000 0.31040  0.43480  0.93190  Biso   1.000  H
  C30      1.0000 0.15060  0.40340  0.92570  Biso   1.000  C
  H18      1.0000 0.13020  0.39270  0.98920  Biso   1.000  H
  C31      1.0000 0.07330  0.39360  0.86490  Biso   1.000  C
  C32      1.0000 0.10770  0.41050  0.77320  Biso   1.000  C
  H19      1.0000 0.05840  0.40440  0.73040  Biso   1.000  H
  C33      1.0000 0.21630  0.43660  0.74340  Biso   1.000  C
  H20      1.0000 0.23820  0.44810  0.68020  Biso   1.000  H
  C34      1.0000 0.97750  0.27060  0.00100  Biso   1.000  C
  C35      1.0000 0.03420  0.17490  0.98040  Biso   1.000  C
  H21      1.0000 0.04850  0.15420  0.91950  Biso   1.000  H
  C36      1.0000 0.07050  0.10820  0.05100  Biso   1.000  C
  H22      1.0000 0.11110  0.04280  0.03560  Biso   1.000  H
  C37      1.0000 0.99130  0.22700  0.16010  Biso   1.000  C
  H23      1.0000 0.97500  0.24610  0.22180  Biso   1.000  H
  C38      1.0000 0.95310  0.29770  0.09300  Biso   1.000  C
  H24      1.0000 0.91140  0.36280  0.10950  Biso   1.000  H
  C39      1.0000 0.66120  0.56310  0.60910  Biso   1.000  C
  H25      1.0000 0.61060  0.55950  0.56630  Biso   1.000  H
  C40      1.0000 0.76860  0.58910  0.57630  Biso   1.000  C
  H26      1.0000 0.78980  0.60230  0.51350  Biso   1.000  H
  C41      1.0000 0.84400  0.59520  0.63970  Biso   1.000  C
  C42      1.0000 0.80510  0.57660  0.73300  Biso   1.000  C
  H27      1.0000 0.85220  0.58170  0.77780  Biso   1.000  H
  C43      1.0000 0.69860  0.55110  0.75790  Biso   1.000  C
  H28      1.0000 0.67470  0.53850  0.82050  Biso   1.000  H
  C44      1.0000 0.96590  0.70040  0.49950  Biso   1.000  C
  C45      1.0000 0.04080  0.67770  0.41720  Biso   1.000  C
  H29      1.0000 0.10540  0.61730  0.40860  Biso   1.000  H
  C46      1.0000 0.02180  0.74490  0.34440  Biso   1.000  C
  H30      1.0000 0.07800  0.72950  0.28840  Biso   1.000  H
  C47      1.0000 0.85660  0.85450  0.43550  Biso   1.000  C
  H31      1.0000 0.79470  0.91630  0.44250  Biso   1.000  H
  C48      1.0000 0.87120  0.79310  0.51160  Biso   1.000  C
  H32      1.0000 0.82030  0.81220  0.56910  Biso   1.000  H
  C49      1.0000 0.60980  0.33220  0.58880  Biso   1.000  C
  C50      1.0000 0.68670  0.34840  0.39850  Biso   1.000  C
  C51      1.0000 0.88020  0.16360  0.40210  Biso   1.000  C
  C52      1.0000 0.79870  0.14400  0.58990  Biso   1.000  C
  C53      1.0000 0.72330  0.13900  0.90100  Biso   1.000  C
  C54      1.0000 0.73290  0.14180  0.08850  Biso   1.000  C
  C55      1.0000 0.62570  0.34400  0.08920  Biso   1.000  C
  C56      1.0000 0.60310  0.33940  0.89940  Biso   1.000  C
