data_image0
_cell_length_a       23.1439
_cell_length_b       23.1439
_cell_length_c       23.1439
_cell_angle_alpha    60
_cell_angle_beta     60
_cell_angle_gamma    60

_symmetry_space_group_name_H-M    "P 1"
_symmetry_int_tables_number       1

loop_
  _symmetry_equiv_pos_as_xyz
  'x, y, z'

loop_
  _atom_site_label
  _atom_site_occupancy
  _atom_site_fract_x
  _atom_site_fract_y
  _atom_site_fract_z
  _atom_site_thermal_displace_type
  _atom_site_B_iso_or_equiv
  _atom_site_type_symbol
  Zr1      1.0000 0.57549  0.57549  0.42451  Biso   1.000  Zr
  Zr2      1.0000 0.42451  0.42451  0.57549  Biso   1.000  Zr
  Zr3      1.0000 0.42451  0.57549  0.57549  Biso   1.000  Zr
  Zr4      1.0000 0.57549  0.42451  0.42451  Biso   1.000  Zr
  Zr5      1.0000 0.57549  0.42451  0.57549  Biso   1.000  Zr
  Zr6      1.0000 0.42451  0.57549  0.42451  Biso   1.000  Zr
  O1       1.0000 0.53662  0.53662  0.39014  Biso   1.000  O
  H1       1.0000 0.55173  0.55173  0.34480  Biso   1.000  H
  O2       1.0000 0.53662  0.53662  0.53662  Biso   1.000  O
  H2       1.0000 0.55173  0.55173  0.55173  Biso   1.000  H
  O3       1.0000 0.39014  0.53662  0.53662  Biso   1.000  O
  H3       1.0000 0.34480  0.55173  0.55173  Biso   1.000  H
  O4       1.0000 0.53662  0.39014  0.53662  Biso   1.000  O
  H4       1.0000 0.55173  0.34480  0.55173  Biso   1.000  H
  O5       1.0000 0.46338  0.46338  0.46338  Biso   1.000  O
  H5       1.0000 0.44827  0.44827  0.44827  Biso   1.000  H
  O6       1.0000 0.46338  0.46338  0.60986  Biso   1.000  O
  H6       1.0000 0.44827  0.44827  0.65520  Biso   1.000  H
  O7       1.0000 0.60986  0.46338  0.46338  Biso   1.000  O
  H7       1.0000 0.65520  0.44827  0.44827  Biso   1.000  H
  O8       1.0000 0.46338  0.60986  0.46338  Biso   1.000  O
  H8       1.0000 0.44827  0.65520  0.44827  Biso   1.000  H
  O9       1.0000 0.66779  0.55089  0.44911  Biso   1.000  O
  C1       1.0000 0.78480  0.55260  0.44740  Biso   1.000  C
  H9       1.0000 0.76400  0.58800  0.41200  Biso   1.000  H
  C2       1.0000 0.84530  0.55230  0.44770  Biso   1.000  C
  H10      1.0000 0.86630  0.58770  0.41230  Biso   1.000  H
  O10      1.0000 0.55089  0.66779  0.33221  Biso   1.000  O
  C3       1.0000 0.55260  0.78480  0.21520  Biso   1.000  C
  H11      1.0000 0.58800  0.76400  0.23600  Biso   1.000  H
  C4       1.0000 0.55230  0.84530  0.15470  Biso   1.000  C
  H12      1.0000 0.58770  0.86630  0.13370  Biso   1.000  H
  O11      1.0000 0.44911  0.33221  0.66779  Biso   1.000  O
  C5       1.0000 0.44740  0.21520  0.78480  Biso   1.000  C
  H13      1.0000 0.41200  0.23600  0.76400  Biso   1.000  H
  C6       1.0000 0.44770  0.15470  0.84530  Biso   1.000  C
  H14      1.0000 0.41230  0.13370  0.86630  Biso   1.000  H
  O12      1.0000 0.33221  0.44911  0.55089  Biso   1.000  O
  C7       1.0000 0.21520  0.44740  0.55260  Biso   1.000  C
  H15      1.0000 0.23600  0.41200  0.58800  Biso   1.000  H
  C8       1.0000 0.15470  0.44770  0.55230  Biso   1.000  C
  H16      1.0000 0.13370  0.41230  0.58770  Biso   1.000  H
  O13      1.0000 0.44911  0.66779  0.55089  Biso   1.000  O
  C9       1.0000 0.44740  0.78480  0.55260  Biso   1.000  C
  H17      1.0000 0.41200  0.76400  0.58800  Biso   1.000  H
  C10      1.0000 0.44770  0.84530  0.55230  Biso   1.000  C
  H18      1.0000 0.41230  0.86630  0.58770  Biso   1.000  H
  O14      1.0000 0.33221  0.55089  0.66779  Biso   1.000  O
  C11      1.0000 0.21520  0.55260  0.78480  Biso   1.000  C
  H19      1.0000 0.23600  0.58800  0.76400  Biso   1.000  H
  C12      1.0000 0.15470  0.55230  0.84530  Biso   1.000  C
  H20      1.0000 0.13370  0.58770  0.86630  Biso   1.000  H
  O15      1.0000 0.66779  0.44911  0.33221  Biso   1.000  O
  C13      1.0000 0.78480  0.44740  0.21520  Biso   1.000  C
  H21      1.0000 0.76400  0.41200  0.23600  Biso   1.000  H
  C14      1.0000 0.84530  0.44770  0.15470  Biso   1.000  C
  H22      1.0000 0.86630  0.41230  0.13370  Biso   1.000  H
  O16      1.0000 0.55089  0.33221  0.44911  Biso   1.000  O
  C15      1.0000 0.55260  0.21520  0.44740  Biso   1.000  C
  H23      1.0000 0.58800  0.23600  0.41200  Biso   1.000  H
  C16      1.0000 0.55230  0.15470  0.44770  Biso   1.000  C
  H24      1.0000 0.58770  0.13370  0.41230  Biso   1.000  H
  O17      1.0000 0.55089  0.44911  0.66779  Biso   1.000  O
  C17      1.0000 0.55260  0.44740  0.78480  Biso   1.000  C
  H25      1.0000 0.58800  0.41200  0.76400  Biso   1.000  H
  C18      1.0000 0.55230  0.44770  0.84530  Biso   1.000  C
  H26      1.0000 0.58770  0.41230  0.86630  Biso   1.000  H
  O18      1.0000 0.66779  0.33221  0.55089  Biso   1.000  O
  C19      1.0000 0.78480  0.21520  0.55260  Biso   1.000  C
  H27      1.0000 0.76400  0.23600  0.58800  Biso   1.000  H
  C20      1.0000 0.84530  0.15470  0.55230  Biso   1.000  C
  H28      1.0000 0.86630  0.13370  0.58770  Biso   1.000  H
  O19      1.0000 0.33221  0.66779  0.44911  Biso   1.000  O
  C21      1.0000 0.21520  0.78480  0.44740  Biso   1.000  C
  H29      1.0000 0.23600  0.76400  0.41200  Biso   1.000  H
  C22      1.0000 0.15470  0.84530  0.44770  Biso   1.000  C
  H30      1.0000 0.13370  0.86630  0.41230  Biso   1.000  H
  O20      1.0000 0.44911  0.55089  0.33221  Biso   1.000  O
  C23      1.0000 0.44740  0.55260  0.21520  Biso   1.000  C
  H31      1.0000 0.41200  0.58800  0.23600  Biso   1.000  H
  C24      1.0000 0.44770  0.55230  0.15470  Biso   1.000  C
  H32      1.0000 0.41230  0.58770  0.13370  Biso   1.000  H
  O21      1.0000 0.33221  0.44911  0.66779  Biso   1.000  O
  C25      1.0000 0.21520  0.44740  0.78480  Biso   1.000  C
  H33      1.0000 0.23600  0.41200  0.76400  Biso   1.000  H
  C26      1.0000 0.15470  0.44770  0.84530  Biso   1.000  C
  H34      1.0000 0.13370  0.41230  0.86630  Biso   1.000  H
  O22      1.0000 0.44911  0.33221  0.55089  Biso   1.000  O
  C27      1.0000 0.44740  0.21520  0.55260  Biso   1.000  C
  H35      1.0000 0.41200  0.23600  0.58800  Biso   1.000  H
  C28      1.0000 0.44770  0.15470  0.55230  Biso   1.000  C
  H36      1.0000 0.41230  0.13370  0.58770  Biso   1.000  H
  O23      1.0000 0.55089  0.66779  0.44911  Biso   1.000  O
  C29      1.0000 0.55260  0.78480  0.44740  Biso   1.000  C
  H37      1.0000 0.58800  0.76400  0.41200  Biso   1.000  H
  C30      1.0000 0.55230  0.84530  0.44770  Biso   1.000  C
  H38      1.0000 0.58770  0.86630  0.41230  Biso   1.000  H
  O24      1.0000 0.66779  0.55089  0.33221  Biso   1.000  O
  C31      1.0000 0.78480  0.55260  0.21520  Biso   1.000  C
  H39      1.0000 0.76400  0.58800  0.23600  Biso   1.000  H
  C32      1.0000 0.84530  0.55230  0.15470  Biso   1.000  C
  H40      1.0000 0.86630  0.58770  0.13370  Biso   1.000  H
  O25      1.0000 0.55089  0.33221  0.66779  Biso   1.000  O
  C33      1.0000 0.55260  0.21520  0.78480  Biso   1.000  C
  H41      1.0000 0.58800  0.23600  0.76400  Biso   1.000  H
  C34      1.0000 0.55230  0.15470  0.84530  Biso   1.000  C
  H42      1.0000 0.58770  0.13370  0.86630  Biso   1.000  H
  O26      1.0000 0.66779  0.44911  0.55089  Biso   1.000  O
  C35      1.0000 0.78480  0.44740  0.55260  Biso   1.000  C
  H43      1.0000 0.76400  0.41200  0.58800  Biso   1.000  H
  C36      1.0000 0.84530  0.44770  0.55230  Biso   1.000  C
  H44      1.0000 0.86630  0.41230  0.58770  Biso   1.000  H
  O27      1.0000 0.33221  0.55089  0.44911  Biso   1.000  O
  C37      1.0000 0.21520  0.55260  0.44740  Biso   1.000  C
  H45      1.0000 0.23600  0.58800  0.41200  Biso   1.000  H
  C38      1.0000 0.15470  0.55230  0.44770  Biso   1.000  C
  H46      1.0000 0.13370  0.58770  0.41230  Biso   1.000  H
  O28      1.0000 0.44911  0.66779  0.33221  Biso   1.000  O
  C39      1.0000 0.44740  0.78480  0.21520  Biso   1.000  C
  H47      1.0000 0.41200  0.76400  0.23600  Biso   1.000  H
  C40      1.0000 0.44770  0.84530  0.15470  Biso   1.000  C
  H48      1.0000 0.41230  0.86630  0.13370  Biso   1.000  H
  O29      1.0000 0.44911  0.55089  0.66779  Biso   1.000  O
  C41      1.0000 0.44740  0.55260  0.78480  Biso   1.000  C
  H49      1.0000 0.41200  0.58800  0.76400  Biso   1.000  H
  C42      1.0000 0.44770  0.55230  0.84530  Biso   1.000  C
  H50      1.0000 0.41230  0.58770  0.86630  Biso   1.000  H
  O30      1.0000 0.33221  0.66779  0.55089  Biso   1.000  O
  C43      1.0000 0.21520  0.78480  0.55260  Biso   1.000  C
  H51      1.0000 0.23600  0.76400  0.58800  Biso   1.000  H
  C44      1.0000 0.15470  0.84530  0.55230  Biso   1.000  C
  H52      1.0000 0.13370  0.86630  0.58770  Biso   1.000  H
  O31      1.0000 0.66779  0.33221  0.44911  Biso   1.000  O
  C45      1.0000 0.78480  0.21520  0.44740  Biso   1.000  C
  H53      1.0000 0.76400  0.23600  0.41200  Biso   1.000  H
  C46      1.0000 0.84530  0.15470  0.44770  Biso   1.000  C
  H54      1.0000 0.86630  0.13370  0.41230  Biso   1.000  H
  O32      1.0000 0.55089  0.44911  0.33221  Biso   1.000  O
  C47      1.0000 0.55260  0.44740  0.21520  Biso   1.000  C
  H55      1.0000 0.58800  0.41200  0.23600  Biso   1.000  H
  C48      1.0000 0.55230  0.44770  0.15470  Biso   1.000  C
  H56      1.0000 0.58770  0.41230  0.13370  Biso   1.000  H
  C49      1.0000 0.69232  0.50000  0.50000  Biso   1.000  C
  C50      1.0000 0.75620  0.50000  0.50000  Biso   1.000  C
  C51      1.0000 0.87400  0.50000  0.50000  Biso   1.000  C
  C52      1.0000 0.94200  0.50000  0.50000  Biso   1.000  C
  C53      1.0000 0.50000  0.69232  0.30768  Biso   1.000  C
  C54      1.0000 0.50000  0.75620  0.24380  Biso   1.000  C
  C55      1.0000 0.50000  0.87400  0.12600  Biso   1.000  C
  C56      1.0000 0.50000  0.94200  0.05800  Biso   1.000  C
  C57      1.0000 0.50000  0.30768  0.69232  Biso   1.000  C
  C58      1.0000 0.50000  0.24380  0.75620  Biso   1.000  C
  C59      1.0000 0.50000  0.12600  0.87400  Biso   1.000  C
  C60      1.0000 0.50000  0.05800  0.94200  Biso   1.000  C
  C61      1.0000 0.30768  0.50000  0.50000  Biso   1.000  C
  C62      1.0000 0.24380  0.50000  0.50000  Biso   1.000  C
  C63      1.0000 0.12600  0.50000  0.50000  Biso   1.000  C
  C64      1.0000 0.05800  0.50000  0.50000  Biso   1.000  C
  C65      1.0000 0.50000  0.69232  0.50000  Biso   1.000  C
  C66      1.0000 0.50000  0.75620  0.50000  Biso   1.000  C
  C67      1.0000 0.50000  0.87400  0.50000  Biso   1.000  C
  C68      1.0000 0.50000  0.94200  0.50000  Biso   1.000  C
  C69      1.0000 0.30768  0.50000  0.69232  Biso   1.000  C
  C70      1.0000 0.24380  0.50000  0.75620  Biso   1.000  C
  C71      1.0000 0.12600  0.50000  0.87400  Biso   1.000  C
  C72      1.0000 0.05800  0.50000  0.94200  Biso   1.000  C
  C73      1.0000 0.69232  0.50000  0.30768  Biso   1.000  C
  C74      1.0000 0.75620  0.50000  0.24380  Biso   1.000  C
  C75      1.0000 0.87400  0.50000  0.12600  Biso   1.000  C
  C76      1.0000 0.94200  0.50000  0.05800  Biso   1.000  C
  C77      1.0000 0.50000  0.30768  0.50000  Biso   1.000  C
  C78      1.0000 0.50000  0.24380  0.50000  Biso   1.000  C
  C79      1.0000 0.50000  0.12600  0.50000  Biso   1.000  C
  C80      1.0000 0.50000  0.05800  0.50000  Biso   1.000  C
  C81      1.0000 0.50000  0.50000  0.69232  Biso   1.000  C
  C82      1.0000 0.50000  0.50000  0.75620  Biso   1.000  C
  C83      1.0000 0.50000  0.50000  0.87400  Biso   1.000  C
  C84      1.0000 0.50000  0.50000  0.94200  Biso   1.000  C
  C85      1.0000 0.69232  0.30768  0.50000  Biso   1.000  C
  C86      1.0000 0.75620  0.24380  0.50000  Biso   1.000  C
  C87      1.0000 0.87400  0.12600  0.50000  Biso   1.000  C
  C88      1.0000 0.94200  0.05800  0.50000  Biso   1.000  C
  C89      1.0000 0.30768  0.69232  0.50000  Biso   1.000  C
  C90      1.0000 0.24380  0.75620  0.50000  Biso   1.000  C
  C91      1.0000 0.12600  0.87400  0.50000  Biso   1.000  C
  C92      1.0000 0.05800  0.94200  0.50000  Biso   1.000  C
  C93      1.0000 0.50000  0.50000  0.30768  Biso   1.000  C
  C94      1.0000 0.50000  0.50000  0.24380  Biso   1.000  C
  C95      1.0000 0.50000  0.50000  0.12600  Biso   1.000  C
  C96      1.0000 0.50000  0.50000  0.05800  Biso   1.000  C
  C97      1.0000 0.00766  0.46200  0.46200  Biso   1.000  C
  C98      1.0000 0.01030  0.42610  0.42610  Biso   1.000  C
  C99      1.0000 0.00910  0.39770  0.39770  Biso   1.000  C
  H57      1.0000 0.00830  0.37430  0.37430  Biso   1.000  H
  C100     1.0000 0.46200  0.00766  0.06834  Biso   1.000  C
  C101     1.0000 0.42610  0.01030  0.13750  Biso   1.000  C
  C102     1.0000 0.39770  0.00910  0.19550  Biso   1.000  C
  H58      1.0000 0.37430  0.00830  0.24310  Biso   1.000  H
  C103     1.0000 0.46200  0.06834  0.00766  Biso   1.000  C
  C104     1.0000 0.42610  0.13750  0.01030  Biso   1.000  C
  C105     1.0000 0.39770  0.19550  0.00910  Biso   1.000  C
  H59      1.0000 0.37430  0.24310  0.00830  Biso   1.000  H
  C106     1.0000 0.06834  0.46200  0.46200  Biso   1.000  C
  C107     1.0000 0.13750  0.42610  0.42610  Biso   1.000  C
  C108     1.0000 0.19550  0.39770  0.39770  Biso   1.000  C
  H60      1.0000 0.24310  0.37430  0.37430  Biso   1.000  H
  C109     1.0000 0.46200  0.00766  0.46200  Biso   1.000  C
  C110     1.0000 0.42610  0.01030  0.42610  Biso   1.000  C
  C111     1.0000 0.39770  0.00910  0.39770  Biso   1.000  C
  H61      1.0000 0.37430  0.00830  0.37430  Biso   1.000  H
  C112     1.0000 0.06834  0.46200  0.00766  Biso   1.000  C
  C113     1.0000 0.13750  0.42610  0.01030  Biso   1.000  C
  C114     1.0000 0.19550  0.39770  0.00910  Biso   1.000  C
  H62      1.0000 0.24310  0.37430  0.00830  Biso   1.000  H
  C115     1.0000 0.00766  0.46200  0.06834  Biso   1.000  C
  C116     1.0000 0.01030  0.42610  0.13750  Biso   1.000  C
  C117     1.0000 0.00910  0.39770  0.19550  Biso   1.000  C
  H63      1.0000 0.00830  0.37430  0.24310  Biso   1.000  H
  C118     1.0000 0.46200  0.06834  0.46200  Biso   1.000  C
  C119     1.0000 0.42610  0.13750  0.42610  Biso   1.000  C
  C120     1.0000 0.39770  0.19550  0.39770  Biso   1.000  C
  H64      1.0000 0.37430  0.24310  0.37430  Biso   1.000  H
  C121     1.0000 0.46200  0.46200  0.00766  Biso   1.000  C
  C122     1.0000 0.42610  0.42610  0.01030  Biso   1.000  C
  C123     1.0000 0.39770  0.39770  0.00910  Biso   1.000  C
  H65      1.0000 0.37430  0.37430  0.00830  Biso   1.000  H
  C124     1.0000 0.00766  0.06834  0.46200  Biso   1.000  C
  C125     1.0000 0.01030  0.13750  0.42610  Biso   1.000  C
  C126     1.0000 0.00910  0.19550  0.39770  Biso   1.000  C
  H66      1.0000 0.00830  0.24310  0.37430  Biso   1.000  H
  C127     1.0000 0.06834  0.00766  0.46200  Biso   1.000  C
  C128     1.0000 0.13750  0.01030  0.42610  Biso   1.000  C
  C129     1.0000 0.19550  0.00910  0.39770  Biso   1.000  C
  H67      1.0000 0.24310  0.00830  0.37430  Biso   1.000  H
  C130     1.0000 0.46200  0.46200  0.06834  Biso   1.000  C
  C131     1.0000 0.42610  0.42610  0.13750  Biso   1.000  C
  C132     1.0000 0.39770  0.39770  0.19550  Biso   1.000  C
  H68      1.0000 0.37430  0.37430  0.24310  Biso   1.000  H
  C133     1.0000 0.99234  0.53800  0.93166  Biso   1.000  C
  C134     1.0000 0.98970  0.57390  0.86250  Biso   1.000  C
  C135     1.0000 0.99090  0.60230  0.80450  Biso   1.000  C
  H69      1.0000 0.99170  0.62570  0.75690  Biso   1.000  H
  C136     1.0000 0.53800  0.99234  0.53800  Biso   1.000  C
  C137     1.0000 0.57390  0.98970  0.57390  Biso   1.000  C
  C138     1.0000 0.60230  0.99090  0.60230  Biso   1.000  C
  H70      1.0000 0.62570  0.99170  0.62570  Biso   1.000  H
  C139     1.0000 0.53800  0.93166  0.53800  Biso   1.000  C
  C140     1.0000 0.57390  0.86250  0.57390  Biso   1.000  C
  C141     1.0000 0.60230  0.80450  0.60230  Biso   1.000  C
  H71      1.0000 0.62570  0.75690  0.62570  Biso   1.000  H
  C142     1.0000 0.93166  0.53800  0.99234  Biso   1.000  C
  C143     1.0000 0.86250  0.57390  0.98970  Biso   1.000  C
  C144     1.0000 0.80450  0.60230  0.99090  Biso   1.000  C
  H72      1.0000 0.75690  0.62570  0.99170  Biso   1.000  H
  C145     1.0000 0.53800  0.99234  0.93166  Biso   1.000  C
  C146     1.0000 0.57390  0.98970  0.86250  Biso   1.000  C
  C147     1.0000 0.60230  0.99090  0.80450  Biso   1.000  C
  H73      1.0000 0.62570  0.99170  0.75690  Biso   1.000  H
  C148     1.0000 0.93166  0.53800  0.53800  Biso   1.000  C
  C149     1.0000 0.86250  0.57390  0.57390  Biso   1.000  C
  C150     1.0000 0.80450  0.60230  0.60230  Biso   1.000  C
  H74      1.0000 0.75690  0.62570  0.62570  Biso   1.000  H
  C151     1.0000 0.99234  0.53800  0.53800  Biso   1.000  C
  C152     1.0000 0.98970  0.57390  0.57390  Biso   1.000  C
  C153     1.0000 0.99090  0.60230  0.60230  Biso   1.000  C
  H75      1.0000 0.99170  0.62570  0.62570  Biso   1.000  H
  C154     1.0000 0.53800  0.93166  0.99234  Biso   1.000  C
  C155     1.0000 0.57390  0.86250  0.98970  Biso   1.000  C
  C156     1.0000 0.60230  0.80450  0.99090  Biso   1.000  C
  H76      1.0000 0.62570  0.75690  0.99170  Biso   1.000  H
  C157     1.0000 0.53800  0.53800  0.93166  Biso   1.000  C
  C158     1.0000 0.57390  0.57390  0.86250  Biso   1.000  C
  C159     1.0000 0.60230  0.60230  0.80450  Biso   1.000  C
  H77      1.0000 0.62570  0.62570  0.75690  Biso   1.000  H
  C160     1.0000 0.99234  0.93166  0.53800  Biso   1.000  C
  C161     1.0000 0.98970  0.86250  0.57390  Biso   1.000  C
  C162     1.0000 0.99090  0.80450  0.60230  Biso   1.000  C
  H78      1.0000 0.99170  0.75690  0.62570  Biso   1.000  H
  C163     1.0000 0.93166  0.99234  0.53800  Biso   1.000  C
  C164     1.0000 0.86250  0.98970  0.57390  Biso   1.000  C
  C165     1.0000 0.80450  0.99090  0.60230  Biso   1.000  C
  H79      1.0000 0.75690  0.99170  0.62570  Biso   1.000  H
  C166     1.0000 0.53800  0.53800  0.99234  Biso   1.000  C
  C167     1.0000 0.57390  0.57390  0.98970  Biso   1.000  C
  C168     1.0000 0.60230  0.60230  0.99090  Biso   1.000  C
  H80      1.0000 0.62570  0.62570  0.99170  Biso   1.000  H
