data_ic700893w-file001_clean
_audit_creation_date              2015-08-19
_audit_creation_method            'Materials Studio'
_symmetry_space_group_name_H-M    'P1'
_symmetry_Int_Tables_number       1
_symmetry_cell_setting            triclinic
loop_
_symmetry_equiv_pos_as_xyz
  x,y,z
_cell_length_a                    6.2100
_cell_length_b                    6.9900
_cell_length_c                    18.7585
_cell_angle_alpha                 100.7380
_cell_angle_beta                  96.8965
_cell_angle_gamma                 90.0000
loop_
_atom_site_label
_atom_site_type_symbol
_atom_site_fract_x
_atom_site_fract_y
_atom_site_fract_z
_atom_site_U_iso_or_equiv
_atom_site_adp_type
_atom_site_occupancy
Eu1    Eu    0.52238   0.90913   0.44002   0.01267  Uiso   1.00
Eu2    Eu    0.47762   0.46911   0.55998   0.01267  Uiso   1.00
Cu1    Cu    0.00000   0.68980   0.00000   0.01267  Uiso   1.00
H1     H     0.98220   0.24150   0.17200   0.01267  Uiso   1.00
H2     H     0.17550   0.67380   0.14760   0.01267  Uiso   1.00
H3     H     0.61660   0.83270   0.06220   0.01267  Uiso   1.00
H4     H     0.93040   0.47650   0.73780   0.01267  Uiso   1.00
H5     H     0.36240   0.17850   0.82200   0.01267  Uiso   1.00
H6     H     0.80840   0.90400   0.72320   0.01267  Uiso   1.00
H7     H     0.82450   0.52620   0.85240   0.01267  Uiso   1.00
H8     H     0.06960   0.73870   0.26220   0.01267  Uiso   1.00
H9     H     0.19160   0.18080   0.27680   0.01267  Uiso   1.00
H10    H     0.38340   0.77050   0.93780   0.01267  Uiso   1.00
H11    H     0.50480   0.72100   0.82480   0.01267  Uiso   1.00
H12    H     0.49520   0.89620   0.17520   0.01267  Uiso   1.00
H13    H     0.63760   0.35650   0.17800   0.01267  Uiso   1.00
H14    H     0.50970   0.44080   0.28960   0.01267  Uiso   1.00
H15    H     0.49030   0.15120   0.71040   0.01267  Uiso   1.00
H16    H     0.01780   0.06950   0.82800   0.01267  Uiso   1.00
C1     C     0.76740   0.81130   0.23060   0.01267  Uiso   1.00
C2     C     0.97240   0.75315   0.22190   0.01267  Uiso   1.00
C3     C     0.68550   0.84908   0.30416   0.01267  Uiso   1.00
C4     C     0.33360   0.96785   0.57970   0.01267  Uiso   1.00
C5     C     0.23260   0.58070   0.76940   0.01267  Uiso   1.00
C6     C     0.76950   0.36036   0.35072   0.01267  Uiso   1.00
C7     C     0.13170   0.25307   0.41394   0.01267  Uiso   1.00
C8     C     0.27610   0.11955   0.77950   0.01267  Uiso   1.00
C9     C     0.66640   0.38815   0.42030   0.01267  Uiso   1.00
C10    C     0.96470   0.56270   0.84700   0.01267  Uiso   1.00
C11    C     0.92760   0.26840   0.21680   0.01267  Uiso   1.00
C12    C     0.86830   0.83913   0.58606   0.01267  Uiso   1.00
C13    C     0.07240   0.05160   0.78320   0.01267  Uiso   1.00
C14    C     0.23050   0.00964   0.64928   0.01267  Uiso   1.00
C15    C     0.02760   0.53125   0.77810   0.01267  Uiso   1.00
C16    C     0.72390   0.34005   0.22050   0.01267  Uiso   1.00
C17    C     0.29340   0.70551   0.89722   0.01267  Uiso   1.00
C18    C     0.02450   0.93218   0.65216   0.01267  Uiso   1.00
C19    C     0.97550   0.28002   0.34784   0.01267  Uiso   1.00
C20    C     0.63290   0.84713   0.17026   0.01267  Uiso   1.00
C21    C     0.94510   0.95395   0.72010   0.01267  Uiso   1.00
C22    C     0.31450   0.54492   0.69584   0.01267  Uiso   1.00
C23    C     0.64680   0.38825   0.28730   0.01267  Uiso   1.00
C24    C     0.70660   0.80829   0.10278   0.01267  Uiso   1.00
C25    C     0.05490   0.23385   0.27990   0.01267  Uiso   1.00
C26    C     0.03530   0.71570   0.15300   0.01267  Uiso   1.00
C27    C     0.35320   0.10095   0.71270   0.01267  Uiso   1.00
C28    C     0.36710   0.67687   0.82974   0.01267  Uiso   1.00
N1     N     0.90330   0.73671   0.09342   0.01267  Uiso   1.00
N2     N     0.09670   0.64329   0.90658   0.01267  Uiso   1.00
O1     O     0.18990   0.48821   0.63802   0.01267  Uiso   1.00
O2     O     0.51120   0.59104   0.69268   0.01267  Uiso   1.00
O3     O     0.22300   0.09620   0.40960   0.01267  Uiso   1.00
O4     O     0.48880   0.89836   0.30732   0.01267  Uiso   1.00
O5     O     0.65020   0.25877   0.45474   0.01267  Uiso   1.00
O6     O     0.34980   0.80403   0.54526   0.01267  Uiso   1.00
O7     O     0.77700   0.68660   0.59040   0.01267  Uiso   1.00
O8     O     0.40900   0.11873   0.55786   0.01267  Uiso   1.00
O9     O     0.81010   0.85019   0.36198   0.01267  Uiso   1.00
O10    O     0.83640   0.93428   0.53316   0.01267  Uiso   1.00
O11    O     0.59100   0.56087   0.44214   0.01267  Uiso   1.00
O12    O     0.16360   0.40112   0.46684   0.01267  Uiso   1.00
