data_image0
_cell_length_a       9.055
_cell_length_b       9.055
_cell_length_c       14.4468
_cell_angle_alpha    90
_cell_angle_beta     90
_cell_angle_gamma    120

_symmetry_space_group_name_H-M    "P 1"
_symmetry_int_tables_number       1

loop_
  _symmetry_equiv_pos_as_xyz
  'x, y, z'

loop_
  _atom_site_label
  _atom_site_occupancy
  _atom_site_fract_x
  _atom_site_fract_y
  _atom_site_fract_z
  _atom_site_thermal_displace_type
  _atom_site_B_iso_or_equiv
  _atom_site_type_symbol
  Si1      1.0000 0.66667  0.33334  0.20412  Biso   1.000  Si
  Si2      1.0000 0.66667  0.33334  0.60310  Biso   1.000  Si
  Si3      1.0000 0.33333  0.66666  0.10310  Biso   1.000  Si
  Si4      1.0000 0.33333  0.66666  0.70412  Biso   1.000  Si
  I1       1.0000 0.66667  0.33334  0.40370  Biso   1.000  I
  I2       1.0000 0.40176  0.00001  0.15366  Biso   1.000  I
  I3       1.0000 0.40175  0.40176  0.65366  Biso   1.000  I
  I4       1.0000 0.33333  0.66666  0.90370  Biso   1.000  I
  I5       1.0000 0.59825  0.59824  0.15366  Biso   1.000  I
  I6       1.0000 0.99999  0.40175  0.15366  Biso   1.000  I
  I7       1.0000 0.59824  0.99999  0.65366  Biso   1.000  I
  I8       1.0000 0.00001  0.59825  0.65366  Biso   1.000  I
