data_ic800131r-file003_clean
_audit_creation_date              2015-08-19
_audit_creation_method            'Materials Studio'
_symmetry_space_group_name_H-M    'P1'
_symmetry_Int_Tables_number       1
_symmetry_cell_setting            triclinic
loop_
_symmetry_equiv_pos_as_xyz
  x,y,z
_cell_length_a                    15.1832
_cell_length_b                    15.3308
_cell_length_c                    24.7499
_cell_angle_alpha                 90.0000
_cell_angle_beta                  90.0000
_cell_angle_gamma                 111.3380
loop_
_atom_site_label
_atom_site_type_symbol
_atom_site_fract_x
_atom_site_fract_y
_atom_site_fract_z
_atom_site_U_iso_or_equiv
_atom_site_adp_type
_atom_site_occupancy
Co1    Co    0.39763   0.60971   0.02056   0.01267  Uiso   1.00
Co2    Co    0.39763   0.60971   0.47944   0.01267  Uiso   1.00
Co3    Co    0.60237   0.39029   0.97944   0.01267  Uiso   1.00
Co4    Co    0.60237   0.39029   0.52056   0.01267  Uiso   1.00
H1     H     0.47520   0.23090   0.04230   0.01267  Uiso   1.00
H2     H     0.53950   0.67980   0.29350   0.01267  Uiso   1.00
H3     H     0.75140   0.31060   0.48550   0.01267  Uiso   1.00
H4     H     0.73840   0.44360   0.79000   0.01267  Uiso   1.00
H5     H     0.46800   0.33440   0.61440   0.01267  Uiso   1.00
H6     H     0.37420   0.78040   0.08420   0.01267  Uiso   1.00
H7     H     0.62580   0.21960   0.91580   0.01267  Uiso   1.00
H8     H     0.58860   0.06540   0.92710   0.01267  Uiso   1.00
H9     H     0.94410   0.60420   0.53370   0.01267  Uiso   1.00
H10    H     0.05590   0.39580   0.03370   0.01267  Uiso   1.00
H11    H     0.62580   0.21960   0.58420   0.01267  Uiso   1.00
H12    H     0.52480   0.76910   0.95770   0.01267  Uiso   1.00
H13    H     0.56340   0.92510   0.55570   0.01267  Uiso   1.00
H14    H     0.78330   0.55610   0.54000   0.01267  Uiso   1.00
H15    H     0.73840   0.44360   0.71000   0.01267  Uiso   1.00
H16    H     0.24860   0.68940   0.98550   0.01267  Uiso   1.00
H17    H     0.37420   0.78040   0.41580   0.01267  Uiso   1.00
H18    H     0.41140   0.93460   0.42710   0.01267  Uiso   1.00
H19    H     0.46050   0.32020   0.70650   0.01267  Uiso   1.00
H20    H     0.47520   0.23090   0.45770   0.01267  Uiso   1.00
H21    H     0.73580   0.42950   0.61740   0.01267  Uiso   1.00
H22    H     0.08650   0.64540   0.52830   0.01267  Uiso   1.00
H23    H     0.75140   0.31060   0.01450   0.01267  Uiso   1.00
H24    H     0.94410   0.60420   0.96630   0.01267  Uiso   1.00
H25    H     0.53200   0.66560   0.11440   0.01267  Uiso   1.00
H26    H     0.26420   0.57050   0.11740   0.01267  Uiso   1.00
H27    H     0.91350   0.35460   0.02830   0.01267  Uiso   1.00
H28    H     0.56340   0.92510   0.94430   0.01267  Uiso   1.00
H29    H     0.21670   0.44390   0.46000   0.01267  Uiso   1.00
H30    H     0.52480   0.76910   0.54230   0.01267  Uiso   1.00
H31    H     0.53950   0.67980   0.20650   0.01267  Uiso   1.00
H32    H     0.21670   0.44390   0.04000   0.01267  Uiso   1.00
H33    H     0.73580   0.42950   0.88260   0.01267  Uiso   1.00
H34    H     0.53200   0.66560   0.38560   0.01267  Uiso   1.00
H35    H     0.91350   0.35460   0.47170   0.01267  Uiso   1.00
H36    H     0.46800   0.33440   0.88560   0.01267  Uiso   1.00
H37    H     0.26160   0.55640   0.29000   0.01267  Uiso   1.00
H38    H     0.58860   0.06540   0.57290   0.01267  Uiso   1.00
H39    H     0.26160   0.55640   0.21000   0.01267  Uiso   1.00
H40    H     0.46050   0.32020   0.79350   0.01267  Uiso   1.00
H41    H     0.08650   0.64540   0.97170   0.01267  Uiso   1.00
H42    H     0.43660   0.07490   0.05570   0.01267  Uiso   1.00
H43    H     0.43660   0.07490   0.44430   0.01267  Uiso   1.00
H44    H     0.78330   0.55610   0.96000   0.01267  Uiso   1.00
H45    H     0.41140   0.93460   0.07290   0.01267  Uiso   1.00
H46    H     0.24860   0.68940   0.51450   0.01267  Uiso   1.00
H47    H     0.05590   0.39580   0.46630   0.01267  Uiso   1.00
H48    H     0.26420   0.57050   0.38260   0.01267  Uiso   1.00
C1     C     0.52380   0.89660   0.97300   0.01267  Uiso   1.00
C2     C     0.56540   0.09770   0.54840   0.01267  Uiso   1.00
C3     C     0.52430   0.35490   0.86620   0.01267  Uiso   1.00
C4     C     0.19040   0.48610   0.47270   0.01267  Uiso   1.00
C5     C     0.47570   0.64510   0.36620   0.01267  Uiso   1.00
C6     C     0.45330   0.45550   0.00180   0.01267  Uiso   1.00
C7     C     0.49110   0.95130   0.00600   0.01267  Uiso   1.00
C8     C     0.88900   0.39640   0.48690   0.01267  Uiso   1.00
C9     C     0.49970   0.19770   0.48090   0.01267  Uiso   1.00
C10    C     0.49110   0.95130   0.49400   0.01267  Uiso   1.00
C11    C     0.43460   0.90230   0.04840   0.01267  Uiso   1.00
C12    C     0.31880   0.58350   0.19200   0.01267  Uiso   1.00
C13    C     0.41230   0.80950   0.05510   0.01267  Uiso   1.00
C14    C     0.40140   0.62060   0.22010   0.01267  Uiso   1.00
C15    C     0.54670   0.54450   0.99820   0.01267  Uiso   1.00
C16    C     0.05220   0.51500   0.00240   0.01267  Uiso   1.00
C17    C     0.68120   0.41650   0.80800   0.01267  Uiso   1.00
C18    C     0.68120   0.41650   0.69200   0.01267  Uiso   1.00
C19    C     0.88900   0.39640   0.01310   0.01267  Uiso   1.00
C20    C     0.19040   0.48610   0.02730   0.01267  Uiso   1.00
C21    C     0.48100   0.65260   0.18980   0.01267  Uiso   1.00
C22    C     0.51900   0.34740   0.81020   0.01267  Uiso   1.00
C23    C     0.67840   0.41300   0.63560   0.01267  Uiso   1.00
C24    C     0.56540   0.09770   0.95160   0.01267  Uiso   1.00
C25    C     0.80960   0.51390   0.52730   0.01267  Uiso   1.00
C26    C     0.50890   0.04870   0.99400   0.01267  Uiso   1.00
C27    C     0.41230   0.80950   0.44490   0.01267  Uiso   1.00
C28    C     0.79080   0.37100   0.49470   0.01267  Uiso   1.00
C29    C     0.05220   0.51500   0.49760   0.01267  Uiso   1.00
C30    C     0.20920   0.62900   0.99470   0.01267  Uiso   1.00
C31    C     0.90670   0.54400   0.97720   0.01267  Uiso   1.00
C32    C     0.47620   0.10340   0.47300   0.01267  Uiso   1.00
C33    C     0.40140   0.62060   0.27990   0.01267  Uiso   1.00
C34    C     0.90670   0.54400   0.52280   0.01267  Uiso   1.00
C35    C     0.67840   0.41300   0.86440   0.01267  Uiso   1.00
C36    C     0.43460   0.90230   0.45160   0.01267  Uiso   1.00
C37    C     0.20920   0.62900   0.50530   0.01267  Uiso   1.00
C38    C     0.50030   0.80230   0.98090   0.01267  Uiso   1.00
C39    C     0.50030   0.80230   0.51910   0.01267  Uiso   1.00
C40    C     0.79080   0.37100   0.00530   0.01267  Uiso   1.00
C41    C     0.45330   0.45550   0.49820   0.01267  Uiso   1.00
C42    C     0.31880   0.58350   0.30800   0.01267  Uiso   1.00
C43    C     0.32160   0.58700   0.13560   0.01267  Uiso   1.00
C44    C     0.49970   0.19770   0.01910   0.01267  Uiso   1.00
C45    C     0.58770   0.19050   0.94490   0.01267  Uiso   1.00
C46    C     0.11100   0.60360   0.98690   0.01267  Uiso   1.00
C47    C     0.80960   0.51390   0.97270   0.01267  Uiso   1.00
C48    C     0.58770   0.19050   0.55510   0.01267  Uiso   1.00
C49    C     0.94780   0.48500   0.50240   0.01267  Uiso   1.00
C50    C     0.09330   0.45600   0.02280   0.01267  Uiso   1.00
C51    C     0.32160   0.58700   0.36440   0.01267  Uiso   1.00
C52    C     0.50890   0.04870   0.50600   0.01267  Uiso   1.00
C53    C     0.09330   0.45600   0.47720   0.01267  Uiso   1.00
C54    C     0.59860   0.37940   0.72010   0.01267  Uiso   1.00
C55    C     0.59860   0.37940   0.77990   0.01267  Uiso   1.00
C56    C     0.52430   0.35490   0.63380   0.01267  Uiso   1.00
C57    C     0.47570   0.64510   0.13380   0.01267  Uiso   1.00
C58    C     0.54670   0.54450   0.50180   0.01267  Uiso   1.00
C59    C     0.47620   0.10340   0.02700   0.01267  Uiso   1.00
C60    C     0.11100   0.60360   0.51310   0.01267  Uiso   1.00
C61    C     0.51900   0.34740   0.68980   0.01267  Uiso   1.00
C62    C     0.48100   0.65260   0.31020   0.01267  Uiso   1.00
C63    C     0.94780   0.48500   0.99760   0.01267  Uiso   1.00
C64    C     0.52380   0.89660   0.52700   0.01267  Uiso   1.00
N1     N     0.39660   0.61100   0.10690   0.01267  Uiso   1.00
N2     N     0.55730   0.24370   0.97850   0.01267  Uiso   1.00
N3     N     0.55730   0.24370   0.52150   0.01267  Uiso   1.00
N4     N     0.44270   0.75630   0.47850   0.01267  Uiso   1.00
N5     N     0.75200   0.42850   0.98560   0.01267  Uiso   1.00
N6     N     0.24800   0.57150   0.01440   0.01267  Uiso   1.00
N7     N     0.60340   0.38900   0.60690   0.01267  Uiso   1.00
N8     N     0.44270   0.75630   0.02150   0.01267  Uiso   1.00
N9     N     0.60340   0.38900   0.89310   0.01267  Uiso   1.00
N10    N     0.75200   0.42850   0.51440   0.01267  Uiso   1.00
N11    N     0.39660   0.61100   0.39310   0.01267  Uiso   1.00
N12    N     0.24800   0.57150   0.48560   0.01267  Uiso   1.00
O1     O     0.38010   0.46730   0.48380   0.01267  Uiso   1.00
O2     O     0.46130   0.37950   0.51130   0.01267  Uiso   1.00
O3     O     0.38010   0.46730   0.01620   0.01267  Uiso   1.00
O4     O     0.53870   0.62050   0.01130   0.01267  Uiso   1.00
O5     O     0.46130   0.37950   0.98870   0.01267  Uiso   1.00
O6     O     0.53870   0.62050   0.48870   0.01267  Uiso   1.00
O7     O     0.61990   0.53270   0.51620   0.01267  Uiso   1.00
O8     O     0.61990   0.53270   0.98380   0.01267  Uiso   1.00
