data_ic8004536-file004_clean
_audit_creation_date              2015-08-19
_audit_creation_method            'Materials Studio'
_symmetry_space_group_name_H-M    'P1'
_symmetry_Int_Tables_number       1
_symmetry_cell_setting            triclinic
loop_
_symmetry_equiv_pos_as_xyz
  x,y,z
_cell_length_a                    13.1180
_cell_length_b                    14.6240
_cell_length_c                    15.1930
_cell_angle_alpha                 95.0000
_cell_angle_beta                  114.6100
_cell_angle_gamma                 111.8800
loop_
_atom_site_label
_atom_site_type_symbol
_atom_site_fract_x
_atom_site_fract_y
_atom_site_fract_z
_atom_site_U_iso_or_equiv
_atom_site_adp_type
_atom_site_occupancy
V1     V     0.23848   0.00236   0.23950   0.01267  Uiso   1.00
V2     V     0.76152   0.99764   0.76050   0.01267  Uiso   1.00
Cu1    Cu    0.00000   0.00000   0.00000   0.01267  Uiso   1.00
Mo1    Mo    0.66603   0.27822   0.57424   0.01267  Uiso   1.00
Mo2    Mo    0.68145   0.98201   0.37795   0.01267  Uiso   1.00
Mo3    Mo    0.83733   0.13302   0.63259   0.01267  Uiso   1.00
Mo4    Mo    0.52323   0.13677   0.31819   0.01267  Uiso   1.00
Mo5    Mo    0.31855   0.01799   0.62205   0.01267  Uiso   1.00
Mo6    Mo    0.66528   0.84598   0.55849   0.01267  Uiso   1.00
Mo7    Mo    0.47677   0.86323   0.68181   0.01267  Uiso   1.00
Mo8    Mo    0.65083   0.14900   0.75928   0.01267  Uiso   1.00
Mo9    Mo    0.33472   0.15402   0.44151   0.01267  Uiso   1.00
Mo10   Mo    0.34917   0.85100   0.24072   0.01267  Uiso   1.00
Mo11   Mo    0.33397   0.72178   0.42576   0.01267  Uiso   1.00
Mo12   Mo    0.16267   0.86698   0.36741   0.01267  Uiso   1.00
P1     P     0.50000  -0.00000   0.50000   0.01267  Uiso   1.00
H1     H     0.45420   0.85130   0.04990   0.01267  Uiso   1.00
H2     H     0.78800   0.07180   0.97710   0.01267  Uiso   1.00
H3     H     0.25010   0.28710   0.83390   0.01267  Uiso   1.00
H4     H     0.29220   0.17850   0.14180   0.01267  Uiso   1.00
H5     H     0.64330   0.74740   0.12530   0.01267  Uiso   1.00
H6     H     0.65190   0.99040   0.13820   0.01267  Uiso   1.00
H7     H     0.21200   0.92820   0.02290   0.01267  Uiso   1.00
H8     H     0.35670   0.25260   0.87470   0.01267  Uiso   1.00
H9     H     0.54820   0.39460   0.92590   0.01267  Uiso   1.00
H10    H     0.70780   0.82150   0.85820   0.01267  Uiso   1.00
H11    H     0.08220   0.13590   0.22650   0.01267  Uiso   1.00
H12    H     0.34810   0.00960   0.86180   0.01267  Uiso   1.00
H13    H     0.25200   0.77320   0.91970   0.01267  Uiso   1.00
H14    H     0.45180   0.60540   0.07410   0.01267  Uiso   1.00
H15    H     0.76020   0.19590   0.17900   0.01267  Uiso   1.00
H16    H     0.74990   0.71290   0.16610   0.01267  Uiso   1.00
H17    H     0.74800   0.22680   0.08030   0.01267  Uiso   1.00
H18    H     0.91860   0.86090   0.14050   0.01267  Uiso   1.00
H19    H     0.68340   0.56180   0.99100   0.01267  Uiso   1.00
H20    H     0.08140   0.13910   0.85950   0.01267  Uiso   1.00
H21    H     0.91780   0.86410   0.77350   0.01267  Uiso   1.00
H22    H     0.31660   0.43820   0.00900   0.01267  Uiso   1.00
H23    H     0.23980   0.80410   0.82100   0.01267  Uiso   1.00
H24    H     0.54580   0.14870   0.95010   0.01267  Uiso   1.00
C1     C     0.38950   0.46250   0.00350   0.01267  Uiso   1.00
C2     C     0.58970   0.99440   0.08190   0.01267  Uiso   1.00
C3     C     0.15070   0.90390   0.95520   0.01267  Uiso   1.00
C4     C     0.47220   0.56130   0.04470   0.01267  Uiso   1.00
C5     C     0.52880   0.08960   0.97130   0.01267  Uiso   1.00
C6     C     0.25550   0.82890   0.88890   0.01267  Uiso   1.00
C7     C     0.41030   0.00560   0.91810   0.01267  Uiso   1.00
C8     C     0.47120   0.91040   0.02870   0.01267  Uiso   1.00
C9     C     0.52780   0.43870   0.95530   0.01267  Uiso   1.00
C10    C     0.58840   0.60280   0.04640   0.01267  Uiso   1.00
C11    C     0.61050   0.53750   0.99650   0.01267  Uiso   1.00
C12    C     0.00540   0.13080   0.17960   0.01267  Uiso   1.00
C13    C     0.73640   0.81550   0.92360   0.01267  Uiso   1.00
C14    C     0.61740   0.08470   0.05280   0.01267  Uiso   1.00
C15    C     0.38260   0.91530   0.94720   0.01267  Uiso   1.00
C16    C     0.99460   0.86920   0.82040   0.01267  Uiso   1.00
C17    C     0.14950   0.16250   0.92430   0.01267  Uiso   1.00
C18    C     0.74450   0.17110   0.11110   0.01267  Uiso   1.00
C19    C     0.68350   0.71240   0.10510   0.01267  Uiso   1.00
C20    C     0.85050   0.83750   0.07570   0.01267  Uiso   1.00
C21    C     0.41160   0.39720   0.95360   0.01267  Uiso   1.00
C22    C     0.31650   0.28760   0.89490   0.01267  Uiso   1.00
C23    C     0.84930   0.09610   0.04480   0.01267  Uiso   1.00
C24    C     0.26360   0.18450   0.07640   0.01267  Uiso   1.00
N1     N     0.15700   0.85480   0.88270   0.01267  Uiso   1.00
N2     N     0.26090   0.23050   0.94970   0.01267  Uiso   1.00
N3     N     0.85700   0.87040   0.99810   0.01267  Uiso   1.00
N4     N     0.94300   0.16560   0.20480   0.01267  Uiso   1.00
N5     N     0.84300   0.14520   0.11730   0.01267  Uiso   1.00
N6     N     0.66170   0.75090   0.95420   0.01267  Uiso   1.00
N7     N     0.05700   0.83440   0.79520   0.01267  Uiso   1.00
N8     N     0.73910   0.76950   0.05030   0.01267  Uiso   1.00
N9     N     0.14300   0.12960   0.00190   0.01267  Uiso   1.00
N10    N     0.33830   0.24910   0.04580   0.01267  Uiso   1.00
N11    N     0.04810   0.91430   0.92060   0.01267  Uiso   1.00
N12    N     0.95190   0.08570   0.07940   0.01267  Uiso   1.00
O1     O     0.51210   0.99790   0.39880   0.01267  Uiso   1.00
O2     O     0.79710   0.99060   0.65070   0.01267  Uiso   1.00
O3     O     0.21020   0.86770   0.25580   0.01267  Uiso   1.00
O4     O     0.38650   0.00630   0.48290   0.01267  Uiso   1.00
O5     O     0.33020   0.74790   0.30300   0.01267  Uiso   1.00
O6     O     0.37620   0.99440   0.23320   0.01267  Uiso   1.00
O7     O     0.20290   0.00940   0.34930   0.01267  Uiso   1.00
O8     O     0.62870   0.86330   0.67530   0.01267  Uiso   1.00
O9     O     0.87150   0.00100   0.86770   0.01267  Uiso   1.00
O10    O     0.51260   0.88400   0.27830   0.01267  Uiso   1.00
O11    O     0.12850   0.99900   0.13230   0.01267  Uiso   1.00
O12    O     0.37780   0.90200   0.42080   0.01267  Uiso   1.00
O13    O     0.48740   0.11600   0.72170   0.01267  Uiso   1.00
O14    O     0.63510   0.08710   0.33080   0.01267  Uiso   1.00
O15    O     0.80750   0.08440   0.50550   0.01267  Uiso   1.00
O16    O     0.50460   0.74560   0.47730   0.01267  Uiso   1.00
O17    O     0.48790   0.00210   0.60120   0.01267  Uiso   1.00
O18    O     0.61350   0.99370   0.51710   0.01267  Uiso   1.00
O19    O     0.62750   0.24160   0.43630   0.01267  Uiso   1.00
O20    O     0.62380   0.00560   0.76680   0.01267  Uiso   1.00
O21    O     0.78980   0.13230   0.74420   0.01267  Uiso   1.00
O22    O     0.37250   0.75840   0.56370   0.01267  Uiso   1.00
O23    O     0.36490   0.91290   0.66920   0.01267  Uiso   1.00
O24    O     0.49490   0.09380   0.47210   0.01267  Uiso   1.00
O25    O     0.66980   0.25210   0.69700   0.01267  Uiso   1.00
O26    O     0.50510   0.90620   0.52790   0.01267  Uiso   1.00
O27    O     0.20240   0.76340   0.39240   0.01267  Uiso   1.00
O28    O     0.79760   0.23660   0.60760   0.01267  Uiso   1.00
O29    O     0.37130   0.13670   0.32470   0.01267  Uiso   1.00
O30    O     0.49540   0.25440   0.52270   0.01267  Uiso   1.00
O31    O     0.68710   0.88360   0.45160   0.01267  Uiso   1.00
O32    O     0.19250   0.91560   0.49450   0.01267  Uiso   1.00
O33    O     0.31290   0.11640   0.54840   0.01267  Uiso   1.00
O34    O     0.62220   0.09800   0.57920   0.01267  Uiso   1.00
