data_image0
_cell_length_a       26.1377
_cell_length_b       6.7464
_cell_length_c       25.0235
_cell_angle_alpha    90
_cell_angle_beta     105.916
_cell_angle_gamma    90

_symmetry_space_group_name_H-M    "P 1"
_symmetry_int_tables_number       1

loop_
  _symmetry_equiv_pos_as_xyz
  'x, y, z'

loop_
  _atom_site_label
  _atom_site_occupancy
  _atom_site_fract_x
  _atom_site_fract_y
  _atom_site_fract_z
  _atom_site_thermal_displace_type
  _atom_site_B_iso_or_equiv
  _atom_site_type_symbol
  Zn1      1.0000 0.93497  0.88555  0.96576  Biso   1.000  Zn
  O1       1.0000 0.91944  0.05270  0.90059  Biso   1.000  O
  O2       1.0000 0.91544  0.76770  0.85589  Biso   1.000  O
  O3       1.0000 0.99658  0.75180  0.52194  Biso   1.000  O
  O4       1.0000 0.92966  0.94610  0.52834  Biso   1.000  O
  C1       1.0000 0.91441  0.06590  0.80520  Biso   1.000  C
  C2       1.0000 0.90256  0.26490  0.80158  Biso   1.000  C
  H1       1.0000 0.89320  0.32720  0.83070  Biso   1.000  H
  C3       1.0000 0.90442  0.37330  0.75554  Biso   1.000  C
  H2       1.0000 0.89570  0.50720  0.75380  Biso   1.000  H
  C4       1.0000 0.91904  0.28700  0.71170  Biso   1.000  C
  C5       1.0000 0.93051  0.08480  0.71530  Biso   1.000  C
  H3       1.0000 0.94020  0.02220  0.68640  Biso   1.000  H
  C6       1.0000 0.92776  0.97640  0.76112  Biso   1.000  C
  H4       1.0000 0.93500  0.84120  0.76240  Biso   1.000  H
  C7       1.0000 0.91623  0.94960  0.85690  Biso   1.000  C
  C8       1.0000 0.92515  0.40830  0.66408  Biso   1.000  C
  C9       1.0000 0.89514  0.57870  0.64731  Biso   1.000  C
  H5       1.0000 0.86820  0.61120  0.66350  Biso   1.000  H
  C10      1.0000 0.90502  0.70040  0.60676  Biso   1.000  C
  H6       1.0000 0.88470  0.81410  0.59600  Biso   1.000  H
  C11      1.0000 0.94488  0.65490  0.58189  Biso   1.000  C
  C12      1.0000 0.97319  0.48040  0.59672  Biso   1.000  C
  H7       1.0000 0.99930  0.44560  0.57960  Biso   1.000  H
  C13      1.0000 0.96303  0.35860  0.63651  Biso   1.000  C
  H8       1.0000 0.98180  0.24050  0.64530  Biso   1.000  H
  C14      1.0000 0.95826  0.79310  0.54157  Biso   1.000  C
  N1       1.0000 0.88107  0.67900  0.97240  Biso   1.000  N
  C15      1.0000 0.84896  0.70950  0.00519  Biso   1.000  C
  H9       1.0000 0.85250  0.82670  0.02540  Biso   1.000  H
  C16      1.0000 0.81119  0.57570  0.01018  Biso   1.000  C
  H10      1.0000 0.78970  0.60270  0.03340  Biso   1.000  H
  C17      1.0000 0.80502  0.39980  0.98052  Biso   1.000  C
  C18      1.0000 0.83928  0.36740  0.94746  Biso   1.000  C
  H11      1.0000 0.83710  0.25030  0.92740  Biso   1.000  H
  C19      1.0000 0.87601  0.50780  0.94460  Biso   1.000  C
  H12      1.0000 0.89850  0.48320  0.92230  Biso   1.000  H
  C20      1.0000 0.76581  0.24720  0.98360  Biso   1.000  C
  H13      1.0000 0.76310  0.13760  0.96050  Biso   1.000  H
  Zn2      1.0000 0.43497  0.38555  0.96576  Biso   1.000  Zn
  O5       1.0000 0.41944  0.55270  0.90059  Biso   1.000  O
  O6       1.0000 0.41544  0.26770  0.85589  Biso   1.000  O
  O7       1.0000 0.49658  0.25180  0.52194  Biso   1.000  O
  O8       1.0000 0.42966  0.44610  0.52834  Biso   1.000  O
  C21      1.0000 0.41441  0.56590  0.80520  Biso   1.000  C
  C22      1.0000 0.40256  0.76490  0.80158  Biso   1.000  C
  H14      1.0000 0.39320  0.82720  0.83070  Biso   1.000  H
  C23      1.0000 0.40442  0.87330  0.75554  Biso   1.000  C
  H15      1.0000 0.39570  0.00720  0.75380  Biso   1.000  H
  C24      1.0000 0.41904  0.78700  0.71170  Biso   1.000  C
  C25      1.0000 0.43051  0.58480  0.71530  Biso   1.000  C
  H16      1.0000 0.44020  0.52220  0.68640  Biso   1.000  H
  C26      1.0000 0.42776  0.47640  0.76112  Biso   1.000  C
  H17      1.0000 0.43500  0.34120  0.76240  Biso   1.000  H
  C27      1.0000 0.41623  0.44960  0.85690  Biso   1.000  C
  C28      1.0000 0.42515  0.90830  0.66408  Biso   1.000  C
  C29      1.0000 0.39514  0.07870  0.64731  Biso   1.000  C
  H18      1.0000 0.36820  0.11120  0.66350  Biso   1.000  H
  C30      1.0000 0.40502  0.20040  0.60676  Biso   1.000  C
  H19      1.0000 0.38470  0.31410  0.59600  Biso   1.000  H
  C31      1.0000 0.44488  0.15490  0.58189  Biso   1.000  C
  C32      1.0000 0.47319  0.98040  0.59672  Biso   1.000  C
  H20      1.0000 0.49930  0.94560  0.57960  Biso   1.000  H
  C33      1.0000 0.46303  0.85860  0.63651  Biso   1.000  C
  H21      1.0000 0.48180  0.74050  0.64530  Biso   1.000  H
  C34      1.0000 0.45826  0.29310  0.54157  Biso   1.000  C
  N2       1.0000 0.38107  0.17900  0.97240  Biso   1.000  N
  C35      1.0000 0.34896  0.20950  0.00519  Biso   1.000  C
  H22      1.0000 0.35250  0.32670  0.02540  Biso   1.000  H
  C36      1.0000 0.31119  0.07570  0.01018  Biso   1.000  C
  H23      1.0000 0.28970  0.10270  0.03340  Biso   1.000  H
  C37      1.0000 0.30502  0.89980  0.98052  Biso   1.000  C
  C38      1.0000 0.33928  0.86740  0.94746  Biso   1.000  C
  H24      1.0000 0.33710  0.75030  0.92740  Biso   1.000  H
  C39      1.0000 0.37601  0.00780  0.94460  Biso   1.000  C
  H25      1.0000 0.39850  0.98320  0.92230  Biso   1.000  H
  C40      1.0000 0.26581  0.74720  0.98360  Biso   1.000  C
  H26      1.0000 0.26310  0.63760  0.96050  Biso   1.000  H
  Zn3      1.0000 0.06503  0.88555  0.53424  Biso   1.000  Zn
  O9       1.0000 0.08056  0.05270  0.59941  Biso   1.000  O
  O10      1.0000 0.08456  0.76770  0.64411  Biso   1.000  O
  O11      1.0000 0.00342  0.75180  0.97806  Biso   1.000  O
  O12      1.0000 0.07034  0.94610  0.97166  Biso   1.000  O
  C41      1.0000 0.08559  0.06590  0.69480  Biso   1.000  C
  C42      1.0000 0.09744  0.26490  0.69842  Biso   1.000  C
  H27      1.0000 0.10680  0.32720  0.66930  Biso   1.000  H
  C43      1.0000 0.09558  0.37330  0.74446  Biso   1.000  C
  H28      1.0000 0.10430  0.50720  0.74620  Biso   1.000  H
  C44      1.0000 0.08096  0.28700  0.78830  Biso   1.000  C
  C45      1.0000 0.06949  0.08480  0.78470  Biso   1.000  C
  H29      1.0000 0.05980  0.02220  0.81360  Biso   1.000  H
  C46      1.0000 0.07224  0.97640  0.73888  Biso   1.000  C
  H30      1.0000 0.06500  0.84120  0.73760  Biso   1.000  H
  C47      1.0000 0.08377  0.94960  0.64310  Biso   1.000  C
  C48      1.0000 0.07485  0.40830  0.83592  Biso   1.000  C
  C49      1.0000 0.10486  0.57870  0.85269  Biso   1.000  C
  H31      1.0000 0.13180  0.61120  0.83650  Biso   1.000  H
  C50      1.0000 0.09498  0.70040  0.89324  Biso   1.000  C
  H32      1.0000 0.11530  0.81410  0.90400  Biso   1.000  H
  C51      1.0000 0.05512  0.65490  0.91811  Biso   1.000  C
  C52      1.0000 0.02681  0.48040  0.90328  Biso   1.000  C
  H33      1.0000 0.00070  0.44560  0.92040  Biso   1.000  H
  C53      1.0000 0.03697  0.35860  0.86349  Biso   1.000  C
  H34      1.0000 0.01820  0.24050  0.85470  Biso   1.000  H
  C54      1.0000 0.04174  0.79310  0.95843  Biso   1.000  C
  N3       1.0000 0.11893  0.67900  0.52760  Biso   1.000  N
  C55      1.0000 0.15104  0.70950  0.49481  Biso   1.000  C
  H35      1.0000 0.14750  0.82670  0.47460  Biso   1.000  H
  C56      1.0000 0.18881  0.57570  0.48982  Biso   1.000  C
  H36      1.0000 0.21030  0.60270  0.46660  Biso   1.000  H
  C57      1.0000 0.19498  0.39980  0.51948  Biso   1.000  C
  C58      1.0000 0.16072  0.36740  0.55254  Biso   1.000  C
  H37      1.0000 0.16290  0.25030  0.57260  Biso   1.000  H
  C59      1.0000 0.12399  0.50780  0.55540  Biso   1.000  C
  H38      1.0000 0.10150  0.48320  0.57770  Biso   1.000  H
  C60      1.0000 0.23419  0.24720  0.51640  Biso   1.000  C
  H39      1.0000 0.23690  0.13760  0.53950  Biso   1.000  H
  Zn4      1.0000 0.56503  0.38555  0.53424  Biso   1.000  Zn
  O13      1.0000 0.58056  0.55270  0.59941  Biso   1.000  O
  O14      1.0000 0.58456  0.26770  0.64411  Biso   1.000  O
  O15      1.0000 0.50342  0.25180  0.97806  Biso   1.000  O
  O16      1.0000 0.57034  0.44610  0.97166  Biso   1.000  O
  C61      1.0000 0.58559  0.56590  0.69480  Biso   1.000  C
  C62      1.0000 0.59744  0.76490  0.69842  Biso   1.000  C
  H40      1.0000 0.60680  0.82720  0.66930  Biso   1.000  H
  C63      1.0000 0.59558  0.87330  0.74446  Biso   1.000  C
  H41      1.0000 0.60430  0.00720  0.74620  Biso   1.000  H
  C64      1.0000 0.58096  0.78700  0.78830  Biso   1.000  C
  C65      1.0000 0.56949  0.58480  0.78470  Biso   1.000  C
  H42      1.0000 0.55980  0.52220  0.81360  Biso   1.000  H
  C66      1.0000 0.57224  0.47640  0.73888  Biso   1.000  C
  H43      1.0000 0.56500  0.34120  0.73760  Biso   1.000  H
  C67      1.0000 0.58377  0.44960  0.64310  Biso   1.000  C
  C68      1.0000 0.57485  0.90830  0.83592  Biso   1.000  C
  C69      1.0000 0.60486  0.07870  0.85269  Biso   1.000  C
  H44      1.0000 0.63180  0.11120  0.83650  Biso   1.000  H
  C70      1.0000 0.59498  0.20040  0.89324  Biso   1.000  C
  H45      1.0000 0.61530  0.31410  0.90400  Biso   1.000  H
  C71      1.0000 0.55512  0.15490  0.91811  Biso   1.000  C
  C72      1.0000 0.52681  0.98040  0.90328  Biso   1.000  C
  H46      1.0000 0.50070  0.94560  0.92040  Biso   1.000  H
  C73      1.0000 0.53697  0.85860  0.86349  Biso   1.000  C
  H47      1.0000 0.51820  0.74050  0.85470  Biso   1.000  H
  C74      1.0000 0.54174  0.29310  0.95843  Biso   1.000  C
  N4       1.0000 0.61893  0.17900  0.52760  Biso   1.000  N
  C75      1.0000 0.65104  0.20950  0.49481  Biso   1.000  C
  H48      1.0000 0.64750  0.32670  0.47460  Biso   1.000  H
  C76      1.0000 0.68881  0.07570  0.48982  Biso   1.000  C
  H49      1.0000 0.71030  0.10270  0.46660  Biso   1.000  H
  C77      1.0000 0.69498  0.89980  0.51948  Biso   1.000  C
  C78      1.0000 0.66072  0.86740  0.55254  Biso   1.000  C
  H50      1.0000 0.66290  0.75030  0.57260  Biso   1.000  H
  C79      1.0000 0.62399  0.00780  0.55540  Biso   1.000  C
  H51      1.0000 0.60150  0.98320  0.57770  Biso   1.000  H
  C80      1.0000 0.73419  0.74720  0.51640  Biso   1.000  C
  H52      1.0000 0.73690  0.63760  0.53950  Biso   1.000  H
  Zn5      1.0000 0.06503  0.11445  0.03424  Biso   1.000  Zn
  O17      1.0000 0.08056  0.94730  0.09941  Biso   1.000  O
  O18      1.0000 0.08456  0.23230  0.14411  Biso   1.000  O
  O19      1.0000 0.00342  0.24820  0.47806  Biso   1.000  O
  O20      1.0000 0.07034  0.05390  0.47166  Biso   1.000  O
  C81      1.0000 0.08559  0.93410  0.19480  Biso   1.000  C
  C82      1.0000 0.09744  0.73510  0.19842  Biso   1.000  C
  H53      1.0000 0.10680  0.67280  0.16930  Biso   1.000  H
  C83      1.0000 0.09558  0.62670  0.24446  Biso   1.000  C
  H54      1.0000 0.10430  0.49280  0.24620  Biso   1.000  H
  C84      1.0000 0.08096  0.71300  0.28830  Biso   1.000  C
  C85      1.0000 0.06949  0.91520  0.28470  Biso   1.000  C
  H55      1.0000 0.05980  0.97780  0.31360  Biso   1.000  H
  C86      1.0000 0.07224  0.02360  0.23888  Biso   1.000  C
  H56      1.0000 0.06500  0.15880  0.23760  Biso   1.000  H
  C87      1.0000 0.08377  0.05040  0.14310  Biso   1.000  C
  C88      1.0000 0.07485  0.59170  0.33592  Biso   1.000  C
  C89      1.0000 0.10486  0.42130  0.35269  Biso   1.000  C
  H57      1.0000 0.13180  0.38880  0.33650  Biso   1.000  H
  C90      1.0000 0.09498  0.29960  0.39324  Biso   1.000  C
  H58      1.0000 0.11530  0.18590  0.40400  Biso   1.000  H
  C91      1.0000 0.05512  0.34510  0.41811  Biso   1.000  C
  C92      1.0000 0.02681  0.51960  0.40328  Biso   1.000  C
  H59      1.0000 0.00070  0.55440  0.42040  Biso   1.000  H
  C93      1.0000 0.03697  0.64140  0.36349  Biso   1.000  C
  H60      1.0000 0.01820  0.75950  0.35470  Biso   1.000  H
  C94      1.0000 0.04174  0.20690  0.45843  Biso   1.000  C
  N5       1.0000 0.11893  0.32100  0.02760  Biso   1.000  N
  C95      1.0000 0.15104  0.29050  0.99481  Biso   1.000  C
  H61      1.0000 0.14750  0.17330  0.97460  Biso   1.000  H
  C96      1.0000 0.18881  0.42430  0.98982  Biso   1.000  C
  H62      1.0000 0.21030  0.39730  0.96660  Biso   1.000  H
  C97      1.0000 0.19498  0.60020  0.01948  Biso   1.000  C
  C98      1.0000 0.16072  0.63260  0.05254  Biso   1.000  C
  H63      1.0000 0.16290  0.74970  0.07260  Biso   1.000  H
  C99      1.0000 0.12399  0.49220  0.05540  Biso   1.000  C
  H64      1.0000 0.10150  0.51680  0.07770  Biso   1.000  H
  C100     1.0000 0.23419  0.75280  0.01640  Biso   1.000  C
  H65      1.0000 0.23690  0.86240  0.03950  Biso   1.000  H
  Zn6      1.0000 0.56503  0.61445  0.03424  Biso   1.000  Zn
  O21      1.0000 0.58056  0.44730  0.09941  Biso   1.000  O
  O22      1.0000 0.58456  0.73230  0.14411  Biso   1.000  O
  O23      1.0000 0.50342  0.74820  0.47806  Biso   1.000  O
  O24      1.0000 0.57034  0.55390  0.47166  Biso   1.000  O
  C101     1.0000 0.58559  0.43410  0.19480  Biso   1.000  C
  C102     1.0000 0.59744  0.23510  0.19842  Biso   1.000  C
  H66      1.0000 0.60680  0.17280  0.16930  Biso   1.000  H
  C103     1.0000 0.59558  0.12670  0.24446  Biso   1.000  C
  H67      1.0000 0.60430  0.99280  0.24620  Biso   1.000  H
  C104     1.0000 0.58096  0.21300  0.28830  Biso   1.000  C
  C105     1.0000 0.56949  0.41520  0.28470  Biso   1.000  C
  H68      1.0000 0.55980  0.47780  0.31360  Biso   1.000  H
  C106     1.0000 0.57224  0.52360  0.23888  Biso   1.000  C
  H69      1.0000 0.56500  0.65880  0.23760  Biso   1.000  H
  C107     1.0000 0.58377  0.55040  0.14310  Biso   1.000  C
  C108     1.0000 0.57485  0.09170  0.33592  Biso   1.000  C
  C109     1.0000 0.60486  0.92130  0.35269  Biso   1.000  C
  H70      1.0000 0.63180  0.88880  0.33650  Biso   1.000  H
  C110     1.0000 0.59498  0.79960  0.39324  Biso   1.000  C
  H71      1.0000 0.61530  0.68590  0.40400  Biso   1.000  H
  C111     1.0000 0.55512  0.84510  0.41811  Biso   1.000  C
  C112     1.0000 0.52681  0.01960  0.40328  Biso   1.000  C
  H72      1.0000 0.50070  0.05440  0.42040  Biso   1.000  H
  C113     1.0000 0.53697  0.14140  0.36349  Biso   1.000  C
  H73      1.0000 0.51820  0.25950  0.35470  Biso   1.000  H
  C114     1.0000 0.54174  0.70690  0.45843  Biso   1.000  C
  N6       1.0000 0.61893  0.82100  0.02760  Biso   1.000  N
  C115     1.0000 0.65104  0.79050  0.99481  Biso   1.000  C
  H74      1.0000 0.64750  0.67330  0.97460  Biso   1.000  H
  C116     1.0000 0.68881  0.92430  0.98982  Biso   1.000  C
  H75      1.0000 0.71030  0.89730  0.96660  Biso   1.000  H
  C117     1.0000 0.69498  0.10020  0.01948  Biso   1.000  C
  C118     1.0000 0.66072  0.13260  0.05254  Biso   1.000  C
  H76      1.0000 0.66290  0.24970  0.07260  Biso   1.000  H
  C119     1.0000 0.62399  0.99220  0.05540  Biso   1.000  C
  H77      1.0000 0.60150  0.01680  0.07770  Biso   1.000  H
  C120     1.0000 0.73419  0.25280  0.01640  Biso   1.000  C
  H78      1.0000 0.73690  0.36240  0.03950  Biso   1.000  H
  Zn7      1.0000 0.93497  0.11445  0.46576  Biso   1.000  Zn
  O25      1.0000 0.91944  0.94730  0.40059  Biso   1.000  O
  O26      1.0000 0.91544  0.23230  0.35589  Biso   1.000  O
  O27      1.0000 0.99658  0.24820  0.02194  Biso   1.000  O
  O28      1.0000 0.92966  0.05390  0.02834  Biso   1.000  O
  C121     1.0000 0.91441  0.93410  0.30520  Biso   1.000  C
  C122     1.0000 0.90256  0.73510  0.30158  Biso   1.000  C
  H79      1.0000 0.89320  0.67280  0.33070  Biso   1.000  H
  C123     1.0000 0.90442  0.62670  0.25554  Biso   1.000  C
  H80      1.0000 0.89570  0.49280  0.25380  Biso   1.000  H
  C124     1.0000 0.91904  0.71300  0.21170  Biso   1.000  C
  C125     1.0000 0.93051  0.91520  0.21530  Biso   1.000  C
  H81      1.0000 0.94020  0.97780  0.18640  Biso   1.000  H
  C126     1.0000 0.92776  0.02360  0.26112  Biso   1.000  C
  H82      1.0000 0.93500  0.15880  0.26240  Biso   1.000  H
  C127     1.0000 0.91623  0.05040  0.35690  Biso   1.000  C
  C128     1.0000 0.92515  0.59170  0.16408  Biso   1.000  C
  C129     1.0000 0.89514  0.42130  0.14731  Biso   1.000  C
  H83      1.0000 0.86820  0.38880  0.16350  Biso   1.000  H
  C130     1.0000 0.90502  0.29960  0.10676  Biso   1.000  C
  H84      1.0000 0.88470  0.18590  0.09600  Biso   1.000  H
  C131     1.0000 0.94488  0.34510  0.08189  Biso   1.000  C
  C132     1.0000 0.97319  0.51960  0.09672  Biso   1.000  C
  H85      1.0000 0.99930  0.55440  0.07960  Biso   1.000  H
  C133     1.0000 0.96303  0.64140  0.13651  Biso   1.000  C
  H86      1.0000 0.98180  0.75950  0.14530  Biso   1.000  H
  C134     1.0000 0.95826  0.20690  0.04157  Biso   1.000  C
  N7       1.0000 0.88107  0.32100  0.47240  Biso   1.000  N
  C135     1.0000 0.84896  0.29050  0.50519  Biso   1.000  C
  H87      1.0000 0.85250  0.17330  0.52540  Biso   1.000  H
  C136     1.0000 0.81119  0.42430  0.51018  Biso   1.000  C
  H88      1.0000 0.78970  0.39730  0.53340  Biso   1.000  H
  C137     1.0000 0.80502  0.60020  0.48052  Biso   1.000  C
  C138     1.0000 0.83928  0.63260  0.44746  Biso   1.000  C
  H89      1.0000 0.83710  0.74970  0.42740  Biso   1.000  H
  C139     1.0000 0.87601  0.49220  0.44460  Biso   1.000  C
  H90      1.0000 0.89850  0.51680  0.42230  Biso   1.000  H
  C140     1.0000 0.76581  0.75280  0.48360  Biso   1.000  C
  H91      1.0000 0.76310  0.86240  0.46050  Biso   1.000  H
  Zn8      1.0000 0.43497  0.61445  0.46576  Biso   1.000  Zn
  O29      1.0000 0.41944  0.44730  0.40059  Biso   1.000  O
  O30      1.0000 0.41544  0.73230  0.35589  Biso   1.000  O
  O31      1.0000 0.49658  0.74820  0.02194  Biso   1.000  O
  O32      1.0000 0.42966  0.55390  0.02834  Biso   1.000  O
  C141     1.0000 0.41441  0.43410  0.30520  Biso   1.000  C
  C142     1.0000 0.40256  0.23510  0.30158  Biso   1.000  C
  H92      1.0000 0.39320  0.17280  0.33070  Biso   1.000  H
  C143     1.0000 0.40442  0.12670  0.25554  Biso   1.000  C
  H93      1.0000 0.39570  0.99280  0.25380  Biso   1.000  H
  C144     1.0000 0.41904  0.21300  0.21170  Biso   1.000  C
  C145     1.0000 0.43051  0.41520  0.21530  Biso   1.000  C
  H94      1.0000 0.44020  0.47780  0.18640  Biso   1.000  H
  C146     1.0000 0.42776  0.52360  0.26112  Biso   1.000  C
  H95      1.0000 0.43500  0.65880  0.26240  Biso   1.000  H
  C147     1.0000 0.41623  0.55040  0.35690  Biso   1.000  C
  C148     1.0000 0.42515  0.09170  0.16408  Biso   1.000  C
  C149     1.0000 0.39514  0.92130  0.14731  Biso   1.000  C
  H96      1.0000 0.36820  0.88880  0.16350  Biso   1.000  H
  C150     1.0000 0.40502  0.79960  0.10676  Biso   1.000  C
  H97      1.0000 0.38470  0.68590  0.09600  Biso   1.000  H
  C151     1.0000 0.44488  0.84510  0.08189  Biso   1.000  C
  C152     1.0000 0.47319  0.01960  0.09672  Biso   1.000  C
  H98      1.0000 0.49930  0.05440  0.07960  Biso   1.000  H
  C153     1.0000 0.46303  0.14140  0.13651  Biso   1.000  C
  H99      1.0000 0.48180  0.25950  0.14530  Biso   1.000  H
  C154     1.0000 0.45826  0.70690  0.04157  Biso   1.000  C
  N8       1.0000 0.38107  0.82100  0.47240  Biso   1.000  N
  C155     1.0000 0.34896  0.79050  0.50519  Biso   1.000  C
  H100     1.0000 0.35250  0.67330  0.52540  Biso   1.000  H
  C156     1.0000 0.31119  0.92430  0.51018  Biso   1.000  C
  H101     1.0000 0.28970  0.89730  0.53340  Biso   1.000  H
  C157     1.0000 0.30502  0.10020  0.48052  Biso   1.000  C
  C158     1.0000 0.33928  0.13260  0.44746  Biso   1.000  C
  H102     1.0000 0.33710  0.24970  0.42740  Biso   1.000  H
  C159     1.0000 0.37601  0.99220  0.44460  Biso   1.000  C
  H103     1.0000 0.39850  0.01680  0.42230  Biso   1.000  H
  C160     1.0000 0.26581  0.25280  0.48360  Biso   1.000  C
  H104     1.0000 0.26310  0.36240  0.46050  Biso   1.000  H
