data_ICAWUF_clean
_audit_creation_date              2014-07-02
_audit_creation_method            'Materials Studio'
_symmetry_space_group_name_H-M    'P1'
_symmetry_Int_Tables_number       1
_symmetry_cell_setting            triclinic
loop_
_symmetry_equiv_pos_as_xyz
  x,y,z
_cell_length_a                    6.7017
_cell_length_b                    19.0658
_cell_length_c                    65.5397
_cell_angle_alpha                 89.4853
_cell_angle_beta                  87.0699
_cell_angle_gamma                 79.8775
loop_
_atom_site_label
_atom_site_type_symbol
_atom_site_fract_x
_atom_site_fract_y
_atom_site_fract_z
_atom_site_U_iso_or_equiv
_atom_site_adp_type
_atom_site_occupancy
Cd1    Cd    0.84839   0.60254   0.83128   0.01267  Uiso   1.00
Cd2    Cd    0.33695   0.65014   0.85936   0.01267  Uiso   1.00
Cd3    Cd    0.28221   0.39746   0.16872   0.01267  Uiso   1.00
Cd4    Cd    0.84645   0.34986   0.14064   0.01267  Uiso   1.00
Cd5    Cd    0.42967   0.10254   0.66872   0.01267  Uiso   1.00
Cd6    Cd    0.94631   0.15014   0.64064   0.01267  Uiso   1.00
Cd7    Cd    0.20093   0.89746   0.33128   0.01267  Uiso   1.00
Cd8    Cd    0.73709   0.84986   0.35936   0.01267  Uiso   1.00
Cd9    Cd    0.01430  -0.00000   0.00000   0.01267  Uiso   1.00
Cd10   Cd    0.76430   0.50000   0.50000   0.01267  Uiso   1.00
H1     H     0.03620   0.02760   0.67840   0.01267  Uiso   1.00
H2     H     0.85470   0.98580   0.70280   0.01267  Uiso   1.00
H3     H     0.22930   0.03720   0.74260   0.01267  Uiso   1.00
H4     H     0.38880   0.09400   0.71740   0.01267  Uiso   1.00
H5     H     0.99080   0.96080   0.75480   0.01267  Uiso   1.00
H6     H     0.71720   0.93540   0.72760   0.01267  Uiso   1.00
H7     H     0.44990   0.87400   0.73740   0.01267  Uiso   1.00
H8     H     0.29860   0.80440   0.76020   0.01267  Uiso   1.00
H9     H     0.72500   0.81480   0.79980   0.01267  Uiso   1.00
H10    H     0.87150   0.88920   0.77780   0.01267  Uiso   1.00
H11    H     0.44960   0.75620   0.81060   0.01267  Uiso   1.00
H12    H     0.18960   0.72980   0.78200   0.01267  Uiso   1.00
H13    H     0.00910   0.06000   0.95540   0.01267  Uiso   1.00
H14    H     0.80750   0.13740   0.93440   0.01267  Uiso   1.00
H15    H     0.33530   0.14220   0.97520   0.01267  Uiso   1.00
H16    H     0.54360   0.05960   0.99340   0.01267  Uiso   1.00
H17    H     0.47970   0.21580   0.92720   0.01267  Uiso   1.00
H18    H     0.17650   0.21820   0.95560   0.01267  Uiso   1.00
H19    H     0.30490   0.29260   0.90700   0.01267  Uiso   1.00
H20    H     0.09540   0.38080   0.88980   0.01267  Uiso   1.00
H21    H     0.65170   0.38140   0.93240   0.01267  Uiso   1.00
H22    H     0.86370   0.29820   0.95160   0.01267  Uiso   1.00
H23    H     0.62160   0.47580   0.90840   0.01267  Uiso   1.00
H24    H     0.87420   0.46020   0.87420   0.01267  Uiso   1.00
H25    H     0.81900   0.12140   0.75640   0.01267  Uiso   1.00
H26    H     0.64120   0.04520   0.77380   0.01267  Uiso   1.00
H27    H     0.19840   0.20400   0.78560   0.01267  Uiso   1.00
H28    H     0.35230   0.27500   0.76660   0.01267  Uiso   1.00
H29    H     0.38680   0.01320   0.79300   0.01267  Uiso   1.00
H30    H     0.05270   0.10920   0.80160   0.01267  Uiso   1.00
H31    H     0.26180   0.92480   0.81340   0.01267  Uiso   1.00
H32    H     0.07940   0.85020   0.82940   0.01267  Uiso   1.00
H33    H     0.58110   0.00520   0.83380   0.01267  Uiso   1.00
H34    H     0.78370   0.08280   0.81960   0.01267  Uiso   1.00
H35    H     0.55640   0.88920   0.84780   0.01267  Uiso   1.00
H36    H     0.86210   0.77740   0.83900   0.01267  Uiso   1.00
H37    H     0.01720   0.60040   0.89020   0.01267  Uiso   1.00
H38    H     0.70920   0.63820   0.90720   0.01267  Uiso   1.00
H39    H     0.79270   0.83660   0.89580   0.01267  Uiso   1.00
H40    H     0.08700   0.79400   0.87740   0.01267  Uiso   1.00
H41    H     0.50470   0.82400   0.91860   0.01267  Uiso   1.00
H42    H     0.40730   0.69260   0.92060   0.01267  Uiso   1.00
H43    H     0.09470   0.68900   0.94140   0.01267  Uiso   1.00
H44    H     0.79560   0.74260   0.95960   0.01267  Uiso   1.00
H45    H     0.91090   0.93240   0.94000   0.01267  Uiso   1.00
H46    H     0.21100   0.87860   0.92480   0.01267  Uiso   1.00
H47    H     0.60090   0.93640   0.95720   0.01267  Uiso   1.00
H48    H     0.49080   0.81220   0.97040   0.01267  Uiso   1.00
H49    H     0.74220   0.97240   0.32160   0.01267  Uiso   1.00
H50    H     0.54330   0.01420   0.29720   0.01267  Uiso   1.00
H51    H     0.00910   0.96280   0.25740   0.01267  Uiso   1.00
H52    H     0.20020   0.90600   0.28260   0.01267  Uiso   1.00
H53    H     0.70640   0.03920   0.24520   0.01267  Uiso   1.00
H54    H     0.38020   0.06460   0.27240   0.01267  Uiso   1.00
H55    H     0.06130   0.12600   0.26260   0.01267  Uiso   1.00
H56    H     0.86320   0.19560   0.23980   0.01267  Uiso   1.00
H57    H     0.33960   0.18520   0.20020   0.01267  Uiso   1.00
H58    H     0.53850   0.11080   0.22220   0.01267  Uiso   1.00
H59    H     0.01640   0.24380   0.18940   0.01267  Uiso   1.00
H60    H     0.70140   0.27020   0.21800   0.01267  Uiso   1.00
H61    H     0.02450   0.94000   0.04460   0.01267  Uiso   1.00
H62    H     0.87930   0.86260   0.06560   0.01267  Uiso   1.00
H63    H     0.45270   0.85780   0.02480   0.01267  Uiso   1.00
H64    H     0.59660   0.94040   0.00660   0.01267  Uiso   1.00
H65    H     0.62270   0.78420   0.07280   0.01267  Uiso   1.00
H66    H     0.35030   0.78180   0.04440   0.01267  Uiso   1.00
H67    H     0.50450   0.70740   0.09300   0.01267  Uiso   1.00
H68    H     0.36600   0.61920   0.11020   0.01267  Uiso   1.00
H69    H     0.96550   0.61860   0.06760   0.01267  Uiso   1.00
H70    H     0.11350   0.70180   0.04840   0.01267  Uiso   1.00
H71    H     0.00580   0.52420   0.09160   0.01267  Uiso   1.00
H72    H     0.20860   0.53980   0.12580   0.01267  Uiso   1.00
H73    H     0.69680   0.87860   0.24360   0.01267  Uiso   1.00
H74    H     0.46020   0.95480   0.22620   0.01267  Uiso   1.00
H75    H     0.18800   0.79600   0.21440   0.01267  Uiso   1.00
H76    H     0.39390   0.72500   0.23340   0.01267  Uiso   1.00
H77    H     0.19300   0.98680   0.20700   0.01267  Uiso   1.00
H78    H     0.96350   0.89080   0.19840   0.01267  Uiso   1.00
H79    H     0.00000   0.07520   0.18660   0.01267  Uiso   1.00
H80    H     0.75900   0.14980   0.17060   0.01267  Uiso   1.00
H81    H     0.42010   0.99480   0.16620   0.01267  Uiso   1.00
H82    H     0.68610   0.91720   0.18040   0.01267  Uiso   1.00
H83    H     0.29340   0.11080   0.15220   0.01267  Uiso   1.00
H84    H     0.47850   0.22260   0.16100   0.01267  Uiso   1.00
H85    H     0.50780   0.39960   0.10980   0.01267  Uiso   1.00
H86    H     0.25460   0.36180   0.09280   0.01267  Uiso   1.00
H87    H     0.52510   0.16340   0.10420   0.01267  Uiso   1.00
H88    H     0.75840   0.20600   0.12260   0.01267  Uiso   1.00
H89    H     0.24730   0.17600   0.08140   0.01267  Uiso   1.00
H90    H     0.02050   0.30740   0.07940   0.01267  Uiso   1.00
H91    H     0.72510   0.31100   0.05860   0.01267  Uiso   1.00
H92    H     0.49780   0.25740   0.04040   0.01267  Uiso   1.00
H93    H     0.78330   0.06760   0.06000   0.01267  Uiso   1.00
H94    H     0.01440   0.12140   0.07520   0.01267  Uiso   1.00
H95    H     0.49450   0.06360   0.04280   0.01267  Uiso   1.00
H96    H     0.27340   0.18780   0.02960   0.01267  Uiso   1.00
H97    H     0.46460   0.52760   0.82160   0.01267  Uiso   1.00
H98    H     0.30750   0.48580   0.79720   0.01267  Uiso   1.00
H99    H     0.72190   0.53720   0.75740   0.01267  Uiso   1.00
H100   H     0.85620   0.59400   0.78260   0.01267  Uiso   1.00
H101   H     0.49560   0.46080   0.74520   0.01267  Uiso   1.00
H102   H     0.19480   0.43540   0.77240   0.01267  Uiso   1.00
H103   H     0.93730   0.37400   0.76260   0.01267  Uiso   1.00
H104   H     0.80880   0.30440   0.73980   0.01267  Uiso   1.00
H105   H     0.27480   0.31480   0.70020   0.01267  Uiso   1.00
H106   H     0.39930   0.38920   0.72220   0.01267  Uiso   1.00
H107   H     0.01020   0.25620   0.68940   0.01267  Uiso   1.00
H108   H     0.72160   0.22980   0.71800   0.01267  Uiso   1.00
H109   H     0.71450   0.56000   0.54460   0.01267  Uiso   1.00
H110   H     0.49190   0.63740   0.56560   0.01267  Uiso   1.00
H111   H     0.06050   0.64220   0.52480   0.01267  Uiso   1.00
H112   H     0.28700   0.55960   0.50660   0.01267  Uiso   1.00
H113   H     0.15690   0.71580   0.57280   0.01267  Uiso   1.00
H114   H     0.88210   0.71820   0.54440   0.01267  Uiso   1.00
H115   H     0.96190   0.79260   0.59300   0.01267  Uiso   1.00
H116   H     0.73520   0.88080   0.61020   0.01267  Uiso   1.00
H117   H     0.33410   0.88140   0.56760   0.01267  Uiso   1.00
H118   H     0.56530   0.79820   0.54840   0.01267  Uiso   1.00
H119   H     0.28000   0.97580   0.59160   0.01267  Uiso   1.00
H120   H     0.49840   0.96020   0.62580   0.01267  Uiso   1.00
H121   H     0.32540   0.62140   0.74360   0.01267  Uiso   1.00
H122   H     0.16500   0.54520   0.72620   0.01267  Uiso   1.00
H123   H     0.73400   0.70400   0.71440   0.01267  Uiso   1.00
H124   H     0.86890   0.77500   0.73340   0.01267  Uiso   1.00
H125   H     0.92980   0.51320   0.70700   0.01267  Uiso   1.00
H126   H     0.60430   0.60920   0.69840   0.01267  Uiso   1.00
H127   H     0.82520   0.42480   0.68660   0.01267  Uiso   1.00
H128   H     0.65880   0.35020   0.67060   0.01267  Uiso   1.00
H129   H     0.16490   0.50520   0.66620   0.01267  Uiso   1.00
H130   H     0.35330   0.58280   0.68040   0.01267  Uiso   1.00
H131   H     0.15420   0.38920   0.65220   0.01267  Uiso   1.00
H132   H     0.45110   0.27740   0.66100   0.01267  Uiso   1.00
H133   H     0.65740   0.10040   0.60980   0.01267  Uiso   1.00
H134   H     0.36640   0.13820   0.59280   0.01267  Uiso   1.00
H135   H     0.43850   0.33660   0.60420   0.01267  Uiso   1.00
H136   H     0.71440   0.29400   0.62260   0.01267  Uiso   1.00
H137   H     0.17330   0.32400   0.58140   0.01267  Uiso   1.00
H138   H     0.07790   0.19260   0.57940   0.01267  Uiso   1.00
H139   H     0.78610   0.18900   0.55860   0.01267  Uiso   1.00
H140   H     0.50520   0.24260   0.54040   0.01267  Uiso   1.00
H141   H     0.60090   0.43240   0.56000   0.01267  Uiso   1.00
H142   H     0.88580   0.37860   0.57520   0.01267  Uiso   1.00
H143   H     0.30810   0.43640   0.54280   0.01267  Uiso   1.00
H144   H     0.21120   0.31220   0.52960   0.01267  Uiso   1.00
H145   H     0.81380   0.47240   0.17840   0.01267  Uiso   1.00
H146   H     0.59050   0.51420   0.20280   0.01267  Uiso   1.00
H147   H     0.01650   0.46280   0.24260   0.01267  Uiso   1.00
H148   H     0.23280   0.40600   0.21740   0.01267  Uiso   1.00
H149   H     0.70160   0.53920   0.25480   0.01267  Uiso   1.00
H150   H     0.40260   0.56460   0.22760   0.01267  Uiso   1.00
H151   H     0.07390   0.62600   0.23740   0.01267  Uiso   1.00
H152   H     0.85300   0.69560   0.26020   0.01267  Uiso   1.00
H153   H     0.28980   0.68520   0.29980   0.01267  Uiso   1.00
H154   H     0.51070   0.61080   0.27780   0.01267  Uiso   1.00
H155   H     0.95580   0.74380   0.31060   0.01267  Uiso   1.00
H156   H     0.66940   0.77020   0.28200   0.01267  Uiso   1.00
H157   H     0.81910   0.44000   0.45540   0.01267  Uiso   1.00
H158   H     0.69490   0.36260   0.43440   0.01267  Uiso   1.00
H159   H     0.22750   0.35780   0.47520   0.01267  Uiso   1.00
H160   H     0.35320   0.44040   0.49340   0.01267  Uiso   1.00
H161   H     0.44550   0.28420   0.42720   0.01267  Uiso   1.00
H162   H     0.14470   0.28180   0.45560   0.01267  Uiso   1.00
H163   H     0.34750   0.20740   0.40700   0.01267  Uiso   1.00
H164   H     0.22620   0.11920   0.38980   0.01267  Uiso   1.00
H165   H     0.78310   0.11860   0.43240   0.01267  Uiso   1.00
H166   H     0.91190   0.20180   0.45160   0.01267  Uiso   1.00
H167   H     0.84740   0.02420   0.40840   0.01267  Uiso   1.00
H168   H     0.08440   0.03980   0.37420   0.01267  Uiso   1.00
H169   H     0.69040   0.37860   0.25640   0.01267  Uiso   1.00
H170   H     0.43640   0.45480   0.27380   0.01267  Uiso   1.00
H171   H     0.15240   0.29600   0.28560   0.01267  Uiso   1.00
H172   H     0.37730   0.22500   0.26660   0.01267  Uiso   1.00
H173   H     0.15000   0.48680   0.29300   0.01267  Uiso   1.00
H174   H     0.91190   0.39080   0.30160   0.01267  Uiso   1.00
H175   H     0.93660   0.57520   0.31340   0.01267  Uiso   1.00
H176   H     0.67960   0.64980   0.32940   0.01267  Uiso   1.00
H177   H     0.33630   0.49480   0.33380   0.01267  Uiso   1.00
H178   H     0.61650   0.41720   0.31960   0.01267  Uiso   1.00
H179   H     0.19560   0.61080   0.34780   0.01267  Uiso   1.00
H180   H     0.38950   0.72260   0.33900   0.01267  Uiso   1.00
H181   H     0.36760   0.89960   0.39020   0.01267  Uiso   1.00
H182   H     0.09740   0.86180   0.40720   0.01267  Uiso   1.00
H183   H     0.37930   0.66340   0.39580   0.01267  Uiso   1.00
H184   H     0.63100   0.70600   0.37740   0.01267  Uiso   1.00
H185   H     0.07870   0.67600   0.41860   0.01267  Uiso   1.00
H186   H     0.84990   0.80740   0.42060   0.01267  Uiso   1.00
H187   H     0.53370   0.81100   0.44140   0.01267  Uiso   1.00
H188   H     0.28820   0.75740   0.45960   0.01267  Uiso   1.00
H189   H     0.59330   0.56760   0.44000   0.01267  Uiso   1.00
H190   H     0.83960   0.62140   0.42480   0.01267  Uiso   1.00
H191   H     0.28730   0.56360   0.45720   0.01267  Uiso   1.00
H192   H     0.05300   0.68780   0.47040   0.01267  Uiso   1.00
C1     C     0.07309   0.03200   0.69182   0.01267  Uiso   1.00
C2     C     0.97024   0.00340   0.70612   0.01267  Uiso   1.00
C3     C     0.02854   0.99920   0.72572   0.01267  Uiso   1.00
C4     C     0.18734   0.03600   0.72932   0.01267  Uiso   1.00
C5     C     0.28495   0.06980   0.71430   0.01267  Uiso   1.00
C6     C     0.93478   0.96240   0.74204   0.01267  Uiso   1.00
C7     C     0.77461   0.93060   0.74018   0.01267  Uiso   1.00
C8     C     0.67676   0.88900   0.75548   0.01267  Uiso   1.00
C9     C     0.50335   0.86320   0.75010   0.01267  Uiso   1.00
C10    C     0.41438   0.82160   0.76364   0.01267  Uiso   1.00
C11    C     0.49237   0.80500   0.78226   0.01267  Uiso   1.00
C12    C     0.66811   0.82840   0.78738   0.01267  Uiso   1.00
C13    C     0.75701   0.87180   0.77418   0.01267  Uiso   1.00
C14    C     0.39559   0.76100   0.79782   0.01267  Uiso   1.00
C15    C     0.24196   0.72920   0.79488   0.01267  Uiso   1.00
C16    C     0.14930   0.69100   0.81240   0.01267  Uiso   1.00
C17    C     0.87375   0.07720   0.95930   0.01267  Uiso   1.00
C18    C     0.75266   0.12380   0.94688   0.01267  Uiso   1.00
C19    C     0.55036   0.15100   0.95228   0.01267  Uiso   1.00
C20    C     0.46936   0.12660   0.97068   0.01267  Uiso   1.00
C21    C     0.59882   0.07860   0.98176   0.01267  Uiso   1.00
C22    C     0.41987   0.20280   0.93946   0.01267  Uiso   1.00
C23    C     0.23544   0.23180   0.94332   0.01267  Uiso   1.00
C24    C     0.09799   0.28540   0.93062   0.01267  Uiso   1.00
C25    C     0.17437   0.31100   0.91226   0.01267  Uiso   1.00
C26    C     0.04959   0.36460   0.90222   0.01267  Uiso   1.00
C27    C     0.86198   0.39400   0.91004   0.01267  Uiso   1.00
C28    C     0.78629   0.36560   0.92782   0.01267  Uiso   1.00
C29    C     0.90880   0.31340   0.93900   0.01267  Uiso   1.00
C30    C     0.73303   0.45340   0.90054   0.01267  Uiso   1.00
C31    C     0.75745   0.47920   0.88190   0.01267  Uiso   1.00
C32    C     0.61288   0.53580   0.87244   0.01267  Uiso   1.00
C33    C     0.68740   0.13760   0.76160   0.01267  Uiso   1.00
C34    C     0.58040   0.09260   0.77260   0.01267  Uiso   1.00
C35    C     0.38850   0.11300   0.78200   0.01267  Uiso   1.00
C36    C     0.32120   0.18440   0.77920   0.01267  Uiso   1.00
C37    C     0.41420   0.22760   0.76800   0.01267  Uiso   1.00
C38    C     0.30560   0.05800   0.79280   0.01267  Uiso   1.00
C39    C     0.13190   0.06400   0.80220   0.01267  Uiso   1.00
C40    C     0.03980   0.01300   0.81340   0.01267  Uiso   1.00
C41    C     0.12660   0.94140   0.81740   0.01267  Uiso   1.00
C42    C     0.01811   0.89680   0.82698   0.01267  Uiso   1.00
C43    C     0.81020   0.92020   0.83340   0.01267  Uiso   1.00
C44    C     0.71730   0.98940   0.83000   0.01267  Uiso   1.00
C45    C     0.84020   0.03480   0.82080   0.01267  Uiso   1.00
C46    C     0.68423   0.86920   0.84234   0.01267  Uiso   1.00
C47    C     0.73153   0.79960   0.84334   0.01267  Uiso   1.00
C48    C     0.58099   0.75480   0.85122   0.01267  Uiso   1.00
C49    C     0.96621   0.64900   0.89058   0.01267  Uiso   1.00
C50    C     0.78367   0.67120   0.90146   0.01267  Uiso   1.00
C51    C     0.71536   0.74360   0.90368   0.01267  Uiso   1.00
C52    C     0.83298   0.78760   0.89444   0.01267  Uiso   1.00
C53    C     0.01028   0.76220   0.88324   0.01267  Uiso   1.00
C54    C     0.52441   0.77540   0.91578   0.01267  Uiso   1.00
C55    C     0.38595   0.74160   0.92250   0.01267  Uiso   1.00
C56    C     0.19288   0.77700   0.93324   0.01267  Uiso   1.00
C57    C     0.06179   0.73840   0.94202   0.01267  Uiso   1.00
C58    C     0.87608   0.76960   0.95224   0.01267  Uiso   1.00
C59    C     0.81882   0.84800   0.95036   0.01267  Uiso   1.00
C60    C     0.94600   0.88320   0.94080   0.01267  Uiso   1.00
C61    C     0.12860   0.85100   0.93180   0.01267  Uiso   1.00
C62    C     0.62476   0.88740   0.95908   0.01267  Uiso   1.00
C63    C     0.48281   0.86120   0.96918   0.01267  Uiso   1.00
C64    C     0.30802   0.90920   0.97876   0.01267  Uiso   1.00
C65    C     0.79691   0.96800   0.30818   0.01267  Uiso   1.00
C66    C     0.67976   0.99660   0.29388   0.01267  Uiso   1.00
C67    C     0.75346   0.00080   0.27428   0.01267  Uiso   1.00
C68    C     0.95266   0.96400   0.27068   0.01267  Uiso   1.00
C69    C     0.06905   0.93020   0.28570   0.01267  Uiso   1.00
C70    C     0.63922   0.03760   0.25796   0.01267  Uiso   1.00
C71    C     0.44539   0.06940   0.25982   0.01267  Uiso   1.00
C72    C     0.32124   0.11100   0.24452   0.01267  Uiso   1.00
C73    C     0.11665   0.13680   0.24990   0.01267  Uiso   1.00
C74    C     0.99962   0.17840   0.23636   0.01267  Uiso   1.00
C75    C     0.07963   0.19500   0.21774   0.01267  Uiso   1.00
C76    C     0.28389   0.17160   0.21262   0.01267  Uiso   1.00
C77    C     0.40299   0.12820   0.22582   0.01267  Uiso   1.00
C78    C     0.95441   0.23900   0.20218   0.01267  Uiso   1.00
C79    C     0.76604   0.27080   0.20512   0.01267  Uiso   1.00
C80    C     0.65270   0.30900   0.18760   0.01267  Uiso   1.00
C81    C     0.91025   0.92280   0.04070   0.01267  Uiso   1.00
C82    C     0.82334   0.87620   0.05312   0.01267  Uiso   1.00
C83    C     0.65364   0.84900   0.04772   0.01267  Uiso   1.00
C84    C     0.56664   0.87340   0.02932   0.01267  Uiso   1.00
C85    C     0.65918   0.92140   0.01824   0.01267  Uiso   1.00
C86    C     0.56213   0.79720   0.06054   0.01267  Uiso   1.00
C87    C     0.41056   0.76820   0.05668   0.01267  Uiso   1.00
C88    C     0.31401   0.71460   0.06938   0.01267  Uiso   1.00
C89    C     0.39763   0.68900   0.08774   0.01267  Uiso   1.00
C90    C     0.31641   0.63540   0.09778   0.01267  Uiso   1.00
C91    C     0.16602   0.60600   0.08996   0.01267  Uiso   1.00
C92    C     0.07971   0.63440   0.07218   0.01267  Uiso   1.00
C93    C     0.16120   0.68660   0.06100   0.01267  Uiso   1.00
C94    C     0.08697   0.54660   0.09946   0.01267  Uiso   1.00
C95    C     0.11855   0.52080   0.11810   0.01267  Uiso   1.00
C96    C     0.02112   0.46420   0.12756   0.01267  Uiso   1.00
C97    C     0.58660   0.86240   0.23840   0.01267  Uiso   1.00
C98    C     0.44560   0.90740   0.22740   0.01267  Uiso   1.00
C99    C     0.28350   0.88700   0.21800   0.01267  Uiso   1.00
C100   C     0.28480   0.81560   0.22080   0.01267  Uiso   1.00
C101   C     0.40980   0.77240   0.23200   0.01267  Uiso   1.00
C102   C     0.15640   0.94200   0.20720   0.01267  Uiso   1.00
C103   C     0.99810   0.93600   0.19780   0.01267  Uiso   1.00
C104   C     0.86620   0.98700   0.18660   0.01267  Uiso   1.00
C105   C     0.88540   0.05860   0.18260   0.01267  Uiso   1.00
C106   C     0.74189   0.10320   0.17302   0.01267  Uiso   1.00
C107   C     0.56380   0.07980   0.16660   0.01267  Uiso   1.00
C108   C     0.53670   0.01060   0.17000   0.01267  Uiso   1.00
C109   C     0.69580   0.96520   0.17920   0.01267  Uiso   1.00
C110   C     0.39577   0.13080   0.15766   0.01267  Uiso   1.00
C111   C     0.37447   0.20040   0.15666   0.01267  Uiso   1.00
C112   C     0.18701   0.24520   0.14878   0.01267  Uiso   1.00
C113   C     0.50579   0.35100   0.10942   0.01267  Uiso   1.00
C114   C     0.35633   0.32880   0.09854   0.01267  Uiso   1.00
C115   C     0.36264   0.25640   0.09632   0.01267  Uiso   1.00
C116   C     0.51502   0.21240   0.10556   0.01267  Uiso   1.00
C117   C     0.65572   0.23780   0.11676   0.01267  Uiso   1.00
C118   C     0.21559   0.22460   0.08422   0.01267  Uiso   1.00
C119   C     0.05005   0.25840   0.07750   0.01267  Uiso   1.00
C120   C     0.90312   0.22300   0.06676   0.01267  Uiso   1.00
C121   C     0.74221   0.26160   0.05798   0.01267  Uiso   1.00
C122   C     0.59792   0.23040   0.04776   0.01267  Uiso   1.00
C123   C     0.61718   0.15200   0.04964   0.01267  Uiso   1.00
C124   C     0.77000   0.11680   0.05920   0.01267  Uiso   1.00
C125   C     0.91140   0.14900   0.06820   0.01267  Uiso   1.00
C126   C     0.47124   0.11260   0.04092   0.01267  Uiso   1.00
C127   C     0.31319   0.13880   0.03082   0.01267  Uiso   1.00
C128   C     0.19598   0.09080   0.02124   0.01267  Uiso   1.00
C129   C     0.51491   0.53200   0.80818   0.01267  Uiso   1.00
C130   C     0.42636   0.50340   0.79388   0.01267  Uiso   1.00
C131   C     0.50426   0.49920   0.77428   0.01267  Uiso   1.00
C132   C     0.66666   0.53600   0.77068   0.01267  Uiso   1.00
C133   C     0.74925   0.56980   0.78570   0.01267  Uiso   1.00
C134   C     0.42682   0.46240   0.75796   0.01267  Uiso   1.00
C135   C     0.26479   0.43060   0.75982   0.01267  Uiso   1.00
C136   C     0.18224   0.38900   0.74452   0.01267  Uiso   1.00
C137   C     0.00345   0.36320   0.74990   0.01267  Uiso   1.00
C138   C     0.92802   0.32160   0.73636   0.01267  Uiso   1.00
C139   C     0.02463   0.30500   0.71774   0.01267  Uiso   1.00
C140   C     0.20549   0.32840   0.71262   0.01267  Uiso   1.00
C141   C     0.28119   0.37180   0.72582   0.01267  Uiso   1.00
C142   C     0.94341   0.26100   0.70218   0.01267  Uiso   1.00
C143   C     0.78684   0.22920   0.70512   0.01267  Uiso   1.00
C144   C     0.71170   0.19100   0.68760   0.01267  Uiso   1.00
C145   C     0.58305   0.57720   0.54070   0.01267  Uiso   1.00
C146   C     0.44954   0.62380   0.55312   0.01267  Uiso   1.00
C147   C     0.25264   0.65100   0.54772   0.01267  Uiso   1.00
C148   C     0.19004   0.62660   0.52932   0.01267  Uiso   1.00
C149   C     0.33058   0.57860   0.51824   0.01267  Uiso   1.00
C150   C     0.10933   0.70280   0.56054   0.01267  Uiso   1.00
C151   C     0.92876   0.73180   0.55668   0.01267  Uiso   1.00
C152   C     0.77861   0.78540   0.56938   0.01267  Uiso   1.00
C153   C     0.83663   0.81100   0.58774   0.01267  Uiso   1.00
C154   C     0.70181   0.86460   0.59778   0.01267  Uiso   1.00
C155   C     0.52202   0.89400   0.58996   0.01267  Uiso   1.00
C156   C     0.46411   0.86560   0.57218   0.01267  Uiso   1.00
C157   C     0.59780   0.81340   0.56100   0.01267  Uiso   1.00
C158   C     0.38357   0.95340   0.59946   0.01267  Uiso   1.00
C159   C     0.38935   0.97920   0.61810   0.01267  Uiso   1.00
C160   C     0.23532   0.03580   0.62756   0.01267  Uiso   1.00
C161   C     0.19900   0.63760   0.73840   0.01267  Uiso   1.00
C162   C     0.10300   0.59260   0.72740   0.01267  Uiso   1.00
C163   C     0.92050   0.61300   0.71800   0.01267  Uiso   1.00
C164   C     0.85040   0.68440   0.72080   0.01267  Uiso   1.00
C165   C     0.93220   0.72760   0.73200   0.01267  Uiso   1.00
C166   C     0.84840   0.55800   0.70720   0.01267  Uiso   1.00
C167   C     0.68410   0.56400   0.69780   0.01267  Uiso   1.00
C168   C     0.60320   0.51300   0.68660   0.01267  Uiso   1.00
C169   C     0.69400   0.44140   0.68260   0.01267  Uiso   1.00
C170   C     0.59509   0.39680   0.67302   0.01267  Uiso   1.00
C171   C     0.39360   0.42020   0.66660   0.01267  Uiso   1.00
C172   C     0.29730   0.48940   0.67000   0.01267  Uiso   1.00
C173   C     0.41100   0.53480   0.67920   0.01267  Uiso   1.00
C174   C     0.27657   0.36920   0.65766   0.01267  Uiso   1.00
C175   C     0.32487   0.29960   0.65666   0.01267  Uiso   1.00
C176   C     0.18221   0.25480   0.64878   0.01267  Uiso   1.00
C177   C     0.60679   0.14900   0.60942   0.01267  Uiso   1.00
C178   C     0.43513   0.17120   0.59854   0.01267  Uiso   1.00
C179   C     0.36904   0.24360   0.59632   0.01267  Uiso   1.00
C180   C     0.47742   0.28760   0.60556   0.01267  Uiso   1.00
C181   C     0.64352   0.26220   0.61676   0.01267  Uiso   1.00
C182   C     0.19019   0.27540   0.58422   0.01267  Uiso   1.00
C183   C     0.05845   0.24160   0.57750   0.01267  Uiso   1.00
C184   C     0.87612   0.27700   0.56676   0.01267  Uiso   1.00
C185   C     0.75381   0.23840   0.55798   0.01267  Uiso   1.00
C186   C     0.57832   0.26960   0.54776   0.01267  Uiso   1.00
C187   C     0.51918   0.34800   0.54964   0.01267  Uiso   1.00
C188   C     0.63680   0.38320   0.55920   0.01267  Uiso   1.00
C189   C     0.81040   0.35100   0.56820   0.01267  Uiso   1.00
C190   C     0.33384   0.38740   0.54092   0.01267  Uiso   1.00
C191   C     0.20199   0.36120   0.53082   0.01267  Uiso   1.00
C192   C     0.03678   0.40920   0.52124   0.01267  Uiso   1.00
C193   C     0.85509   0.46800   0.19182   0.01267  Uiso   1.00
C194   C     0.72364   0.49660   0.20612   0.01267  Uiso   1.00
C195   C     0.77774   0.50080   0.22572   0.01267  Uiso   1.00
C196   C     0.97334   0.46400   0.22932   0.01267  Uiso   1.00
C197   C     0.10475   0.43020   0.21430   0.01267  Uiso   1.00
C198   C     0.64718   0.53760   0.24204   0.01267  Uiso   1.00
C199   C     0.45521   0.56940   0.24018   0.01267  Uiso   1.00
C200   C     0.31576   0.61100   0.25548   0.01267  Uiso   1.00
C201   C     0.11655   0.63680   0.25010   0.01267  Uiso   1.00
C202   C     0.98598   0.67840   0.26364   0.01267  Uiso   1.00
C203   C     0.04737   0.69500   0.28226   0.01267  Uiso   1.00
C204   C     0.24651   0.67160   0.28738   0.01267  Uiso   1.00
C205   C     0.37881   0.62820   0.27418   0.01267  Uiso   1.00
C206   C     0.90659   0.73900   0.29782   0.01267  Uiso   1.00
C207   C     0.72116   0.77080   0.29488   0.01267  Uiso   1.00
C208   C     0.59030   0.80900   0.31240   0.01267  Uiso   1.00
C209   C     0.70095   0.42280   0.45930   0.01267  Uiso   1.00
C210   C     0.62646   0.37620   0.44688   0.01267  Uiso   1.00
C211   C     0.45136   0.34900   0.45228   0.01267  Uiso   1.00
C212   C     0.34596   0.37340   0.47068   0.01267  Uiso   1.00
C213   C     0.42742   0.42140   0.48176   0.01267  Uiso   1.00
C214   C     0.37267   0.29720   0.43946   0.01267  Uiso   1.00
C215   C     0.21724   0.26820   0.44332   0.01267  Uiso   1.00
C216   C     0.13339   0.21460   0.43062   0.01267  Uiso   1.00
C217   C     0.23537   0.18900   0.41226   0.01267  Uiso   1.00
C218   C     0.16419   0.13540   0.40222   0.01267  Uiso   1.00
C219   C     0.00598   0.10600   0.41004   0.01267  Uiso   1.00
C220   C     0.90189   0.13440   0.42782   0.01267  Uiso   1.00
C221   C     0.97220   0.18660   0.43900   0.01267  Uiso   1.00
C222   C     0.93643   0.04660   0.40054   0.01267  Uiso   1.00
C223   C     0.98665   0.02080   0.38190   0.01267  Uiso   1.00
C224   C     0.89868   0.96420   0.37244   0.01267  Uiso   1.00
C225   C     0.57500   0.36240   0.26160   0.01267  Uiso   1.00
C226   C     0.42300   0.40740   0.27260   0.01267  Uiso   1.00
C227   C     0.25150   0.38700   0.28200   0.01267  Uiso   1.00
C228   C     0.25560   0.31560   0.27920   0.01267  Uiso   1.00
C229   C     0.39180   0.27240   0.26800   0.01267  Uiso   1.00
C230   C     0.11360   0.44200   0.29280   0.01267  Uiso   1.00
C231   C     0.94590   0.43600   0.30220   0.01267  Uiso   1.00
C232   C     0.80280   0.48700   0.31340   0.01267  Uiso   1.00
C233   C     0.81800   0.55860   0.31740   0.01267  Uiso   1.00
C234   C     0.66491   0.60320   0.32698   0.01267  Uiso   1.00
C235   C     0.48040   0.57980   0.33340   0.01267  Uiso   1.00
C236   C     0.45670   0.51060   0.33000   0.01267  Uiso   1.00
C237   C     0.62500   0.46520   0.32080   0.01267  Uiso   1.00
C238   C     0.30343   0.63080   0.34234   0.01267  Uiso   1.00
C239   C     0.28113   0.70040   0.34334   0.01267  Uiso   1.00
C240   C     0.08579   0.74520   0.35122   0.01267  Uiso   1.00
C241   C     0.36521   0.85100   0.39058   0.01267  Uiso   1.00
C242   C     0.20487   0.82880   0.40146   0.01267  Uiso   1.00
C243   C     0.20896   0.75640   0.40368   0.01267  Uiso   1.00
C244   C     0.37058   0.71240   0.39444   0.01267  Uiso   1.00
C245   C     0.52248   0.73780   0.38324   0.01267  Uiso   1.00
C246   C     0.04981   0.72460   0.41578   0.01267  Uiso   1.00
C247   C     0.87755   0.75840   0.42250   0.01267  Uiso   1.00
C248   C     0.71988   0.72300   0.43324   0.01267  Uiso   1.00
C249   C     0.55019   0.76160   0.44202   0.01267  Uiso   1.00
C250   C     0.39568   0.73040   0.45224   0.01267  Uiso   1.00
C251   C     0.41682   0.65200   0.45036   0.01267  Uiso   1.00
C252   C     0.57920   0.61680   0.44080   0.01267  Uiso   1.00
C253   C     0.72960   0.64900   0.43180   0.01267  Uiso   1.00
C254   C     0.26216   0.61260   0.45908   0.01267  Uiso   1.00
C255   C     0.09401   0.63880   0.46918   0.01267  Uiso   1.00
C256   C     0.96722   0.59080   0.47876   0.01267  Uiso   1.00
N1     N     0.22886   0.06780   0.69448   0.01267  Uiso   1.00
N2     N     0.79054   0.05740   0.97752   0.01267  Uiso   1.00
N3     N     0.59590   0.20560   0.75860   0.01267  Uiso   1.00
N4     N     0.07266   0.69200   0.88068   0.01267  Uiso   1.00
N5     N     0.99114   0.93220   0.30552   0.01267  Uiso   1.00
N6     N     0.82546   0.94260   0.02248   0.01267  Uiso   1.00
N7     N     0.56010   0.79440   0.24140   0.01267  Uiso   1.00
N8     N     0.64534   0.30800   0.11932   0.01267  Uiso   1.00
N9     N     0.67334   0.56780   0.80552   0.01267  Uiso   1.00
N10    N     0.51806   0.55740   0.52248   0.01267  Uiso   1.00
N11    N     0.10450   0.70560   0.74140   0.01267  Uiso   1.00
N12    N     0.70334   0.19200   0.61932   0.01267  Uiso   1.00
N13    N     0.04666   0.43220   0.19448   0.01267  Uiso   1.00
N14    N     0.59794   0.44260   0.47752   0.01267  Uiso   1.00
N15    N     0.55150   0.29440   0.25860   0.01267  Uiso   1.00
N16    N     0.51466   0.80800   0.38068   0.01267  Uiso   1.00
O1     O     0.21986   0.68700   0.82928   0.01267  Uiso   1.00
O2     O     0.99857   0.66460   0.80826   0.01267  Uiso   1.00
O3     O     0.47417   0.57120   0.88446   0.01267  Uiso   1.00
O4     O     0.63350   0.68800   0.84900   0.01267  Uiso   1.00
O5     O     0.41805   0.78020   0.85970   0.01267  Uiso   1.00
O6     O     0.26797   0.97320   0.97486   0.01267  Uiso   1.00
O7     O     0.19451   0.88300   0.99198   0.01267  Uiso   1.00
O8     O     0.62438   0.54740   0.85384   0.01267  Uiso   1.00
O9     O     0.73614   0.31300   0.17072   0.01267  Uiso   1.00
O10    O     0.47143   0.33540   0.19174   0.01267  Uiso   1.00
O11    O     0.92983   0.42880   0.11554   0.01267  Uiso   1.00
O12    O     0.17050   0.31200   0.15100   0.01267  Uiso   1.00
O13    O     0.05795   0.21980   0.14030   0.01267  Uiso   1.00
O14    O     0.21603   0.02680   0.02514   0.01267  Uiso   1.00
O15    O     0.06949   0.11700   0.00802   0.01267  Uiso   1.00
O16    O     0.02562   0.45260   0.14616   0.01267  Uiso   1.00
O17    O     0.79914   0.18700   0.67072   0.01267  Uiso   1.00
O18    O     0.55683   0.16460   0.69174   0.01267  Uiso   1.00
O19    O     0.10863   0.07120   0.61554   0.01267  Uiso   1.00
O20    O     0.23250   0.18800   0.65100   0.01267  Uiso   1.00
O21    O     0.02775   0.28020   0.64030   0.01267  Uiso   1.00
O22    O     0.99283   0.47320   0.52514   0.01267  Uiso   1.00
O23    O     0.93649   0.38300   0.50802   0.01267  Uiso   1.00
O24    O     0.22822   0.04740   0.64616   0.01267  Uiso   1.00
O25    O     0.65686   0.81300   0.32928   0.01267  Uiso   1.00
O26    O     0.41317   0.83540   0.30826   0.01267  Uiso   1.00
O27    O     0.79537   0.92880   0.38446   0.01267  Uiso   1.00
O28    O     0.07150   0.81200   0.34900   0.01267  Uiso   1.00
O29    O     0.94825   0.71980   0.35970   0.01267  Uiso   1.00
O30    O     0.99117   0.52680   0.47486   0.01267  Uiso   1.00
O31    O     0.82751   0.61700   0.49198   0.01267  Uiso   1.00
O32    O     0.92178   0.95260   0.35384   0.01267  Uiso   1.00
