data_ICEGED_clean
_audit_creation_date              2014-07-02
_audit_creation_method            'Materials Studio'
_symmetry_space_group_name_H-M    'P1'
_symmetry_Int_Tables_number       1
_symmetry_cell_setting            triclinic
loop_
_symmetry_equiv_pos_as_xyz
  x,y,z
_cell_length_a                    11.8400
_cell_length_b                    12.3247
_cell_length_c                    13.7362
_cell_angle_alpha                 92.6150
_cell_angle_beta                  112.6750
_cell_angle_gamma                 109.0400
loop_
_atom_site_label
_atom_site_type_symbol
_atom_site_fract_x
_atom_site_fract_y
_atom_site_fract_z
_atom_site_U_iso_or_equiv
_atom_site_adp_type
_atom_site_occupancy
Cd1    Cd    0.11509   0.23332   0.46084   0.01267  Uiso   1.00
Cd2    Cd    0.88491   0.76668   0.53916   0.01267  Uiso   1.00
Cd3    Cd    0.00000   0.50000   0.50000   0.01267  Uiso   1.00
H1     H     0.45530   0.33100   0.88470   0.01267  Uiso   1.00
H2     H     0.39930   0.63120   0.93400   0.01267  Uiso   1.00
H3     H     0.89220   0.54890   0.09560   0.01267  Uiso   1.00
H4     H     0.13780   0.39660   0.06990   0.01267  Uiso   1.00
H5     H     0.34050   0.07500   0.49360   0.01267  Uiso   1.00
H6     H     0.46910   0.80730   0.51890   0.01267  Uiso   1.00
H7     H     0.54470   0.66900   0.11530   0.01267  Uiso   1.00
H8     H     0.60070   0.36880   0.06600   0.01267  Uiso   1.00
H9     H     0.10780   0.45110   0.90440   0.01267  Uiso   1.00
H10    H     0.86220   0.60340   0.93010   0.01267  Uiso   1.00
H11    H     0.65950   0.92500   0.50640   0.01267  Uiso   1.00
H12    H     0.53090   0.19270   0.48110   0.01267  Uiso   1.00
C1     C     0.32230   0.45560   0.77697   0.01267  Uiso   1.00
C2     C     0.41330   0.47840   0.89155   0.01267  Uiso   1.00
C3     C     0.47330   0.39980   0.93130   0.01267  Uiso   1.00
C4     C     0.44030   0.57750   0.96060   0.01267  Uiso   1.00
C5     C     0.04070   0.44130   0.20660   0.01267  Uiso   1.00
C6     C     0.01970   0.46950   0.09980   0.01267  Uiso   1.00
C7     C     0.93650   0.52950   0.05680   0.01267  Uiso   1.00
C8     C     0.08230   0.43900   0.04180   0.01267  Uiso   1.00
C9     C     0.26610   0.85280   0.51550   0.01267  Uiso   1.00
C10    C     0.38610   0.92940   0.50810   0.01267  Uiso   1.00
C11    C     0.40530   0.04420   0.49630   0.01267  Uiso   1.00
C12    C     0.48160   0.88610   0.51130   0.01267  Uiso   1.00
C13    C     0.67770   0.54440   0.22303   0.01267  Uiso   1.00
C14    C     0.58670   0.52160   0.10845   0.01267  Uiso   1.00
C15    C     0.52670   0.60020   0.06870   0.01267  Uiso   1.00
C16    C     0.55970   0.42250   0.03940   0.01267  Uiso   1.00
C17    C     0.95930   0.55870   0.79340   0.01267  Uiso   1.00
C18    C     0.98030   0.53050   0.90020   0.01267  Uiso   1.00
C19    C     0.06350   0.47050   0.94320   0.01267  Uiso   1.00
C20    C     0.91770   0.56100   0.95820   0.01267  Uiso   1.00
C21    C     0.73390   0.14720   0.48450   0.01267  Uiso   1.00
C22    C     0.61390   0.07060   0.49190   0.01267  Uiso   1.00
C23    C     0.59470   0.95580   0.50370   0.01267  Uiso   1.00
C24    C     0.51840   0.11390   0.48870   0.01267  Uiso   1.00
N1     N     0.25410   0.52277   0.73326   0.01267  Uiso   1.00
N2     N     0.18390   0.46988   0.63012   0.01267  Uiso   1.00
N3     N     0.20958   0.37639   0.61302   0.01267  Uiso   1.00
N4     N     0.29710   0.36488   0.70498   0.01267  Uiso   1.00
N5     N     0.06690   0.34794   0.23966   0.01267  Uiso   1.00
N6     N     0.07290   0.35663   0.33897   0.01267  Uiso   1.00
N7     N     0.05210   0.45070   0.36279   0.01267  Uiso   1.00
N8     N     0.03130   0.50614   0.28098   0.01267  Uiso   1.00
N9     N     0.23370   0.73726   0.50938   0.01267  Uiso   1.00
N10    N     0.11887   0.70063   0.51675   0.01267  Uiso   1.00
N11    N     0.08357   0.79039   0.52711   0.01267  Uiso   1.00
N12    N     0.17510   0.88791   0.52608   0.01267  Uiso   1.00
N13    N     0.74590   0.47723   0.26674   0.01267  Uiso   1.00
N14    N     0.81610   0.53012   0.36988   0.01267  Uiso   1.00
N15    N     0.79042   0.62361   0.38698   0.01267  Uiso   1.00
N16    N     0.70290   0.63512   0.29502   0.01267  Uiso   1.00
N17    N     0.93310   0.65206   0.76034   0.01267  Uiso   1.00
N18    N     0.92710   0.64337   0.66103   0.01267  Uiso   1.00
N19    N     0.94790   0.54930   0.63721   0.01267  Uiso   1.00
N20    N     0.96870   0.49386   0.71902   0.01267  Uiso   1.00
N21    N     0.76630   0.26274   0.49062   0.01267  Uiso   1.00
N22    N     0.88113   0.29937   0.48325   0.01267  Uiso   1.00
N23    N     0.91643   0.20961   0.47289   0.01267  Uiso   1.00
N24    N     0.82490   0.11209   0.47392   0.01267  Uiso   1.00
