data_image0
_cell_length_a       14.549
_cell_length_b       14.549
_cell_length_c       17.767
_cell_angle_alpha    90
_cell_angle_beta     90
_cell_angle_gamma    120

_symmetry_space_group_name_H-M    "P 1"
_symmetry_int_tables_number       1

loop_
  _symmetry_equiv_pos_as_xyz
  'x, y, z'

loop_
  _atom_site_label
  _atom_site_occupancy
  _atom_site_fract_x
  _atom_site_fract_y
  _atom_site_fract_z
  _atom_site_thermal_displace_type
  _atom_site_B_iso_or_equiv
  _atom_site_type_symbol
  C1       1.0000 0.43237  0.40312  0.96662  Biso   1.000  C
  O1       1.0000 0.65002  0.50236  0.83489  Biso   1.000  O
  O2       1.0000 0.35710  0.30690  0.94300  Biso   1.000  O
  H1       1.0000 0.37760  0.29090  0.90350  Biso   1.000  H
  C2       1.0000 0.59688  0.02925  0.96662  Biso   1.000  C
  O3       1.0000 0.49764  0.14766  0.83489  Biso   1.000  O
  O4       1.0000 0.69310  0.05020  0.94300  Biso   1.000  O
  H2       1.0000 0.70910  0.08670  0.90350  Biso   1.000  H
  C3       1.0000 0.97075  0.56763  0.96662  Biso   1.000  C
  O5       1.0000 0.85234  0.34998  0.83489  Biso   1.000  O
  O6       1.0000 0.94980  0.64290  0.94300  Biso   1.000  O
  H3       1.0000 0.91330  0.62240  0.90350  Biso   1.000  H
  C4       1.0000 0.56763  0.59688  0.46662  Biso   1.000  C
  O7       1.0000 0.34998  0.49764  0.33489  Biso   1.000  O
  O8       1.0000 0.64290  0.69310  0.44300  Biso   1.000  O
  H4       1.0000 0.62240  0.70910  0.40350  Biso   1.000  H
  C5       1.0000 0.40312  0.97075  0.46662  Biso   1.000  C
  O9       1.0000 0.50236  0.85234  0.33489  Biso   1.000  O
  O10      1.0000 0.30690  0.94980  0.44300  Biso   1.000  O
  H5       1.0000 0.29090  0.91330  0.40350  Biso   1.000  H
  C6       1.0000 0.02925  0.43237  0.46662  Biso   1.000  C
  O11      1.0000 0.14766  0.65002  0.33489  Biso   1.000  O
  O12      1.0000 0.05020  0.35710  0.44300  Biso   1.000  O
  H6       1.0000 0.08670  0.37760  0.40350  Biso   1.000  H
  C7       1.0000 0.40312  0.43237  0.03338  Biso   1.000  C
  O13      1.0000 0.50236  0.65002  0.16511  Biso   1.000  O
  O14      1.0000 0.30690  0.35710  0.05700  Biso   1.000  O
  H7       1.0000 0.29090  0.37760  0.09650  Biso   1.000  H
  C8       1.0000 0.02925  0.59688  0.03338  Biso   1.000  C
  O15      1.0000 0.14766  0.49764  0.16511  Biso   1.000  O
  O16      1.0000 0.05020  0.69310  0.05700  Biso   1.000  O
  H8       1.0000 0.08670  0.70910  0.09650  Biso   1.000  H
  C9       1.0000 0.56763  0.97075  0.03338  Biso   1.000  C
  O17      1.0000 0.34998  0.85234  0.16511  Biso   1.000  O
  O18      1.0000 0.64290  0.94980  0.05700  Biso   1.000  O
  H9       1.0000 0.62240  0.91330  0.09650  Biso   1.000  H
  C10      1.0000 0.59688  0.56763  0.53338  Biso   1.000  C
  O19      1.0000 0.49764  0.34998  0.66511  Biso   1.000  O
  O20      1.0000 0.69310  0.64290  0.55700  Biso   1.000  O
  H10      1.0000 0.70910  0.62240  0.59650  Biso   1.000  H
  C11      1.0000 0.97075  0.40312  0.53338  Biso   1.000  C
  O21      1.0000 0.85234  0.50236  0.66511  Biso   1.000  O
  O22      1.0000 0.94980  0.30690  0.55700  Biso   1.000  O
  H11      1.0000 0.91330  0.29090  0.59650  Biso   1.000  H
  C12      1.0000 0.43237  0.02925  0.53338  Biso   1.000  C
  O23      1.0000 0.65002  0.14766  0.66511  Biso   1.000  O
  O24      1.0000 0.35710  0.05020  0.55700  Biso   1.000  O
  H12      1.0000 0.37760  0.08670  0.59650  Biso   1.000  H
  C13      1.0000 0.56763  0.59688  0.03338  Biso   1.000  C
  O25      1.0000 0.34998  0.49764  0.16511  Biso   1.000  O
  O26      1.0000 0.64290  0.69310  0.05700  Biso   1.000  O
  H13      1.0000 0.62240  0.70910  0.09650  Biso   1.000  H
  C14      1.0000 0.40312  0.97075  0.03338  Biso   1.000  C
  O27      1.0000 0.50236  0.85234  0.16511  Biso   1.000  O
  O28      1.0000 0.30690  0.94980  0.05700  Biso   1.000  O
  H14      1.0000 0.29090  0.91330  0.09650  Biso   1.000  H
  C15      1.0000 0.02925  0.43237  0.03338  Biso   1.000  C
  O29      1.0000 0.14766  0.65002  0.16511  Biso   1.000  O
  O30      1.0000 0.05020  0.35710  0.05700  Biso   1.000  O
  H15      1.0000 0.08670  0.37760  0.09650  Biso   1.000  H
  C16      1.0000 0.43237  0.40312  0.53338  Biso   1.000  C
  O31      1.0000 0.65002  0.50236  0.66511  Biso   1.000  O
  O32      1.0000 0.35710  0.30690  0.55700  Biso   1.000  O
  H16      1.0000 0.37760  0.29090  0.59650  Biso   1.000  H
  C17      1.0000 0.59688  0.02925  0.53338  Biso   1.000  C
  O33      1.0000 0.49764  0.14766  0.66511  Biso   1.000  O
  O34      1.0000 0.69310  0.05020  0.55700  Biso   1.000  O
  H17      1.0000 0.70910  0.08670  0.59650  Biso   1.000  H
  C18      1.0000 0.97075  0.56763  0.53338  Biso   1.000  C
  O35      1.0000 0.85234  0.34998  0.66511  Biso   1.000  O
  O36      1.0000 0.94980  0.64290  0.55700  Biso   1.000  O
  H18      1.0000 0.91330  0.62240  0.59650  Biso   1.000  H
  C19      1.0000 0.59688  0.56763  0.96662  Biso   1.000  C
  O37      1.0000 0.49764  0.34998  0.83489  Biso   1.000  O
  O38      1.0000 0.69310  0.64290  0.94300  Biso   1.000  O
  H19      1.0000 0.70910  0.62240  0.90350  Biso   1.000  H
  C20      1.0000 0.97075  0.40312  0.96662  Biso   1.000  C
  O39      1.0000 0.85234  0.50236  0.83489  Biso   1.000  O
  O40      1.0000 0.94980  0.30690  0.94300  Biso   1.000  O
  H20      1.0000 0.91330  0.29090  0.90350  Biso   1.000  H
  C21      1.0000 0.43237  0.02925  0.96662  Biso   1.000  C
  O41      1.0000 0.65002  0.14766  0.83489  Biso   1.000  O
  O42      1.0000 0.35710  0.05020  0.94300  Biso   1.000  O
  H21      1.0000 0.37760  0.08670  0.90350  Biso   1.000  H
  C22      1.0000 0.40312  0.43237  0.46662  Biso   1.000  C
  O43      1.0000 0.50236  0.65002  0.33489  Biso   1.000  O
  O44      1.0000 0.30690  0.35710  0.44300  Biso   1.000  O
  H22      1.0000 0.29090  0.37760  0.40350  Biso   1.000  H
  C23      1.0000 0.02925  0.59688  0.46662  Biso   1.000  C
  O45      1.0000 0.14766  0.49764  0.33489  Biso   1.000  O
  O46      1.0000 0.05020  0.69310  0.44300  Biso   1.000  O
  H23      1.0000 0.08670  0.70910  0.40350  Biso   1.000  H
  C24      1.0000 0.56763  0.97075  0.46662  Biso   1.000  C
  O47      1.0000 0.34998  0.85234  0.33489  Biso   1.000  O
  O48      1.0000 0.64290  0.94980  0.44300  Biso   1.000  O
  H24      1.0000 0.62240  0.91330  0.40350  Biso   1.000  H
  C25      1.0000 0.56113  0.43887  0.86292  Biso   1.000  C
  C26      1.0000 0.52964  0.47036  0.93334  Biso   1.000  C
  C27      1.0000 0.56113  0.12226  0.86292  Biso   1.000  C
  C28      1.0000 0.52964  0.05928  0.93334  Biso   1.000  C
  C29      1.0000 0.87774  0.43887  0.86292  Biso   1.000  C
  C30      1.0000 0.94072  0.47036  0.93334  Biso   1.000  C
  C31      1.0000 0.43887  0.56113  0.36292  Biso   1.000  C
  C32      1.0000 0.47036  0.52964  0.43334  Biso   1.000  C
  C33      1.0000 0.43887  0.87774  0.36292  Biso   1.000  C
  C34      1.0000 0.47036  0.94072  0.43334  Biso   1.000  C
  C35      1.0000 0.12226  0.56113  0.36292  Biso   1.000  C
  C36      1.0000 0.05928  0.52964  0.43334  Biso   1.000  C
  C37      1.0000 0.43887  0.56113  0.13708  Biso   1.000  C
  C38      1.0000 0.47036  0.52964  0.06666  Biso   1.000  C
  C39      1.0000 0.12226  0.56113  0.13708  Biso   1.000  C
  C40      1.0000 0.05928  0.52964  0.06666  Biso   1.000  C
  C41      1.0000 0.43887  0.87774  0.13708  Biso   1.000  C
  C42      1.0000 0.47036  0.94072  0.06666  Biso   1.000  C
  C43      1.0000 0.56113  0.43887  0.63708  Biso   1.000  C
  C44      1.0000 0.52964  0.47036  0.56666  Biso   1.000  C
  C45      1.0000 0.87774  0.43887  0.63708  Biso   1.000  C
  C46      1.0000 0.94072  0.47036  0.56666  Biso   1.000  C
  C47      1.0000 0.56113  0.12226  0.63708  Biso   1.000  C
  C48      1.0000 0.52964  0.05928  0.56666  Biso   1.000  C
  O49      1.0000 0.66667  0.33333  0.75000  Biso   1.000  O
  O50      1.0000 0.33333  0.66667  0.25000  Biso   1.000  O
  Sc1      1.0000 0.74682  0.49365  0.75000  Biso   1.000  Sc
  Sc2      1.0000 0.50635  0.25318  0.75000  Biso   1.000  Sc
  Sc3      1.0000 0.74682  0.25318  0.75000  Biso   1.000  Sc
  Sc4      1.0000 0.25318  0.50635  0.25000  Biso   1.000  Sc
  Sc5      1.0000 0.49365  0.74682  0.25000  Biso   1.000  Sc
  Sc6      1.0000 0.25318  0.74682  0.25000  Biso   1.000  Sc
