data_IDAZEU_clean
_audit_creation_date              2014-07-02
_audit_creation_method            'Materials Studio'
_symmetry_space_group_name_H-M    'P1'
_symmetry_Int_Tables_number       1
_symmetry_cell_setting            triclinic
loop_
_symmetry_equiv_pos_as_xyz
  x,y,z
_cell_length_a                    8.9142
_cell_length_b                    9.1804
_cell_length_c                    9.1804
_cell_angle_alpha                 76.3663
_cell_angle_beta                  60.9545
_cell_angle_gamma                 60.9546
loop_
_atom_site_label
_atom_site_type_symbol
_atom_site_fract_x
_atom_site_fract_y
_atom_site_fract_z
_atom_site_U_iso_or_equiv
_atom_site_adp_type
_atom_site_occupancy
Yb1    Yb    0.87500   0.25000   0.25000   0.01267  Uiso   1.00
Yb2    Yb    0.12500   0.75000   0.75000   0.01267  Uiso   1.00
K1     K     0.37500   0.25000   0.25000   0.01267  Uiso   1.00
K2     K     0.62500   0.75000   0.75000   0.01267  Uiso   1.00
C1     C     0.44420   0.47180   0.47940   0.01267  Uiso   1.00
C2     C     0.89540   0.02820   0.02060   0.01267  Uiso   1.00
C3     C     0.92360   0.52060   0.97180   0.01267  Uiso   1.00
C4     C     0.91600   0.97940   0.52820   0.01267  Uiso   1.00
C5     C     0.55580   0.52820   0.52060   0.01267  Uiso   1.00
C6     C     0.10460   0.97180   0.97940   0.01267  Uiso   1.00
C7     C     0.07640   0.47940   0.02820   0.01267  Uiso   1.00
C8     C     0.08400   0.02060   0.47180   0.01267  Uiso   1.00
O1     O     0.53902   0.35888   0.37568   0.01267  Uiso   1.00
O2     O     0.26405   0.54785   0.55685   0.01267  Uiso   1.00
O3     O     0.77358   0.14112   0.12432   0.01267  Uiso   1.00
O4     O     0.86875   0.95215   0.94315   0.01267  Uiso   1.00
O5     O     0.91470   0.62432   0.85888   0.01267  Uiso   1.00
O6     O     0.82090   0.44315   0.04785   0.01267  Uiso   1.00
O7     O     0.89790   0.87568   0.64112   0.01267  Uiso   1.00
O8     O     0.81190   0.05685   0.45215   0.01267  Uiso   1.00
O9     O     0.46098   0.64112   0.62432   0.01267  Uiso   1.00
O10    O     0.73595   0.45215   0.44315   0.01267  Uiso   1.00
O11    O     0.22642   0.85888   0.87568   0.01267  Uiso   1.00
O12    O     0.13125   0.04785   0.05685   0.01267  Uiso   1.00
O13    O     0.08530   0.37568   0.14112   0.01267  Uiso   1.00
O14    O     0.17910   0.55685   0.95215   0.01267  Uiso   1.00
O15    O     0.10210   0.12432   0.35888   0.01267  Uiso   1.00
O16    O     0.18810   0.94315   0.54785   0.01267  Uiso   1.00
