data_image0
_cell_length_a       15.1902
_cell_length_b       16.8168
_cell_length_c       22.68
_cell_angle_alpha    90
_cell_angle_beta     97.214
_cell_angle_gamma    90

_symmetry_space_group_name_H-M    "P 1"
_symmetry_int_tables_number       1

loop_
  _symmetry_equiv_pos_as_xyz
  'x, y, z'

loop_
  _atom_site_label
  _atom_site_occupancy
  _atom_site_fract_x
  _atom_site_fract_y
  _atom_site_fract_z
  _atom_site_thermal_displace_type
  _atom_site_B_iso_or_equiv
  _atom_site_type_symbol
  N1       1.0000 0.00114  0.00448  0.09368  Biso   1.000  N
  N2       1.0000 0.10263  0.08674  0.00816  Biso   1.000  N
  C1       1.0000 0.93340  0.03480  0.11869  Biso   1.000  C
  H1       1.0000 0.88590  0.05650  0.09404  Biso   1.000  H
  C2       1.0000 0.93030  0.03540  0.17933  Biso   1.000  C
  H2       1.0000 0.88090  0.05590  0.19452  Biso   1.000  H
  C3       1.0000 0.00070  0.00561  0.21730  Biso   1.000  C
  C4       1.0000 0.07260  0.97680  0.19165  Biso   1.000  C
  H3       1.0000 0.12240  0.95760  0.21546  Biso   1.000  H
  C5       1.0000 0.06970  0.97680  0.13052  Biso   1.000  C
  H4       1.0000 0.11820  0.95630  0.11417  Biso   1.000  H
  C6       1.0000 0.18350  0.07706  0.99167  Biso   1.000  C
  H5       1.0000 0.20070  0.02604  0.98216  Biso   1.000  H
  C7       1.0000 0.24280  0.13840  0.98800  Biso   1.000  C
  H6       1.0000 0.29780  0.12840  0.97550  Biso   1.000  H
  C8       1.0000 0.22008  0.21548  0.00305  Biso   1.000  C
  C9       1.0000 0.13910  0.22421  0.02414  Biso   1.000  C
  H7       1.0000 0.12220  0.27371  0.03714  Biso   1.000  H
  C10      1.0000 0.08340  0.15995  0.02597  Biso   1.000  C
  H8       1.0000 0.02940  0.16780  0.04040  Biso   1.000  H
  N3       1.0000 0.50114  0.50448  0.09368  Biso   1.000  N
  N4       1.0000 0.60263  0.58674  0.00816  Biso   1.000  N
  C11      1.0000 0.43340  0.53480  0.11869  Biso   1.000  C
  H9       1.0000 0.38590  0.55650  0.09404  Biso   1.000  H
  C12      1.0000 0.43030  0.53540  0.17933  Biso   1.000  C
  H10      1.0000 0.38090  0.55590  0.19452  Biso   1.000  H
  C13      1.0000 0.50070  0.50561  0.21730  Biso   1.000  C
  C14      1.0000 0.57260  0.47680  0.19165  Biso   1.000  C
  H11      1.0000 0.62240  0.45760  0.21546  Biso   1.000  H
  C15      1.0000 0.56970  0.47680  0.13052  Biso   1.000  C
  H12      1.0000 0.61820  0.45630  0.11417  Biso   1.000  H
  C16      1.0000 0.68350  0.57706  0.99167  Biso   1.000  C
  H13      1.0000 0.70070  0.52604  0.98216  Biso   1.000  H
  C17      1.0000 0.74280  0.63840  0.98800  Biso   1.000  C
  H14      1.0000 0.79780  0.62840  0.97550  Biso   1.000  H
  C18      1.0000 0.72008  0.71548  0.00305  Biso   1.000  C
  C19      1.0000 0.63910  0.72421  0.02414  Biso   1.000  C
  H15      1.0000 0.62220  0.77371  0.03714  Biso   1.000  H
  C20      1.0000 0.58340  0.65995  0.02597  Biso   1.000  C
  H16      1.0000 0.52940  0.66780  0.04040  Biso   1.000  H
  N5       1.0000 0.99886  0.00448  0.40632  Biso   1.000  N
  N6       1.0000 0.89737  0.08674  0.49184  Biso   1.000  N
  C21      1.0000 0.06660  0.03480  0.38131  Biso   1.000  C
  H17      1.0000 0.11410  0.05650  0.40596  Biso   1.000  H
  C22      1.0000 0.06970  0.03540  0.32067  Biso   1.000  C
  H18      1.0000 0.11910  0.05590  0.30548  Biso   1.000  H
  C23      1.0000 0.99930  0.00561  0.28270  Biso   1.000  C
  C24      1.0000 0.92740  0.97680  0.30835  Biso   1.000  C
  H19      1.0000 0.87760  0.95760  0.28454  Biso   1.000  H
  C25      1.0000 0.93030  0.97680  0.36948  Biso   1.000  C
  H20      1.0000 0.88180  0.95630  0.38583  Biso   1.000  H
  C26      1.0000 0.81650  0.07706  0.50833  Biso   1.000  C
  H21      1.0000 0.79930  0.02604  0.51784  Biso   1.000  H
  C27      1.0000 0.75720  0.13840  0.51200  Biso   1.000  C
  H22      1.0000 0.70220  0.12840  0.52450  Biso   1.000  H
  C28      1.0000 0.77992  0.21548  0.49695  Biso   1.000  C
  C29      1.0000 0.86090  0.22421  0.47586  Biso   1.000  C
  H23      1.0000 0.87780  0.27371  0.46286  Biso   1.000  H
  C30      1.0000 0.91660  0.15995  0.47403  Biso   1.000  C
  H24      1.0000 0.97060  0.16780  0.45960  Biso   1.000  H
  N7       1.0000 0.49886  0.50448  0.40632  Biso   1.000  N
  N8       1.0000 0.39737  0.58674  0.49184  Biso   1.000  N
  C31      1.0000 0.56660  0.53480  0.38131  Biso   1.000  C
  H25      1.0000 0.61410  0.55650  0.40596  Biso   1.000  H
  C32      1.0000 0.56970  0.53540  0.32067  Biso   1.000  C
  H26      1.0000 0.61910  0.55590  0.30548  Biso   1.000  H
  C33      1.0000 0.49930  0.50561  0.28270  Biso   1.000  C
  C34      1.0000 0.42740  0.47680  0.30835  Biso   1.000  C
  H27      1.0000 0.37760  0.45760  0.28454  Biso   1.000  H
  C35      1.0000 0.43030  0.47680  0.36948  Biso   1.000  C
  H28      1.0000 0.38180  0.45630  0.38583  Biso   1.000  H
  C36      1.0000 0.31650  0.57706  0.50833  Biso   1.000  C
  H29      1.0000 0.29930  0.52604  0.51784  Biso   1.000  H
  C37      1.0000 0.25720  0.63840  0.51200  Biso   1.000  C
  H30      1.0000 0.20220  0.62840  0.52450  Biso   1.000  H
  C38      1.0000 0.27992  0.71548  0.49695  Biso   1.000  C
  C39      1.0000 0.36090  0.72421  0.47586  Biso   1.000  C
  H31      1.0000 0.37780  0.77371  0.46286  Biso   1.000  H
  C40      1.0000 0.41660  0.65995  0.47403  Biso   1.000  C
  H32      1.0000 0.47060  0.66780  0.45960  Biso   1.000  H
  N9       1.0000 0.99886  0.99552  0.90632  Biso   1.000  N
  N10      1.0000 0.89737  0.91326  0.99184  Biso   1.000  N
  C41      1.0000 0.06660  0.96520  0.88131  Biso   1.000  C
  H33      1.0000 0.11410  0.94350  0.90596  Biso   1.000  H
  C42      1.0000 0.06970  0.96460  0.82067  Biso   1.000  C
  H34      1.0000 0.11910  0.94410  0.80548  Biso   1.000  H
  C43      1.0000 0.99930  0.99439  0.78270  Biso   1.000  C
  C44      1.0000 0.92740  0.02320  0.80835  Biso   1.000  C
  H35      1.0000 0.87760  0.04240  0.78454  Biso   1.000  H
  C45      1.0000 0.93030  0.02320  0.86948  Biso   1.000  C
  H36      1.0000 0.88180  0.04370  0.88583  Biso   1.000  H
  C46      1.0000 0.81650  0.92294  0.00833  Biso   1.000  C
  H37      1.0000 0.79930  0.97396  0.01784  Biso   1.000  H
  C47      1.0000 0.75720  0.86160  0.01200  Biso   1.000  C
  H38      1.0000 0.70220  0.87160  0.02450  Biso   1.000  H
  C48      1.0000 0.77992  0.78452  0.99695  Biso   1.000  C
  C49      1.0000 0.86090  0.77579  0.97586  Biso   1.000  C
  H39      1.0000 0.87780  0.72629  0.96286  Biso   1.000  H
  C50      1.0000 0.91660  0.84005  0.97403  Biso   1.000  C
  H40      1.0000 0.97060  0.83220  0.95960  Biso   1.000  H
  N11      1.0000 0.49886  0.49552  0.90632  Biso   1.000  N
  N12      1.0000 0.39737  0.41326  0.99184  Biso   1.000  N
  C51      1.0000 0.56660  0.46520  0.88131  Biso   1.000  C
  H41      1.0000 0.61410  0.44350  0.90596  Biso   1.000  H
  C52      1.0000 0.56970  0.46460  0.82067  Biso   1.000  C
  H42      1.0000 0.61910  0.44410  0.80548  Biso   1.000  H
  C53      1.0000 0.49930  0.49439  0.78270  Biso   1.000  C
  C54      1.0000 0.42740  0.52320  0.80835  Biso   1.000  C
  H43      1.0000 0.37760  0.54240  0.78454  Biso   1.000  H
  C55      1.0000 0.43030  0.52320  0.86948  Biso   1.000  C
  H44      1.0000 0.38180  0.54370  0.88583  Biso   1.000  H
  C56      1.0000 0.31650  0.42294  0.00833  Biso   1.000  C
  H45      1.0000 0.29930  0.47396  0.01784  Biso   1.000  H
  C57      1.0000 0.25720  0.36160  0.01200  Biso   1.000  C
  H46      1.0000 0.20220  0.37160  0.02450  Biso   1.000  H
  C58      1.0000 0.27992  0.28452  0.99695  Biso   1.000  C
  C59      1.0000 0.36090  0.27579  0.97586  Biso   1.000  C
  H47      1.0000 0.37780  0.22629  0.96286  Biso   1.000  H
  C60      1.0000 0.41660  0.34005  0.97403  Biso   1.000  C
  H48      1.0000 0.47060  0.33220  0.95960  Biso   1.000  H
  N13      1.0000 0.00114  0.99552  0.59368  Biso   1.000  N
  N14      1.0000 0.10263  0.91326  0.50816  Biso   1.000  N
  C61      1.0000 0.93340  0.96520  0.61869  Biso   1.000  C
  H49      1.0000 0.88590  0.94350  0.59404  Biso   1.000  H
  C62      1.0000 0.93030  0.96460  0.67933  Biso   1.000  C
  H50      1.0000 0.88090  0.94410  0.69452  Biso   1.000  H
  C63      1.0000 0.00070  0.99439  0.71730  Biso   1.000  C
  C64      1.0000 0.07260  0.02320  0.69165  Biso   1.000  C
  H51      1.0000 0.12240  0.04240  0.71546  Biso   1.000  H
  C65      1.0000 0.06970  0.02320  0.63052  Biso   1.000  C
  H52      1.0000 0.11820  0.04370  0.61417  Biso   1.000  H
  C66      1.0000 0.18350  0.92294  0.49167  Biso   1.000  C
  H53      1.0000 0.20070  0.97396  0.48216  Biso   1.000  H
  C67      1.0000 0.24280  0.86160  0.48800  Biso   1.000  C
  H54      1.0000 0.29780  0.87160  0.47550  Biso   1.000  H
  C68      1.0000 0.22008  0.78452  0.50305  Biso   1.000  C
  C69      1.0000 0.13910  0.77579  0.52414  Biso   1.000  C
  H55      1.0000 0.12220  0.72629  0.53714  Biso   1.000  H
  C70      1.0000 0.08340  0.84005  0.52597  Biso   1.000  C
  H56      1.0000 0.02940  0.83220  0.54040  Biso   1.000  H
  N15      1.0000 0.50114  0.49552  0.59368  Biso   1.000  N
  N16      1.0000 0.60263  0.41326  0.50816  Biso   1.000  N
  C71      1.0000 0.43340  0.46520  0.61869  Biso   1.000  C
  H57      1.0000 0.38590  0.44350  0.59404  Biso   1.000  H
  C72      1.0000 0.43030  0.46460  0.67933  Biso   1.000  C
  H58      1.0000 0.38090  0.44410  0.69452  Biso   1.000  H
  C73      1.0000 0.50070  0.49439  0.71730  Biso   1.000  C
  C74      1.0000 0.57260  0.52320  0.69165  Biso   1.000  C
  H59      1.0000 0.62240  0.54240  0.71546  Biso   1.000  H
  C75      1.0000 0.56970  0.52320  0.63052  Biso   1.000  C
  H60      1.0000 0.61820  0.54370  0.61417  Biso   1.000  H
  C76      1.0000 0.68350  0.42294  0.49167  Biso   1.000  C
  H61      1.0000 0.70070  0.47396  0.48216  Biso   1.000  H
  C77      1.0000 0.74280  0.36160  0.48800  Biso   1.000  C
  H62      1.0000 0.79780  0.37160  0.47550  Biso   1.000  H
  C78      1.0000 0.72008  0.28452  0.50305  Biso   1.000  C
  C79      1.0000 0.63910  0.27579  0.52414  Biso   1.000  C
  H63      1.0000 0.62220  0.22629  0.53714  Biso   1.000  H
  C80      1.0000 0.58340  0.34005  0.52597  Biso   1.000  C
  H64      1.0000 0.52940  0.33220  0.54040  Biso   1.000  H
  Ni1      1.0000 0.00000  0.00000  0.00000  Biso   1.000  Ni
  Ni2      1.0000 0.50000  0.50000  0.00000  Biso   1.000  Ni
  Ni3      1.0000 0.00000  0.00000  0.50000  Biso   1.000  Ni
  Ni4      1.0000 0.50000  0.50000  0.50000  Biso   1.000  Ni
