data_image0
_cell_length_a       17.5185
_cell_length_b       6.875
_cell_length_c       12.168
_cell_angle_alpha    90
_cell_angle_beta     90
_cell_angle_gamma    90

_symmetry_space_group_name_H-M    "P 1"
_symmetry_int_tables_number       1

loop_
  _symmetry_equiv_pos_as_xyz
  'x, y, z'

loop_
  _atom_site_label
  _atom_site_occupancy
  _atom_site_fract_x
  _atom_site_fract_y
  _atom_site_fract_z
  _atom_site_thermal_displace_type
  _atom_site_B_iso_or_equiv
  _atom_site_type_symbol
  O1       1.0000 0.08936  0.91360  0.08920  Biso   1.000  O
  O2       1.0000 0.42601  0.58800  0.38530  Biso   1.000  O
  C1       1.0000 0.22700  0.57580  0.20150  Biso   1.000  C
  H1       1.0000 0.20460  0.45840  0.18150  Biso   1.000  H
  C2       1.0000 0.29420  0.57650  0.25950  Biso   1.000  C
  H2       1.0000 0.31690  0.45920  0.27920  Biso   1.000  H
  O3       1.0000 0.41064  0.08640  0.58920  Biso   1.000  O
  O4       1.0000 0.07399  0.41200  0.88530  Biso   1.000  O
  C3       1.0000 0.27300  0.42420  0.70150  Biso   1.000  C
  H3       1.0000 0.29540  0.54160  0.68150  Biso   1.000  H
  C4       1.0000 0.20580  0.42350  0.75950  Biso   1.000  C
  H4       1.0000 0.18310  0.54080  0.77920  Biso   1.000  H
  O5       1.0000 0.91064  0.41360  0.91080  Biso   1.000  O
  O6       1.0000 0.57399  0.08800  0.61470  Biso   1.000  O
  C5       1.0000 0.77300  0.07580  0.79850  Biso   1.000  C
  H5       1.0000 0.79540  0.95840  0.81850  Biso   1.000  H
  C6       1.0000 0.70580  0.07650  0.74050  Biso   1.000  C
  H6       1.0000 0.68310  0.95920  0.72080  Biso   1.000  H
  O7       1.0000 0.58936  0.58640  0.41080  Biso   1.000  O
  O8       1.0000 0.92601  0.91200  0.11470  Biso   1.000  O
  C7       1.0000 0.72700  0.92420  0.29850  Biso   1.000  C
  H7       1.0000 0.70460  0.04160  0.31850  Biso   1.000  H
  C8       1.0000 0.79420  0.92350  0.24050  Biso   1.000  C
  H8       1.0000 0.81690  0.04080  0.22080  Biso   1.000  H
  O9       1.0000 0.91064  0.08640  0.91080  Biso   1.000  O
  O10      1.0000 0.57399  0.41200  0.61470  Biso   1.000  O
  C9       1.0000 0.77300  0.42420  0.79850  Biso   1.000  C
  H9       1.0000 0.79540  0.54160  0.81850  Biso   1.000  H
  C10      1.0000 0.70580  0.42350  0.74050  Biso   1.000  C
  H10      1.0000 0.68310  0.54080  0.72080  Biso   1.000  H
  O11      1.0000 0.58936  0.91360  0.41080  Biso   1.000  O
  O12      1.0000 0.92601  0.58800  0.11470  Biso   1.000  O
  C11      1.0000 0.72700  0.57580  0.29850  Biso   1.000  C
  H11      1.0000 0.70460  0.45840  0.31850  Biso   1.000  H
  C12      1.0000 0.79420  0.57650  0.24050  Biso   1.000  C
  H12      1.0000 0.81690  0.45920  0.22080  Biso   1.000  H
  O13      1.0000 0.08936  0.58640  0.08920  Biso   1.000  O
  O14      1.0000 0.42601  0.91200  0.38530  Biso   1.000  O
  C13      1.0000 0.22700  0.92420  0.20150  Biso   1.000  C
  H13      1.0000 0.20460  0.04160  0.18150  Biso   1.000  H
  C14      1.0000 0.29420  0.92350  0.25950  Biso   1.000  C
  H14      1.0000 0.31690  0.04080  0.27920  Biso   1.000  H
  O15      1.0000 0.41064  0.41360  0.58920  Biso   1.000  O
  O16      1.0000 0.07399  0.08800  0.88530  Biso   1.000  O
  C15      1.0000 0.27300  0.07580  0.70150  Biso   1.000  C
  H15      1.0000 0.29540  0.95840  0.68150  Biso   1.000  H
  C16      1.0000 0.20580  0.07650  0.75950  Biso   1.000  C
  H16      1.0000 0.18310  0.95920  0.77920  Biso   1.000  H
  V1       1.0000 0.00000  0.00000  0.00000  Biso   1.000  V
  V2       1.0000 0.50000  0.00000  0.50000  Biso   1.000  V
  V3       1.0000 0.00000  0.50000  0.00000  Biso   1.000  V
  V4       1.0000 0.50000  0.50000  0.50000  Biso   1.000  V
  O17      1.0000 0.99320  0.75000  0.92550  Biso   1.000  O
  C17      1.0000 0.32870  0.75000  0.28890  Biso   1.000  C
  C18      1.0000 0.19250  0.75000  0.17280  Biso   1.000  C
  C19      1.0000 0.39880  0.75000  0.35880  Biso   1.000  C
  C20      1.0000 0.11820  0.75000  0.11180  Biso   1.000  C
  O18      1.0000 0.50680  0.25000  0.42550  Biso   1.000  O
  C21      1.0000 0.17130  0.25000  0.78890  Biso   1.000  C
  C22      1.0000 0.30750  0.25000  0.67280  Biso   1.000  C
  C23      1.0000 0.10120  0.25000  0.85880  Biso   1.000  C
  C24      1.0000 0.38180  0.25000  0.61180  Biso   1.000  C
  O19      1.0000 0.00680  0.25000  0.07450  Biso   1.000  O
  C25      1.0000 0.67130  0.25000  0.71110  Biso   1.000  C
  C26      1.0000 0.80750  0.25000  0.82720  Biso   1.000  C
  C27      1.0000 0.60120  0.25000  0.64120  Biso   1.000  C
  C28      1.0000 0.88180  0.25000  0.88820  Biso   1.000  C
  O20      1.0000 0.49320  0.75000  0.57450  Biso   1.000  O
  C29      1.0000 0.82870  0.75000  0.21110  Biso   1.000  C
  C30      1.0000 0.69250  0.75000  0.32720  Biso   1.000  C
  C31      1.0000 0.89880  0.75000  0.14120  Biso   1.000  C
  C32      1.0000 0.61820  0.75000  0.38820  Biso   1.000  C
