data_image0
_cell_length_a       20.1658
_cell_length_b       18.5518
_cell_length_c       12.158
_cell_angle_alpha    90
_cell_angle_beta     95.331
_cell_angle_gamma    90

_symmetry_space_group_name_H-M    "P 1"
_symmetry_int_tables_number       1

loop_
  _symmetry_equiv_pos_as_xyz
  'x, y, z'

loop_
  _atom_site_label
  _atom_site_occupancy
  _atom_site_fract_x
  _atom_site_fract_y
  _atom_site_fract_z
  _atom_site_thermal_displace_type
  _atom_site_B_iso_or_equiv
  _atom_site_type_symbol
  O1       1.0000 0.03810  0.99930  0.16150  Biso   1.000  O
  H1       1.0000 0.07880  0.99000  0.16200  Biso   1.000  H
  O2       1.0000 0.94830  0.90000  0.00790  Biso   1.000  O
  O3       1.0000 0.92890  0.86470  0.17730  Biso   1.000  O
  O4       1.0000 0.06710  0.86150  0.82680  Biso   1.000  O
  O5       1.0000 0.08730  0.94440  0.96010  Biso   1.000  O
  C1       1.0000 0.91500  0.86710  0.07300  Biso   1.000  C
  C2       1.0000 0.85480  0.82550  0.02900  Biso   1.000  C
  C3       1.0000 0.81880  0.78690  0.09900  Biso   1.000  C
  H2       1.0000 0.83280  0.78590  0.17580  Biso   1.000  H
  C4       1.0000 0.76070  0.74830  0.05790  Biso   1.000  C
  C5       1.0000 0.83480  0.82680  0.91350  Biso   1.000  C
  H3       1.0000 0.86070  0.85210  0.86470  Biso   1.000  H
  C6       1.0000 0.72240  0.70890  0.12710  Biso   1.000  C
  H4       1.0000 0.73610  0.70670  0.20400  Biso   1.000  H
  C7       1.0000 0.09870  0.88500  0.91350  Biso   1.000  C
  C8       1.0000 0.15720  0.84130  0.96030  Biso   1.000  C
  C9       1.0000 0.19590  0.86450  0.05800  Biso   1.000  C
  H5       1.0000 0.18440  0.90760  0.09380  Biso   1.000  H
  C10      1.0000 0.24950  0.82490  0.10050  Biso   1.000  C
  H6       1.0000 0.27450  0.84090  0.16600  Biso   1.000  H
  C11      1.0000 0.17550  0.77940  0.91010  Biso   1.000  C
  H7       1.0000 0.14950  0.76330  0.84560  Biso   1.000  H
  C12      1.0000 0.26830  0.76140  0.04970  Biso   1.000  C
  O6       1.0000 0.53810  0.49930  0.16150  Biso   1.000  O
  H8       1.0000 0.57880  0.49000  0.16200  Biso   1.000  H
  O7       1.0000 0.44830  0.40000  0.00790  Biso   1.000  O
  O8       1.0000 0.42890  0.36470  0.17730  Biso   1.000  O
  O9       1.0000 0.56710  0.36150  0.82680  Biso   1.000  O
  O10      1.0000 0.58730  0.44440  0.96010  Biso   1.000  O
  C13      1.0000 0.41500  0.36710  0.07300  Biso   1.000  C
  C14      1.0000 0.35480  0.32550  0.02900  Biso   1.000  C
  C15      1.0000 0.31880  0.28690  0.09900  Biso   1.000  C
  H9       1.0000 0.33280  0.28590  0.17580  Biso   1.000  H
  C16      1.0000 0.26070  0.24830  0.05790  Biso   1.000  C
  C17      1.0000 0.33480  0.32680  0.91350  Biso   1.000  C
  H10      1.0000 0.36070  0.35210  0.86470  Biso   1.000  H
  C18      1.0000 0.22240  0.20890  0.12710  Biso   1.000  C
  H11      1.0000 0.23610  0.20670  0.20400  Biso   1.000  H
  C19      1.0000 0.59870  0.38500  0.91350  Biso   1.000  C
  C20      1.0000 0.65720  0.34130  0.96030  Biso   1.000  C
  C21      1.0000 0.69590  0.36450  0.05800  Biso   1.000  C
  H12      1.0000 0.68440  0.40760  0.09380  Biso   1.000  H
  C22      1.0000 0.74950  0.32490  0.10050  Biso   1.000  C
  H13      1.0000 0.77450  0.34090  0.16600  Biso   1.000  H
  C23      1.0000 0.67550  0.27940  0.91010  Biso   1.000  C
  H14      1.0000 0.64950  0.26330  0.84560  Biso   1.000  H
  C24      1.0000 0.76830  0.26140  0.04970  Biso   1.000  C
  O11      1.0000 0.96190  0.99930  0.33850  Biso   1.000  O
  H15      1.0000 0.92120  0.99000  0.33800  Biso   1.000  H
  O12      1.0000 0.05170  0.90000  0.49210  Biso   1.000  O
  O13      1.0000 0.07110  0.86470  0.32270  Biso   1.000  O
  O14      1.0000 0.93290  0.86150  0.67320  Biso   1.000  O
  O15      1.0000 0.91270  0.94440  0.53990  Biso   1.000  O
  C25      1.0000 0.08500  0.86710  0.42700  Biso   1.000  C
  C26      1.0000 0.14520  0.82550  0.47100  Biso   1.000  C
  C27      1.0000 0.18120  0.78690  0.40100  Biso   1.000  C
  H16      1.0000 0.16720  0.78590  0.32420  Biso   1.000  H
  C28      1.0000 0.23930  0.74830  0.44210  Biso   1.000  C
  C29      1.0000 0.16520  0.82680  0.58650  Biso   1.000  C
  H17      1.0000 0.13930  0.85210  0.63530  Biso   1.000  H
  C30      1.0000 0.27760  0.70890  0.37290  Biso   1.000  C
  H18      1.0000 0.26390  0.70670  0.29600  Biso   1.000  H
  C31      1.0000 0.90130  0.88500  0.58650  Biso   1.000  C
  C32      1.0000 0.84280  0.84130  0.53970  Biso   1.000  C
  C33      1.0000 0.80410  0.86450  0.44200  Biso   1.000  C
  H19      1.0000 0.81560  0.90760  0.40620  Biso   1.000  H
  C34      1.0000 0.75050  0.82490  0.39950  Biso   1.000  C
  H20      1.0000 0.72550  0.84090  0.33400  Biso   1.000  H
  C35      1.0000 0.82450  0.77940  0.58990  Biso   1.000  C
  H21      1.0000 0.85050  0.76330  0.65440  Biso   1.000  H
  C36      1.0000 0.73170  0.76140  0.45030  Biso   1.000  C
  O16      1.0000 0.46190  0.49930  0.33850  Biso   1.000  O
  H22      1.0000 0.42120  0.49000  0.33800  Biso   1.000  H
  O17      1.0000 0.55170  0.40000  0.49210  Biso   1.000  O
  O18      1.0000 0.57110  0.36470  0.32270  Biso   1.000  O
  O19      1.0000 0.43290  0.36150  0.67320  Biso   1.000  O
  O20      1.0000 0.41270  0.44440  0.53990  Biso   1.000  O
  C37      1.0000 0.58500  0.36710  0.42700  Biso   1.000  C
  C38      1.0000 0.64520  0.32550  0.47100  Biso   1.000  C
  C39      1.0000 0.68120  0.28690  0.40100  Biso   1.000  C
  H23      1.0000 0.66720  0.28590  0.32420  Biso   1.000  H
  C40      1.0000 0.73930  0.24830  0.44210  Biso   1.000  C
  C41      1.0000 0.66520  0.32680  0.58650  Biso   1.000  C
  H24      1.0000 0.63930  0.35210  0.63530  Biso   1.000  H
  C42      1.0000 0.77760  0.20890  0.37290  Biso   1.000  C
  H25      1.0000 0.76390  0.20670  0.29600  Biso   1.000  H
  C43      1.0000 0.40130  0.38500  0.58650  Biso   1.000  C
  C44      1.0000 0.34280  0.34130  0.53970  Biso   1.000  C
  C45      1.0000 0.30410  0.36450  0.44200  Biso   1.000  C
  H26      1.0000 0.31560  0.40760  0.40620  Biso   1.000  H
  C46      1.0000 0.25050  0.32490  0.39950  Biso   1.000  C
  H27      1.0000 0.22550  0.34090  0.33400  Biso   1.000  H
  C47      1.0000 0.32450  0.27940  0.58990  Biso   1.000  C
  H28      1.0000 0.35050  0.26330  0.65440  Biso   1.000  H
  C48      1.0000 0.23170  0.26140  0.45030  Biso   1.000  C
  O21      1.0000 0.96190  0.00070  0.83850  Biso   1.000  O
  H29      1.0000 0.92120  0.01000  0.83800  Biso   1.000  H
  O22      1.0000 0.05170  0.10000  0.99210  Biso   1.000  O
  O23      1.0000 0.07110  0.13530  0.82270  Biso   1.000  O
  O24      1.0000 0.93290  0.13850  0.17320  Biso   1.000  O
  O25      1.0000 0.91270  0.05560  0.03990  Biso   1.000  O
  C49      1.0000 0.08500  0.13290  0.92700  Biso   1.000  C
  C50      1.0000 0.14520  0.17450  0.97100  Biso   1.000  C
  C51      1.0000 0.18120  0.21310  0.90100  Biso   1.000  C
  H30      1.0000 0.16720  0.21410  0.82420  Biso   1.000  H
  C52      1.0000 0.23930  0.25170  0.94210  Biso   1.000  C
  C53      1.0000 0.16520  0.17320  0.08650  Biso   1.000  C
  H31      1.0000 0.13930  0.14790  0.13530  Biso   1.000  H
  C54      1.0000 0.27760  0.29110  0.87290  Biso   1.000  C
  H32      1.0000 0.26390  0.29330  0.79600  Biso   1.000  H
  C55      1.0000 0.90130  0.11500  0.08650  Biso   1.000  C
  C56      1.0000 0.84280  0.15870  0.03970  Biso   1.000  C
  C57      1.0000 0.80410  0.13550  0.94200  Biso   1.000  C
  H33      1.0000 0.81560  0.09240  0.90620  Biso   1.000  H
  C58      1.0000 0.75050  0.17510  0.89950  Biso   1.000  C
  H34      1.0000 0.72550  0.15910  0.83400  Biso   1.000  H
  C59      1.0000 0.82450  0.22060  0.08990  Biso   1.000  C
  H35      1.0000 0.85050  0.23670  0.15440  Biso   1.000  H
  C60      1.0000 0.73170  0.23860  0.95030  Biso   1.000  C
  O26      1.0000 0.46190  0.50070  0.83850  Biso   1.000  O
  H36      1.0000 0.42120  0.51000  0.83800  Biso   1.000  H
  O27      1.0000 0.55170  0.60000  0.99210  Biso   1.000  O
  O28      1.0000 0.57110  0.63530  0.82270  Biso   1.000  O
  O29      1.0000 0.43290  0.63850  0.17320  Biso   1.000  O
  O30      1.0000 0.41270  0.55560  0.03990  Biso   1.000  O
  C61      1.0000 0.58500  0.63290  0.92700  Biso   1.000  C
  C62      1.0000 0.64520  0.67450  0.97100  Biso   1.000  C
  C63      1.0000 0.68120  0.71310  0.90100  Biso   1.000  C
  H37      1.0000 0.66720  0.71410  0.82420  Biso   1.000  H
  C64      1.0000 0.73930  0.75170  0.94210  Biso   1.000  C
  C65      1.0000 0.66520  0.67320  0.08650  Biso   1.000  C
  H38      1.0000 0.63930  0.64790  0.13530  Biso   1.000  H
  C66      1.0000 0.77760  0.79110  0.87290  Biso   1.000  C
  H39      1.0000 0.76390  0.79330  0.79600  Biso   1.000  H
  C67      1.0000 0.40130  0.61500  0.08650  Biso   1.000  C
  C68      1.0000 0.34280  0.65870  0.03970  Biso   1.000  C
  C69      1.0000 0.30410  0.63550  0.94200  Biso   1.000  C
  H40      1.0000 0.31560  0.59240  0.90620  Biso   1.000  H
  C70      1.0000 0.25050  0.67510  0.89950  Biso   1.000  C
  H41      1.0000 0.22550  0.65910  0.83400  Biso   1.000  H
  C71      1.0000 0.32450  0.72060  0.08990  Biso   1.000  C
  H42      1.0000 0.35050  0.73670  0.15440  Biso   1.000  H
  C72      1.0000 0.23170  0.73860  0.95030  Biso   1.000  C
  O31      1.0000 0.03810  0.00070  0.66150  Biso   1.000  O
  H43      1.0000 0.07880  0.01000  0.66200  Biso   1.000  H
  O32      1.0000 0.94830  0.10000  0.50790  Biso   1.000  O
  O33      1.0000 0.92890  0.13530  0.67730  Biso   1.000  O
  O34      1.0000 0.06710  0.13850  0.32680  Biso   1.000  O
  O35      1.0000 0.08730  0.05560  0.46010  Biso   1.000  O
  C73      1.0000 0.91500  0.13290  0.57300  Biso   1.000  C
  C74      1.0000 0.85480  0.17450  0.52900  Biso   1.000  C
  C75      1.0000 0.81880  0.21310  0.59900  Biso   1.000  C
  H44      1.0000 0.83280  0.21410  0.67580  Biso   1.000  H
  C76      1.0000 0.76070  0.25170  0.55790  Biso   1.000  C
  C77      1.0000 0.83480  0.17320  0.41350  Biso   1.000  C
  H45      1.0000 0.86070  0.14790  0.36470  Biso   1.000  H
  C78      1.0000 0.72240  0.29110  0.62710  Biso   1.000  C
  H46      1.0000 0.73610  0.29330  0.70400  Biso   1.000  H
  C79      1.0000 0.09870  0.11500  0.41350  Biso   1.000  C
  C80      1.0000 0.15720  0.15870  0.46030  Biso   1.000  C
  C81      1.0000 0.19590  0.13550  0.55800  Biso   1.000  C
  H47      1.0000 0.18440  0.09240  0.59380  Biso   1.000  H
  C82      1.0000 0.24950  0.17510  0.60050  Biso   1.000  C
  H48      1.0000 0.27450  0.15910  0.66600  Biso   1.000  H
  C83      1.0000 0.17550  0.22060  0.41010  Biso   1.000  C
  H49      1.0000 0.14950  0.23670  0.34560  Biso   1.000  H
  C84      1.0000 0.26830  0.23860  0.54970  Biso   1.000  C
  O36      1.0000 0.53810  0.50070  0.66150  Biso   1.000  O
  H50      1.0000 0.57880  0.51000  0.66200  Biso   1.000  H
  O37      1.0000 0.44830  0.60000  0.50790  Biso   1.000  O
  O38      1.0000 0.42890  0.63530  0.67730  Biso   1.000  O
  O39      1.0000 0.56710  0.63850  0.32680  Biso   1.000  O
  O40      1.0000 0.58730  0.55560  0.46010  Biso   1.000  O
  C85      1.0000 0.41500  0.63290  0.57300  Biso   1.000  C
  C86      1.0000 0.35480  0.67450  0.52900  Biso   1.000  C
  C87      1.0000 0.31880  0.71310  0.59900  Biso   1.000  C
  H51      1.0000 0.33280  0.71410  0.67580  Biso   1.000  H
  C88      1.0000 0.26070  0.75170  0.55790  Biso   1.000  C
  C89      1.0000 0.33480  0.67320  0.41350  Biso   1.000  C
  H52      1.0000 0.36070  0.64790  0.36470  Biso   1.000  H
  C90      1.0000 0.22240  0.79110  0.62710  Biso   1.000  C
  H53      1.0000 0.23610  0.79330  0.70400  Biso   1.000  H
  C91      1.0000 0.59870  0.61500  0.41350  Biso   1.000  C
  C92      1.0000 0.65720  0.65870  0.46030  Biso   1.000  C
  C93      1.0000 0.69590  0.63550  0.55800  Biso   1.000  C
  H54      1.0000 0.68440  0.59240  0.59380  Biso   1.000  H
  C94      1.0000 0.74950  0.67510  0.60050  Biso   1.000  C
  H55      1.0000 0.77450  0.65910  0.66600  Biso   1.000  H
  C95      1.0000 0.67550  0.72060  0.41010  Biso   1.000  C
  H56      1.0000 0.64950  0.73670  0.34560  Biso   1.000  H
  C96      1.0000 0.76830  0.73860  0.54970  Biso   1.000  C
  Zn1      1.0000 0.00000  0.00000  0.00000  Biso   1.000  Zn
  Zn2      1.0000 0.50000  0.50000  0.00000  Biso   1.000  Zn
  Zn3      1.0000 0.00000  0.00000  0.50000  Biso   1.000  Zn
  Zn4      1.0000 0.50000  0.50000  0.50000  Biso   1.000  Zn
  Zn5      1.0000 0.00000  0.92123  0.25000  Biso   1.000  Zn
  Zn6      1.0000 0.00000  0.07785  0.25000  Biso   1.000  Zn
  Zn7      1.0000 0.50000  0.42123  0.25000  Biso   1.000  Zn
  Zn8      1.0000 0.50000  0.57785  0.25000  Biso   1.000  Zn
  Zn9      1.0000 0.00000  0.07877  0.75000  Biso   1.000  Zn
  Zn10     1.0000 0.00000  0.92215  0.75000  Biso   1.000  Zn
  Zn11     1.0000 0.50000  0.57877  0.75000  Biso   1.000  Zn
  Zn12     1.0000 0.50000  0.42215  0.75000  Biso   1.000  Zn
