data_image0
_cell_length_a       20.467
_cell_length_b       20.467
_cell_length_c       34.344
_cell_angle_alpha    90
_cell_angle_beta     90
_cell_angle_gamma    90

_symmetry_space_group_name_H-M    "P 1"
_symmetry_int_tables_number       1

loop_
  _symmetry_equiv_pos_as_xyz
  'x, y, z'

loop_
  _atom_site_label
  _atom_site_occupancy
  _atom_site_fract_x
  _atom_site_fract_y
  _atom_site_fract_z
  _atom_site_thermal_displace_type
  _atom_site_B_iso_or_equiv
  _atom_site_type_symbol
  Mn1      1.0000 0.31852  0.13038  0.19785  Biso   1.000  Mn
  Mn2      1.0000 0.11302  0.31028  0.21380  Biso   1.000  Mn
  Cu1      1.0000 0.31323  0.97107  0.92029  Biso   1.000  Cu
  Cu2      1.0000 0.45192  0.17063  0.06390  Biso   1.000  Cu
  C1       1.0000 0.34480  0.05130  0.03046  Biso   1.000  C
  H1       1.0000 0.38820  0.03810  0.03160  Biso   1.000  H
  C2       1.0000 0.30140  0.02190  0.00379  Biso   1.000  C
  C3       1.0000 0.23720  0.04350  0.00110  Biso   1.000  C
  H2       1.0000 0.20960  0.02580  0.98240  Biso   1.000  H
  C4       1.0000 0.21440  0.09110  0.02598  Biso   1.000  C
  H3       1.0000 0.17110  0.10440  0.02440  Biso   1.000  H
  C5       1.0000 0.25560  0.11960  0.05362  Biso   1.000  C
  H4       1.0000 0.23950  0.15080  0.07080  Biso   1.000  H
  C6       1.0000 0.32190  0.10050  0.05521  Biso   1.000  C
  C7       1.0000 0.35600  0.92360  0.99052  Biso   1.000  C
  C8       1.0000 0.37310  0.87190  0.96085  Biso   1.000  C
  C9       1.0000 0.35820  0.13630  0.11685  Biso   1.000  C
  C10      1.0000 0.41640  0.16300  0.13996  Biso   1.000  C
  C11      1.0000 0.38800  0.11850  0.95411  Biso   1.000  C
  H5       1.0000 0.41830  0.08480  0.95220  Biso   1.000  H
  C12      1.0000 0.33200  0.11860  0.93008  Biso   1.000  C
  C13      1.0000 0.28860  0.16970  0.93377  Biso   1.000  C
  H6       1.0000 0.25130  0.17000  0.91820  Biso   1.000  H
  C14      1.0000 0.29830  0.22000  0.95954  Biso   1.000  C
  H7       1.0000 0.26840  0.25420  0.96090  Biso   1.000  H
  C15      1.0000 0.35410  0.21950  0.98401  Biso   1.000  C
  H8       1.0000 0.36100  0.25270  0.00200  Biso   1.000  H
  C16      1.0000 0.39760  0.16880  0.98045  Biso   1.000  C
  C17      1.0000 0.31540  0.07350  0.86717  Biso   1.000  C
  C18      1.0000 0.30680  0.00950  0.84457  Biso   1.000  C
  C19      1.0000 0.51160  0.16630  0.99147  Biso   1.000  C
  C20      1.0000 0.56620  0.16470  0.02265  Biso   1.000  C
  C21      1.0000 0.18930  0.18980  0.21311  Biso   1.000  C
  C22      1.0000 0.24020  0.24750  0.21238  Biso   1.000  C
  N1       1.0000 0.32400  0.97320  0.97749  Biso   1.000  N
  N2       1.0000 0.36740  0.13190  0.07976  Biso   1.000  N
  N3       1.0000 0.32120  0.06450  0.90514  Biso   1.000  N
  N4       1.0000 0.45240  0.16700  0.00616  Biso   1.000  N
  O1       1.0000 0.62277  0.16160  0.01049  Biso   1.000  O
  O2       1.0000 0.52798  0.16950  0.95693  Biso   1.000  O
  O3       1.0000 0.54940  0.16770  0.05775  Biso   1.000  O
  O4       1.0000 0.21230  0.13348  0.20900  Biso   1.000  O
  O5       1.0000 0.29850  0.23326  0.20693  Biso   1.000  O
  O6       1.0000 0.21930  0.30298  0.22000  Biso   1.000  O
  O7       1.0000 0.13080  0.20500  0.21551  Biso   1.000  O
  O8       1.0000 0.46530  0.18150  0.12044  Biso   1.000  O
  O9       1.0000 0.39840  0.81979  0.97236  Biso   1.000  O
  O10      1.0000 0.37190  0.91179  0.02624  Biso   1.000  O
  O11      1.0000 0.31761  0.12606  0.84874  Biso   1.000  O
  O12      1.0000 0.30160  0.01380  0.80855  Biso   1.000  O
  O13      1.0000 0.30550  0.95690  0.86371  Biso   1.000  O
  O14      1.0000 0.35700  0.88200  0.92567  Biso   1.000  O
  O15      1.0000 0.41340  0.16380  0.17614  Biso   1.000  O
  O16      1.0000 0.30757  0.11697  0.13624  Biso   1.000  O
  Mn3      1.0000 0.68148  0.86962  0.69785  Biso   1.000  Mn
  Mn4      1.0000 0.88698  0.68972  0.71380  Biso   1.000  Mn
  Cu3      1.0000 0.68677  0.02893  0.42029  Biso   1.000  Cu
  Cu4      1.0000 0.54808  0.82937  0.56390  Biso   1.000  Cu
  C23      1.0000 0.65520  0.94870  0.53046  Biso   1.000  C
  H9       1.0000 0.61180  0.96190  0.53160  Biso   1.000  H
  C24      1.0000 0.69860  0.97810  0.50379  Biso   1.000  C
  C25      1.0000 0.76280  0.95650  0.50110  Biso   1.000  C
  H10      1.0000 0.79040  0.97420  0.48240  Biso   1.000  H
  C26      1.0000 0.78560  0.90890  0.52598  Biso   1.000  C
  H11      1.0000 0.82890  0.89560  0.52440  Biso   1.000  H
  C27      1.0000 0.74440  0.88040  0.55362  Biso   1.000  C
  H12      1.0000 0.76050  0.84920  0.57080  Biso   1.000  H
  C28      1.0000 0.67810  0.89950  0.55521  Biso   1.000  C
  C29      1.0000 0.64400  0.07640  0.49052  Biso   1.000  C
  C30      1.0000 0.62690  0.12810  0.46085  Biso   1.000  C
  C31      1.0000 0.64180  0.86370  0.61685  Biso   1.000  C
  C32      1.0000 0.58360  0.83700  0.63996  Biso   1.000  C
  C33      1.0000 0.61200  0.88150  0.45411  Biso   1.000  C
  H13      1.0000 0.58170  0.91520  0.45220  Biso   1.000  H
  C34      1.0000 0.66800  0.88140  0.43008  Biso   1.000  C
  C35      1.0000 0.71140  0.83030  0.43377  Biso   1.000  C
  H14      1.0000 0.74870  0.83000  0.41820  Biso   1.000  H
  C36      1.0000 0.70170  0.78000  0.45954  Biso   1.000  C
  H15      1.0000 0.73160  0.74580  0.46090  Biso   1.000  H
  C37      1.0000 0.64590  0.78050  0.48401  Biso   1.000  C
  H16      1.0000 0.63900  0.74730  0.50200  Biso   1.000  H
  C38      1.0000 0.60240  0.83120  0.48045  Biso   1.000  C
  C39      1.0000 0.68460  0.92650  0.36717  Biso   1.000  C
  C40      1.0000 0.69320  0.99050  0.34457  Biso   1.000  C
  C41      1.0000 0.48840  0.83370  0.49147  Biso   1.000  C
  C42      1.0000 0.43380  0.83530  0.52265  Biso   1.000  C
  C43      1.0000 0.81070  0.81020  0.71311  Biso   1.000  C
  C44      1.0000 0.75980  0.75250  0.71238  Biso   1.000  C
  N5       1.0000 0.67600  0.02680  0.47749  Biso   1.000  N
  N6       1.0000 0.63260  0.86810  0.57976  Biso   1.000  N
  N7       1.0000 0.67880  0.93550  0.40514  Biso   1.000  N
  N8       1.0000 0.54760  0.83300  0.50616  Biso   1.000  N
  O17      1.0000 0.37723  0.83840  0.51049  Biso   1.000  O
  O18      1.0000 0.47202  0.83050  0.45693  Biso   1.000  O
  O19      1.0000 0.45060  0.83230  0.55775  Biso   1.000  O
  O20      1.0000 0.78770  0.86652  0.70900  Biso   1.000  O
  O21      1.0000 0.70150  0.76674  0.70693  Biso   1.000  O
  O22      1.0000 0.78070  0.69702  0.72000  Biso   1.000  O
  O23      1.0000 0.86920  0.79500  0.71551  Biso   1.000  O
  O24      1.0000 0.53470  0.81850  0.62044  Biso   1.000  O
  O25      1.0000 0.60160  0.18021  0.47236  Biso   1.000  O
  O26      1.0000 0.62810  0.08821  0.52624  Biso   1.000  O
  O27      1.0000 0.68239  0.87394  0.34874  Biso   1.000  O
  O28      1.0000 0.69840  0.98620  0.30855  Biso   1.000  O
  O29      1.0000 0.69450  0.04310  0.36371  Biso   1.000  O
  O30      1.0000 0.64300  0.11800  0.42567  Biso   1.000  O
  O31      1.0000 0.58660  0.83620  0.67614  Biso   1.000  O
  O32      1.0000 0.69243  0.88303  0.63624  Biso   1.000  O
  Mn5      1.0000 0.36962  0.81852  0.44785  Biso   1.000  Mn
  Mn6      1.0000 0.18972  0.61302  0.46380  Biso   1.000  Mn
  Cu5      1.0000 0.52893  0.81323  0.17029  Biso   1.000  Cu
  Cu6      1.0000 0.32937  0.95192  0.31390  Biso   1.000  Cu
  C45      1.0000 0.44870  0.84480  0.28046  Biso   1.000  C
  H17      1.0000 0.46190  0.88820  0.28160  Biso   1.000  H
  C46      1.0000 0.47810  0.80140  0.25379  Biso   1.000  C
  C47      1.0000 0.45650  0.73720  0.25110  Biso   1.000  C
  H18      1.0000 0.47420  0.70960  0.23240  Biso   1.000  H
  C48      1.0000 0.40890  0.71440  0.27598  Biso   1.000  C
  H19      1.0000 0.39560  0.67110  0.27440  Biso   1.000  H
  C49      1.0000 0.38040  0.75560  0.30362  Biso   1.000  C
  H20      1.0000 0.34920  0.73950  0.32080  Biso   1.000  H
  C50      1.0000 0.39950  0.82190  0.30521  Biso   1.000  C
  C51      1.0000 0.57640  0.85600  0.24052  Biso   1.000  C
  C52      1.0000 0.62810  0.87310  0.21085  Biso   1.000  C
  C53      1.0000 0.36370  0.85820  0.36685  Biso   1.000  C
  C54      1.0000 0.33700  0.91640  0.38996  Biso   1.000  C
  C55      1.0000 0.38150  0.88800  0.20411  Biso   1.000  C
  H21      1.0000 0.41520  0.91830  0.20220  Biso   1.000  H
  C56      1.0000 0.38140  0.83200  0.18008  Biso   1.000  C
  C57      1.0000 0.33030  0.78860  0.18377  Biso   1.000  C
  H22      1.0000 0.33000  0.75130  0.16820  Biso   1.000  H
  C58      1.0000 0.28000  0.79830  0.20954  Biso   1.000  C
  H23      1.0000 0.24580  0.76840  0.21090  Biso   1.000  H
  C59      1.0000 0.28050  0.85410  0.23401  Biso   1.000  C
  H24      1.0000 0.24730  0.86100  0.25200  Biso   1.000  H
  C60      1.0000 0.33120  0.89760  0.23045  Biso   1.000  C
  C61      1.0000 0.42650  0.81540  0.11717  Biso   1.000  C
  C62      1.0000 0.49050  0.80680  0.09457  Biso   1.000  C
  C63      1.0000 0.33370  0.01160  0.24147  Biso   1.000  C
  C64      1.0000 0.33530  0.06620  0.27265  Biso   1.000  C
  C65      1.0000 0.31020  0.68930  0.46311  Biso   1.000  C
  C66      1.0000 0.25250  0.74020  0.46238  Biso   1.000  C
  N9       1.0000 0.52680  0.82400  0.22749  Biso   1.000  N
  N10      1.0000 0.36810  0.86740  0.32976  Biso   1.000  N
  N11      1.0000 0.43550  0.82120  0.15514  Biso   1.000  N
  N12      1.0000 0.33300  0.95240  0.25616  Biso   1.000  N
  O33      1.0000 0.33840  0.12277  0.26049  Biso   1.000  O
  O34      1.0000 0.33050  0.02798  0.20693  Biso   1.000  O
  O35      1.0000 0.33230  0.04940  0.30775  Biso   1.000  O
  O36      1.0000 0.36652  0.71230  0.45900  Biso   1.000  O
  O37      1.0000 0.26674  0.79850  0.45693  Biso   1.000  O
  O38      1.0000 0.19702  0.71930  0.47000  Biso   1.000  O
  O39      1.0000 0.29500  0.63080  0.46551  Biso   1.000  O
  O40      1.0000 0.31850  0.96530  0.37044  Biso   1.000  O
  O41      1.0000 0.68021  0.89840  0.22236  Biso   1.000  O
  O42      1.0000 0.58821  0.87190  0.27624  Biso   1.000  O
  O43      1.0000 0.37394  0.81761  0.09874  Biso   1.000  O
  O44      1.0000 0.48620  0.80160  0.05855  Biso   1.000  O
  O45      1.0000 0.54310  0.80550  0.11371  Biso   1.000  O
  O46      1.0000 0.61800  0.85700  0.17567  Biso   1.000  O
  O47      1.0000 0.33620  0.91340  0.42614  Biso   1.000  O
  O48      1.0000 0.38303  0.80757  0.38624  Biso   1.000  O
  Mn7      1.0000 0.63038  0.18148  0.94785  Biso   1.000  Mn
  Mn8      1.0000 0.81028  0.38698  0.96380  Biso   1.000  Mn
  Cu7      1.0000 0.47107  0.18677  0.67029  Biso   1.000  Cu
  Cu8      1.0000 0.67063  0.04808  0.81390  Biso   1.000  Cu
  C67      1.0000 0.55130  0.15520  0.78046  Biso   1.000  C
  H25      1.0000 0.53810  0.11180  0.78160  Biso   1.000  H
  C68      1.0000 0.52190  0.19860  0.75379  Biso   1.000  C
  C69      1.0000 0.54350  0.26280  0.75110  Biso   1.000  C
  H26      1.0000 0.52580  0.29040  0.73240  Biso   1.000  H
  C70      1.0000 0.59110  0.28560  0.77598  Biso   1.000  C
  H27      1.0000 0.60440  0.32890  0.77440  Biso   1.000  H
  C71      1.0000 0.61960  0.24440  0.80362  Biso   1.000  C
  H28      1.0000 0.65080  0.26050  0.82080  Biso   1.000  H
  C72      1.0000 0.60050  0.17810  0.80521  Biso   1.000  C
  C73      1.0000 0.42360  0.14400  0.74052  Biso   1.000  C
  C74      1.0000 0.37190  0.12690  0.71085  Biso   1.000  C
  C75      1.0000 0.63630  0.14180  0.86685  Biso   1.000  C
  C76      1.0000 0.66300  0.08360  0.88996  Biso   1.000  C
  C77      1.0000 0.61850  0.11200  0.70411  Biso   1.000  C
  H29      1.0000 0.58480  0.08170  0.70220  Biso   1.000  H
  C78      1.0000 0.61860  0.16800  0.68008  Biso   1.000  C
  C79      1.0000 0.66970  0.21140  0.68377  Biso   1.000  C
  H30      1.0000 0.67000  0.24870  0.66820  Biso   1.000  H
  C80      1.0000 0.72000  0.20170  0.70954  Biso   1.000  C
  H31      1.0000 0.75420  0.23160  0.71090  Biso   1.000  H
  C81      1.0000 0.71950  0.14590  0.73401  Biso   1.000  C
  H32      1.0000 0.75270  0.13900  0.75200  Biso   1.000  H
  C82      1.0000 0.66880  0.10240  0.73045  Biso   1.000  C
  C83      1.0000 0.57350  0.18460  0.61717  Biso   1.000  C
  C84      1.0000 0.50950  0.19320  0.59457  Biso   1.000  C
  C85      1.0000 0.66630  0.98840  0.74147  Biso   1.000  C
  C86      1.0000 0.66470  0.93380  0.77265  Biso   1.000  C
  C87      1.0000 0.68980  0.31070  0.96311  Biso   1.000  C
  C88      1.0000 0.74750  0.25980  0.96238  Biso   1.000  C
  N13      1.0000 0.47320  0.17600  0.72749  Biso   1.000  N
  N14      1.0000 0.63190  0.13260  0.82976  Biso   1.000  N
  N15      1.0000 0.56450  0.17880  0.65514  Biso   1.000  N
  N16      1.0000 0.66700  0.04760  0.75616  Biso   1.000  N
  O49      1.0000 0.66160  0.87723  0.76049  Biso   1.000  O
  O50      1.0000 0.66950  0.97202  0.70693  Biso   1.000  O
  O51      1.0000 0.66770  0.95060  0.80775  Biso   1.000  O
  O52      1.0000 0.63348  0.28770  0.95900  Biso   1.000  O
  O53      1.0000 0.73326  0.20150  0.95693  Biso   1.000  O
  O54      1.0000 0.80298  0.28070  0.97000  Biso   1.000  O
  O55      1.0000 0.70500  0.36920  0.96551  Biso   1.000  O
  O56      1.0000 0.68150  0.03470  0.87044  Biso   1.000  O
  O57      1.0000 0.31979  0.10160  0.72236  Biso   1.000  O
  O58      1.0000 0.41179  0.12810  0.77624  Biso   1.000  O
  O59      1.0000 0.62606  0.18239  0.59874  Biso   1.000  O
  O60      1.0000 0.51380  0.19840  0.55855  Biso   1.000  O
  O61      1.0000 0.45690  0.19450  0.61371  Biso   1.000  O
  O62      1.0000 0.38200  0.14300  0.67567  Biso   1.000  O
  O63      1.0000 0.66380  0.08660  0.92614  Biso   1.000  O
  O64      1.0000 0.61697  0.19243  0.88624  Biso   1.000  O
  Mn9      1.0000 0.18148  0.63038  0.05215  Biso   1.000  Mn
  Mn10     1.0000 0.38698  0.81028  0.03620  Biso   1.000  Mn
  Cu9      1.0000 0.18677  0.47107  0.32971  Biso   1.000  Cu
  Cu10     1.0000 0.04808  0.67063  0.18610  Biso   1.000  Cu
  C89      1.0000 0.15520  0.55130  0.21954  Biso   1.000  C
  H33      1.0000 0.11180  0.53810  0.21840  Biso   1.000  H
  C90      1.0000 0.19860  0.52190  0.24621  Biso   1.000  C
  C91      1.0000 0.26280  0.54350  0.24890  Biso   1.000  C
  H34      1.0000 0.29040  0.52580  0.26760  Biso   1.000  H
  C92      1.0000 0.28560  0.59110  0.22402  Biso   1.000  C
  H35      1.0000 0.32890  0.60440  0.22560  Biso   1.000  H
  C93      1.0000 0.24440  0.61960  0.19638  Biso   1.000  C
  H36      1.0000 0.26050  0.65080  0.17920  Biso   1.000  H
  C94      1.0000 0.17810  0.60050  0.19479  Biso   1.000  C
  C95      1.0000 0.14400  0.42360  0.25948  Biso   1.000  C
  C96      1.0000 0.12690  0.37190  0.28915  Biso   1.000  C
  C97      1.0000 0.14180  0.63630  0.13315  Biso   1.000  C
  C98      1.0000 0.08360  0.66300  0.11004  Biso   1.000  C
  C99      1.0000 0.11200  0.61850  0.29589  Biso   1.000  C
  H37      1.0000 0.08170  0.58480  0.29780  Biso   1.000  H
  C100     1.0000 0.16800  0.61860  0.31992  Biso   1.000  C
  C101     1.0000 0.21140  0.66970  0.31623  Biso   1.000  C
  H38      1.0000 0.24870  0.67000  0.33180  Biso   1.000  H
  C102     1.0000 0.20170  0.72000  0.29046  Biso   1.000  C
  H39      1.0000 0.23160  0.75420  0.28910  Biso   1.000  H
  C103     1.0000 0.14590  0.71950  0.26599  Biso   1.000  C
  H40      1.0000 0.13900  0.75270  0.24800  Biso   1.000  H
  C104     1.0000 0.10240  0.66880  0.26955  Biso   1.000  C
  C105     1.0000 0.18460  0.57350  0.38283  Biso   1.000  C
  C106     1.0000 0.19320  0.50950  0.40543  Biso   1.000  C
  C107     1.0000 0.98840  0.66630  0.25853  Biso   1.000  C
  C108     1.0000 0.93380  0.66470  0.22735  Biso   1.000  C
  C109     1.0000 0.31070  0.68980  0.03689  Biso   1.000  C
  C110     1.0000 0.25980  0.74750  0.03762  Biso   1.000  C
  N17      1.0000 0.17600  0.47320  0.27251  Biso   1.000  N
  N18      1.0000 0.13260  0.63190  0.17024  Biso   1.000  N
  N19      1.0000 0.17880  0.56450  0.34486  Biso   1.000  N
  N20      1.0000 0.04760  0.66700  0.24384  Biso   1.000  N
  O65      1.0000 0.87723  0.66160  0.23951  Biso   1.000  O
  O66      1.0000 0.97202  0.66950  0.29307  Biso   1.000  O
  O67      1.0000 0.95060  0.66770  0.19225  Biso   1.000  O
  O68      1.0000 0.28770  0.63348  0.04100  Biso   1.000  O
  O69      1.0000 0.20150  0.73326  0.04307  Biso   1.000  O
  O70      1.0000 0.28070  0.80298  0.03000  Biso   1.000  O
  O71      1.0000 0.36920  0.70500  0.03449  Biso   1.000  O
  O72      1.0000 0.03470  0.68150  0.12956  Biso   1.000  O
  O73      1.0000 0.10160  0.31979  0.27764  Biso   1.000  O
  O74      1.0000 0.12810  0.41179  0.22376  Biso   1.000  O
  O75      1.0000 0.18239  0.62606  0.40126  Biso   1.000  O
  O76      1.0000 0.19840  0.51380  0.44145  Biso   1.000  O
  O77      1.0000 0.19450  0.45690  0.38629  Biso   1.000  O
  O78      1.0000 0.14300  0.38200  0.32433  Biso   1.000  O
  O79      1.0000 0.08660  0.66380  0.07386  Biso   1.000  O
  O80      1.0000 0.19243  0.61697  0.11376  Biso   1.000  O
  Mn11     1.0000 0.81852  0.36962  0.55215  Biso   1.000  Mn
  Mn12     1.0000 0.61302  0.18972  0.53620  Biso   1.000  Mn
  Cu11     1.0000 0.81323  0.52893  0.82971  Biso   1.000  Cu
  Cu12     1.0000 0.95192  0.32937  0.68610  Biso   1.000  Cu
  C111     1.0000 0.84480  0.44870  0.71954  Biso   1.000  C
  H41      1.0000 0.88820  0.46190  0.71840  Biso   1.000  H
  C112     1.0000 0.80140  0.47810  0.74621  Biso   1.000  C
  C113     1.0000 0.73720  0.45650  0.74890  Biso   1.000  C
  H42      1.0000 0.70960  0.47420  0.76760  Biso   1.000  H
  C114     1.0000 0.71440  0.40890  0.72402  Biso   1.000  C
  H43      1.0000 0.67110  0.39560  0.72560  Biso   1.000  H
  C115     1.0000 0.75560  0.38040  0.69638  Biso   1.000  C
  H44      1.0000 0.73950  0.34920  0.67920  Biso   1.000  H
  C116     1.0000 0.82190  0.39950  0.69479  Biso   1.000  C
  C117     1.0000 0.85600  0.57640  0.75948  Biso   1.000  C
  C118     1.0000 0.87310  0.62810  0.78915  Biso   1.000  C
  C119     1.0000 0.85820  0.36370  0.63315  Biso   1.000  C
  C120     1.0000 0.91640  0.33700  0.61004  Biso   1.000  C
  C121     1.0000 0.88800  0.38150  0.79589  Biso   1.000  C
  H45      1.0000 0.91830  0.41520  0.79780  Biso   1.000  H
  C122     1.0000 0.83200  0.38140  0.81992  Biso   1.000  C
  C123     1.0000 0.78860  0.33030  0.81623  Biso   1.000  C
  H46      1.0000 0.75130  0.33000  0.83180  Biso   1.000  H
  C124     1.0000 0.79830  0.28000  0.79046  Biso   1.000  C
  H47      1.0000 0.76840  0.24580  0.78910  Biso   1.000  H
  C125     1.0000 0.85410  0.28050  0.76599  Biso   1.000  C
  H48      1.0000 0.86100  0.24730  0.74800  Biso   1.000  H
  C126     1.0000 0.89760  0.33120  0.76955  Biso   1.000  C
  C127     1.0000 0.81540  0.42650  0.88283  Biso   1.000  C
  C128     1.0000 0.80680  0.49050  0.90543  Biso   1.000  C
  C129     1.0000 0.01160  0.33370  0.75853  Biso   1.000  C
  C130     1.0000 0.06620  0.33530  0.72735  Biso   1.000  C
  C131     1.0000 0.68930  0.31020  0.53689  Biso   1.000  C
  C132     1.0000 0.74020  0.25250  0.53762  Biso   1.000  C
  N21      1.0000 0.82400  0.52680  0.77251  Biso   1.000  N
  N22      1.0000 0.86740  0.36810  0.67024  Biso   1.000  N
  N23      1.0000 0.82120  0.43550  0.84486  Biso   1.000  N
  N24      1.0000 0.95240  0.33300  0.74384  Biso   1.000  N
  O81      1.0000 0.12277  0.33840  0.73951  Biso   1.000  O
  O82      1.0000 0.02798  0.33050  0.79307  Biso   1.000  O
  O83      1.0000 0.04940  0.33230  0.69225  Biso   1.000  O
  O84      1.0000 0.71230  0.36652  0.54100  Biso   1.000  O
  O85      1.0000 0.79850  0.26674  0.54307  Biso   1.000  O
  O86      1.0000 0.71930  0.19702  0.53000  Biso   1.000  O
  O87      1.0000 0.63080  0.29500  0.53449  Biso   1.000  O
  O88      1.0000 0.96530  0.31850  0.62956  Biso   1.000  O
  O89      1.0000 0.89840  0.68021  0.77764  Biso   1.000  O
  O90      1.0000 0.87190  0.58821  0.72376  Biso   1.000  O
  O91      1.0000 0.81761  0.37394  0.90126  Biso   1.000  O
  O92      1.0000 0.80160  0.48620  0.94145  Biso   1.000  O
  O93      1.0000 0.80550  0.54310  0.88629  Biso   1.000  O
  O94      1.0000 0.85700  0.61800  0.82433  Biso   1.000  O
  O95      1.0000 0.91340  0.33620  0.57386  Biso   1.000  O
  O96      1.0000 0.80757  0.38303  0.61376  Biso   1.000  O
  Mn13     1.0000 0.13038  0.31852  0.80215  Biso   1.000  Mn
  Mn14     1.0000 0.31028  0.11302  0.78620  Biso   1.000  Mn
  Cu13     1.0000 0.97107  0.31323  0.07971  Biso   1.000  Cu
  Cu14     1.0000 0.17063  0.45192  0.93610  Biso   1.000  Cu
  C133     1.0000 0.05130  0.34480  0.96954  Biso   1.000  C
  H49      1.0000 0.03810  0.38820  0.96840  Biso   1.000  H
  C134     1.0000 0.02190  0.30140  0.99621  Biso   1.000  C
  C135     1.0000 0.04350  0.23720  0.99890  Biso   1.000  C
  H50      1.0000 0.02580  0.20960  0.01760  Biso   1.000  H
  C136     1.0000 0.09110  0.21440  0.97402  Biso   1.000  C
  H51      1.0000 0.10440  0.17110  0.97560  Biso   1.000  H
  C137     1.0000 0.11960  0.25560  0.94638  Biso   1.000  C
  H52      1.0000 0.15080  0.23950  0.92920  Biso   1.000  H
  C138     1.0000 0.10050  0.32190  0.94479  Biso   1.000  C
  C139     1.0000 0.92360  0.35600  0.00948  Biso   1.000  C
  C140     1.0000 0.87190  0.37310  0.03915  Biso   1.000  C
  C141     1.0000 0.13630  0.35820  0.88315  Biso   1.000  C
  C142     1.0000 0.16300  0.41640  0.86004  Biso   1.000  C
  C143     1.0000 0.11850  0.38800  0.04589  Biso   1.000  C
  H53      1.0000 0.08480  0.41830  0.04780  Biso   1.000  H
  C144     1.0000 0.11860  0.33200  0.06992  Biso   1.000  C
  C145     1.0000 0.16970  0.28860  0.06623  Biso   1.000  C
  H54      1.0000 0.17000  0.25130  0.08180  Biso   1.000  H
  C146     1.0000 0.22000  0.29830  0.04046  Biso   1.000  C
  H55      1.0000 0.25420  0.26840  0.03910  Biso   1.000  H
  C147     1.0000 0.21950  0.35410  0.01599  Biso   1.000  C
  H56      1.0000 0.25270  0.36100  0.99800  Biso   1.000  H
  C148     1.0000 0.16880  0.39760  0.01955  Biso   1.000  C
  C149     1.0000 0.07350  0.31540  0.13283  Biso   1.000  C
  C150     1.0000 0.00950  0.30680  0.15543  Biso   1.000  C
  C151     1.0000 0.16630  0.51160  0.00853  Biso   1.000  C
  C152     1.0000 0.16470  0.56620  0.97735  Biso   1.000  C
  C153     1.0000 0.18980  0.18930  0.78689  Biso   1.000  C
  C154     1.0000 0.24750  0.24020  0.78762  Biso   1.000  C
  N25      1.0000 0.97320  0.32400  0.02251  Biso   1.000  N
  N26      1.0000 0.13190  0.36740  0.92024  Biso   1.000  N
  N27      1.0000 0.06450  0.32120  0.09486  Biso   1.000  N
  N28      1.0000 0.16700  0.45240  0.99384  Biso   1.000  N
  O97      1.0000 0.16160  0.62277  0.98951  Biso   1.000  O
  O98      1.0000 0.16950  0.52798  0.04307  Biso   1.000  O
  O99      1.0000 0.16770  0.54940  0.94225  Biso   1.000  O
  O100     1.0000 0.13348  0.21230  0.79100  Biso   1.000  O
  O101     1.0000 0.23326  0.29850  0.79307  Biso   1.000  O
  O102     1.0000 0.30298  0.21930  0.78000  Biso   1.000  O
  O103     1.0000 0.20500  0.13080  0.78449  Biso   1.000  O
  O104     1.0000 0.18150  0.46530  0.87956  Biso   1.000  O
  O105     1.0000 0.81979  0.39840  0.02764  Biso   1.000  O
  O106     1.0000 0.91179  0.37190  0.97376  Biso   1.000  O
  O107     1.0000 0.12606  0.31761  0.15126  Biso   1.000  O
  O108     1.0000 0.01380  0.30160  0.19145  Biso   1.000  O
  O109     1.0000 0.95690  0.30550  0.13629  Biso   1.000  O
  O110     1.0000 0.88200  0.35700  0.07433  Biso   1.000  O
  O111     1.0000 0.16380  0.41340  0.82386  Biso   1.000  O
  O112     1.0000 0.11697  0.30757  0.86376  Biso   1.000  O
  Mn15     1.0000 0.86962  0.68148  0.30215  Biso   1.000  Mn
  Mn16     1.0000 0.68972  0.88698  0.28620  Biso   1.000  Mn
  Cu15     1.0000 0.02893  0.68677  0.57971  Biso   1.000  Cu
  Cu16     1.0000 0.82937  0.54808  0.43610  Biso   1.000  Cu
  C155     1.0000 0.94870  0.65520  0.46954  Biso   1.000  C
  H57      1.0000 0.96190  0.61180  0.46840  Biso   1.000  H
  C156     1.0000 0.97810  0.69860  0.49621  Biso   1.000  C
  C157     1.0000 0.95650  0.76280  0.49890  Biso   1.000  C
  H58      1.0000 0.97420  0.79040  0.51760  Biso   1.000  H
  C158     1.0000 0.90890  0.78560  0.47402  Biso   1.000  C
  H59      1.0000 0.89560  0.82890  0.47560  Biso   1.000  H
  C159     1.0000 0.88040  0.74440  0.44638  Biso   1.000  C
  H60      1.0000 0.84920  0.76050  0.42920  Biso   1.000  H
  C160     1.0000 0.89950  0.67810  0.44479  Biso   1.000  C
  C161     1.0000 0.07640  0.64400  0.50948  Biso   1.000  C
  C162     1.0000 0.12810  0.62690  0.53915  Biso   1.000  C
  C163     1.0000 0.86370  0.64180  0.38315  Biso   1.000  C
  C164     1.0000 0.83700  0.58360  0.36004  Biso   1.000  C
  C165     1.0000 0.88150  0.61200  0.54589  Biso   1.000  C
  H61      1.0000 0.91520  0.58170  0.54780  Biso   1.000  H
  C166     1.0000 0.88140  0.66800  0.56992  Biso   1.000  C
  C167     1.0000 0.83030  0.71140  0.56623  Biso   1.000  C
  H62      1.0000 0.83000  0.74870  0.58180  Biso   1.000  H
  C168     1.0000 0.78000  0.70170  0.54046  Biso   1.000  C
  H63      1.0000 0.74580  0.73160  0.53910  Biso   1.000  H
  C169     1.0000 0.78050  0.64590  0.51599  Biso   1.000  C
  H64      1.0000 0.74730  0.63900  0.49800  Biso   1.000  H
  C170     1.0000 0.83120  0.60240  0.51955  Biso   1.000  C
  C171     1.0000 0.92650  0.68460  0.63283  Biso   1.000  C
  C172     1.0000 0.99050  0.69320  0.65543  Biso   1.000  C
  C173     1.0000 0.83370  0.48840  0.50853  Biso   1.000  C
  C174     1.0000 0.83530  0.43380  0.47735  Biso   1.000  C
  C175     1.0000 0.81020  0.81070  0.28689  Biso   1.000  C
  C176     1.0000 0.75250  0.75980  0.28762  Biso   1.000  C
  N29      1.0000 0.02680  0.67600  0.52251  Biso   1.000  N
  N30      1.0000 0.86810  0.63260  0.42024  Biso   1.000  N
  N31      1.0000 0.93550  0.67880  0.59486  Biso   1.000  N
  N32      1.0000 0.83300  0.54760  0.49384  Biso   1.000  N
  O113     1.0000 0.83840  0.37723  0.48951  Biso   1.000  O
  O114     1.0000 0.83050  0.47202  0.54307  Biso   1.000  O
  O115     1.0000 0.83230  0.45060  0.44225  Biso   1.000  O
  O116     1.0000 0.86652  0.78770  0.29100  Biso   1.000  O
  O117     1.0000 0.76674  0.70150  0.29307  Biso   1.000  O
  O118     1.0000 0.69702  0.78070  0.28000  Biso   1.000  O
  O119     1.0000 0.79500  0.86920  0.28449  Biso   1.000  O
  O120     1.0000 0.81850  0.53470  0.37956  Biso   1.000  O
  O121     1.0000 0.18021  0.60160  0.52764  Biso   1.000  O
  O122     1.0000 0.08821  0.62810  0.47376  Biso   1.000  O
  O123     1.0000 0.87394  0.68239  0.65126  Biso   1.000  O
  O124     1.0000 0.98620  0.69840  0.69145  Biso   1.000  O
  O125     1.0000 0.04310  0.69450  0.63629  Biso   1.000  O
  O126     1.0000 0.11800  0.64300  0.57433  Biso   1.000  O
  O127     1.0000 0.83620  0.58660  0.32386  Biso   1.000  O
  O128     1.0000 0.88303  0.69243  0.36376  Biso   1.000  O
