data_IDUDES_clean
_audit_creation_date              2014-07-02
_audit_creation_method            'Materials Studio'
_symmetry_space_group_name_H-M    'P1'
_symmetry_Int_Tables_number       1
_symmetry_cell_setting            triclinic
loop_
_symmetry_equiv_pos_as_xyz
  x,y,z
_cell_length_a                    10.5385
_cell_length_b                    10.7768
_cell_length_c                    14.7694
_cell_angle_alpha                 90.0000
_cell_angle_beta                  108.7200
_cell_angle_gamma                 90.0000
loop_
_atom_site_label
_atom_site_type_symbol
_atom_site_fract_x
_atom_site_fract_y
_atom_site_fract_z
_atom_site_U_iso_or_equiv
_atom_site_adp_type
_atom_site_occupancy
Cu1    Cu    0.09349   0.08595   0.01114   0.01267  Uiso   1.00
Cu2    Cu    0.90651   0.58595   0.48886   0.01267  Uiso   1.00
Cu3    Cu    0.90651   0.91405   0.98886   0.01267  Uiso   1.00
Cu4    Cu    0.09349   0.41405   0.51114   0.01267  Uiso   1.00
H1     H     0.05330   0.72530   0.77400   0.01267  Uiso   1.00
H2     H     0.57560   0.46990   0.93290   0.01267  Uiso   1.00
H3     H     0.39230   0.55100   0.77890   0.01267  Uiso   1.00
H4     H     0.39750   0.80100   0.98150   0.01267  Uiso   1.00
H5     H     0.93050   0.63610   0.03880   0.01267  Uiso   1.00
H6     H     0.60970   0.83900   0.93960   0.01267  Uiso   1.00
H7     H     0.80580   0.45810   0.00590   0.01267  Uiso   1.00
H8     H     0.94670   0.22530   0.72600   0.01267  Uiso   1.00
H9     H     0.42440   0.96990   0.56710   0.01267  Uiso   1.00
H10    H     0.60770   0.05100   0.72110   0.01267  Uiso   1.00
H11    H     0.60250   0.30100   0.51850   0.01267  Uiso   1.00
H12    H     0.06950   0.13610   0.46120   0.01267  Uiso   1.00
H13    H     0.39030   0.33900   0.56040   0.01267  Uiso   1.00
H14    H     0.19420   0.95810   0.49410   0.01267  Uiso   1.00
H15    H     0.94670   0.27470   0.22600   0.01267  Uiso   1.00
H16    H     0.42440   0.53010   0.06710   0.01267  Uiso   1.00
H17    H     0.60770   0.44900   0.22110   0.01267  Uiso   1.00
H18    H     0.60250   0.19900   0.01850   0.01267  Uiso   1.00
H19    H     0.06950   0.36390   0.96120   0.01267  Uiso   1.00
H20    H     0.39030   0.16100   0.06040   0.01267  Uiso   1.00
H21    H     0.19420   0.54190   0.99410   0.01267  Uiso   1.00
H22    H     0.05330   0.77470   0.27400   0.01267  Uiso   1.00
H23    H     0.57560   0.03010   0.43290   0.01267  Uiso   1.00
H24    H     0.39230   0.94900   0.27890   0.01267  Uiso   1.00
H25    H     0.39750   0.69900   0.48150   0.01267  Uiso   1.00
H26    H     0.93050   0.86390   0.53880   0.01267  Uiso   1.00
H27    H     0.60970   0.66100   0.43960   0.01267  Uiso   1.00
H28    H     0.80580   0.04190   0.50590   0.01267  Uiso   1.00
C1     C     0.13820   0.85980   0.93008   0.01267  Uiso   1.00
C2     C     0.56640   0.65810   0.93041   0.01267  Uiso   1.00
C3     C     0.13800   0.57277   0.66616   0.01267  Uiso   1.00
C4     C     0.41820   0.67410   0.88591   0.01267  Uiso   1.00
C5     C     0.14480   0.71240   0.80217   0.01267  Uiso   1.00
C6     C     0.21290   0.77424   0.88555   0.01267  Uiso   1.00
C7     C     0.62690   0.54180   0.94872   0.01267  Uiso   1.00
C8     C     0.34810   0.60935   0.80428   0.01267  Uiso   1.00
C9     C     0.35070   0.75707   0.92674   0.01267  Uiso   1.00
C10    C     0.21170   0.63090   0.75961   0.01267  Uiso   1.00
C11    C     0.83820   0.64190   0.01011   0.01267  Uiso   1.00
C12    C     0.64910   0.76090   0.95184   0.01267  Uiso   1.00
C13    C     0.76400   0.53490   0.99080   0.01267  Uiso   1.00
C14    C     0.86180   0.35980   0.56992   0.01267  Uiso   1.00
C15    C     0.43360   0.15810   0.56959   0.01267  Uiso   1.00
C16    C     0.86200   0.07277   0.83384   0.01267  Uiso   1.00
C17    C     0.58180   0.17410   0.61409   0.01267  Uiso   1.00
C18    C     0.85520   0.21240   0.69783   0.01267  Uiso   1.00
C19    C     0.78710   0.27424   0.61445   0.01267  Uiso   1.00
C20    C     0.37310   0.04180   0.55128   0.01267  Uiso   1.00
C21    C     0.65190   0.10935   0.69572   0.01267  Uiso   1.00
C22    C     0.64930   0.25707   0.57326   0.01267  Uiso   1.00
C23    C     0.78830   0.13090   0.74039   0.01267  Uiso   1.00
C24    C     0.16180   0.14190   0.48989   0.01267  Uiso   1.00
C25    C     0.35090   0.26090   0.54816   0.01267  Uiso   1.00
C26    C     0.23600   0.03490   0.50920   0.01267  Uiso   1.00
C27    C     0.86180   0.14020   0.06992   0.01267  Uiso   1.00
C28    C     0.43360   0.34190   0.06959   0.01267  Uiso   1.00
C29    C     0.86200   0.42723   0.33384   0.01267  Uiso   1.00
C30    C     0.58180   0.32590   0.11409   0.01267  Uiso   1.00
C31    C     0.85520   0.28760   0.19783   0.01267  Uiso   1.00
C32    C     0.78710   0.22576   0.11445   0.01267  Uiso   1.00
C33    C     0.37310   0.45820   0.05128   0.01267  Uiso   1.00
C34    C     0.65190   0.39065   0.19572   0.01267  Uiso   1.00
C35    C     0.64930   0.24293   0.07326   0.01267  Uiso   1.00
C36    C     0.78830   0.36910   0.24039   0.01267  Uiso   1.00
C37    C     0.16180   0.35810   0.98989   0.01267  Uiso   1.00
C38    C     0.35090   0.23910   0.04816   0.01267  Uiso   1.00
C39    C     0.23600   0.46510   0.00920   0.01267  Uiso   1.00
C40    C     0.13820   0.64020   0.43008   0.01267  Uiso   1.00
C41    C     0.56640   0.84190   0.43041   0.01267  Uiso   1.00
C42    C     0.13800   0.92723   0.16616   0.01267  Uiso   1.00
C43    C     0.41820   0.82590   0.38591   0.01267  Uiso   1.00
C44    C     0.14480   0.78760   0.30217   0.01267  Uiso   1.00
C45    C     0.21290   0.72576   0.38555   0.01267  Uiso   1.00
C46    C     0.62690   0.95820   0.44872   0.01267  Uiso   1.00
C47    C     0.34810   0.89065   0.30428   0.01267  Uiso   1.00
C48    C     0.35070   0.74293   0.42674   0.01267  Uiso   1.00
C49    C     0.21170   0.86910   0.25961   0.01267  Uiso   1.00
C50    C     0.83820   0.85810   0.51011   0.01267  Uiso   1.00
C51    C     0.64910   0.73910   0.45184   0.01267  Uiso   1.00
C52    C     0.76400   0.96510   0.49080   0.01267  Uiso   1.00
N1     N     0.78272   0.75448   0.98922   0.01267  Uiso   1.00
N2     N     0.21728   0.25448   0.51078   0.01267  Uiso   1.00
N3     N     0.21728   0.24552   0.01078   0.01267  Uiso   1.00
N4     N     0.78272   0.74552   0.48922   0.01267  Uiso   1.00
O1     O     0.19149   0.96243   0.96089   0.01267  Uiso   1.00
O2     O     0.02568   0.82202   0.93227   0.01267  Uiso   1.00
O3     O     0.19010   0.47991   0.63911   0.01267  Uiso   1.00
O4     O     0.02801   0.62181   0.61923   0.01267  Uiso   1.00
O5     O     0.80851   0.46243   0.53911   0.01267  Uiso   1.00
O6     O     0.97432   0.32202   0.56773   0.01267  Uiso   1.00
O7     O     0.80990   0.97991   0.86089   0.01267  Uiso   1.00
O8     O     0.97199   0.12181   0.88077   0.01267  Uiso   1.00
O9     O     0.80851   0.03757   0.03911   0.01267  Uiso   1.00
O10    O     0.97432   0.17798   0.06773   0.01267  Uiso   1.00
O11    O     0.80990   0.52009   0.36089   0.01267  Uiso   1.00
O12    O     0.97199   0.37819   0.38077   0.01267  Uiso   1.00
O13    O     0.19149   0.53757   0.46089   0.01267  Uiso   1.00
O14    O     0.02568   0.67798   0.43227   0.01267  Uiso   1.00
O15    O     0.19010   0.02009   0.13911   0.01267  Uiso   1.00
O16    O     0.02801   0.87819   0.11923   0.01267  Uiso   1.00
