data_image0
_cell_length_a       23.6251
_cell_length_b       10.2528
_cell_length_c       7.8199
_cell_angle_alpha    90
_cell_angle_beta     90
_cell_angle_gamma    90

_symmetry_space_group_name_H-M    "P 1"
_symmetry_int_tables_number       1

loop_
  _symmetry_equiv_pos_as_xyz
  'x, y, z'

loop_
  _atom_site_label
  _atom_site_occupancy
  _atom_site_fract_x
  _atom_site_fract_y
  _atom_site_fract_z
  _atom_site_thermal_displace_type
  _atom_site_B_iso_or_equiv
  _atom_site_type_symbol
  O1       1.0000 0.04700  0.35350  0.07720  Biso   1.000  O
  O2       1.0000 0.54700  0.85350  0.07720  Biso   1.000  O
  O3       1.0000 0.95300  0.64650  0.57720  Biso   1.000  O
  O4       1.0000 0.45300  0.14650  0.57720  Biso   1.000  O
  O5       1.0000 0.95300  0.35350  0.42280  Biso   1.000  O
  O6       1.0000 0.45300  0.85350  0.42280  Biso   1.000  O
  O7       1.0000 0.04700  0.64650  0.92280  Biso   1.000  O
  O8       1.0000 0.54700  0.14650  0.92280  Biso   1.000  O
  O9       1.0000 0.95300  0.64650  0.92280  Biso   1.000  O
  O10      1.0000 0.45300  0.14650  0.92280  Biso   1.000  O
  O11      1.0000 0.04700  0.35350  0.42280  Biso   1.000  O
  O12      1.0000 0.54700  0.85350  0.42280  Biso   1.000  O
  O13      1.0000 0.04700  0.64650  0.57720  Biso   1.000  O
  O14      1.0000 0.54700  0.14650  0.57720  Biso   1.000  O
  O15      1.0000 0.95300  0.35350  0.07720  Biso   1.000  O
  O16      1.0000 0.45300  0.85350  0.07720  Biso   1.000  O
  Cs1      1.0000 0.31159  0.31699  0.25000  Biso   1.000  Cs
  Cd1      1.0000 0.12428  0.40048  0.25000  Biso   1.000  Cd
  Br1      1.0000 0.16916  0.16625  0.25000  Biso   1.000  Br
  O17      1.0000 0.08290  0.61380  0.25000  Biso   1.000  O
  Cs2      1.0000 0.81159  0.81699  0.25000  Biso   1.000  Cs
  Cd2      1.0000 0.62428  0.90048  0.25000  Biso   1.000  Cd
  Br2      1.0000 0.66916  0.66625  0.25000  Biso   1.000  Br
  O18      1.0000 0.58290  0.11380  0.25000  Biso   1.000  O
  Cs3      1.0000 0.68841  0.68301  0.75000  Biso   1.000  Cs
  Cd3      1.0000 0.87572  0.59952  0.75000  Biso   1.000  Cd
  Br3      1.0000 0.83084  0.83375  0.75000  Biso   1.000  Br
  O19      1.0000 0.91710  0.38620  0.75000  Biso   1.000  O
  Cs4      1.0000 0.18841  0.18301  0.75000  Biso   1.000  Cs
  Cd4      1.0000 0.37572  0.09952  0.75000  Biso   1.000  Cd
  Br4      1.0000 0.33084  0.33375  0.75000  Biso   1.000  Br
  O20      1.0000 0.41710  0.88620  0.75000  Biso   1.000  O
  Cs5      1.0000 0.68841  0.31699  0.25000  Biso   1.000  Cs
  Cd5      1.0000 0.87572  0.40048  0.25000  Biso   1.000  Cd
  Br5      1.0000 0.83084  0.16625  0.25000  Biso   1.000  Br
  O21      1.0000 0.91710  0.61380  0.25000  Biso   1.000  O
  Cs6      1.0000 0.18841  0.81699  0.25000  Biso   1.000  Cs
  Cd6      1.0000 0.37572  0.90048  0.25000  Biso   1.000  Cd
  Br6      1.0000 0.33084  0.66625  0.25000  Biso   1.000  Br
  O22      1.0000 0.41710  0.11380  0.25000  Biso   1.000  O
  Cs7      1.0000 0.31159  0.68301  0.75000  Biso   1.000  Cs
  Cd7      1.0000 0.12428  0.59952  0.75000  Biso   1.000  Cd
  Br7      1.0000 0.16916  0.83375  0.75000  Biso   1.000  Br
  O23      1.0000 0.08290  0.38620  0.75000  Biso   1.000  O
  Cs8      1.0000 0.81159  0.18301  0.75000  Biso   1.000  Cs
  Cd8      1.0000 0.62428  0.09952  0.75000  Biso   1.000  Cd
  Br8      1.0000 0.66916  0.33375  0.75000  Biso   1.000  Br
  O24      1.0000 0.58290  0.88620  0.75000  Biso   1.000  O
  Br9      1.0000 0.19264  0.50000  0.00000  Biso   1.000  Br
  Br10     1.0000 0.69264  0.00000  0.00000  Biso   1.000  Br
  Br11     1.0000 0.80736  0.50000  0.50000  Biso   1.000  Br
  Br12     1.0000 0.30736  0.00000  0.50000  Biso   1.000  Br
  Br13     1.0000 0.80736  0.50000  0.00000  Biso   1.000  Br
  Br14     1.0000 0.30736  0.00000  0.00000  Biso   1.000  Br
  Br15     1.0000 0.19264  0.50000  0.50000  Biso   1.000  Br
  Br16     1.0000 0.69264  0.00000  0.50000  Biso   1.000  Br
  C1       1.0000 0.00000  0.35380  0.15000  Biso   1.000  C
  C2       1.0000 0.50000  0.85380  0.15000  Biso   1.000  C
  C3       1.0000 0.00000  0.64620  0.65000  Biso   1.000  C
  C4       1.0000 0.50000  0.14620  0.65000  Biso   1.000  C
  C5       1.0000 0.00000  0.35380  0.35000  Biso   1.000  C
  C6       1.0000 0.50000  0.85380  0.35000  Biso   1.000  C
  C7       1.0000 0.00000  0.64620  0.85000  Biso   1.000  C
  C8       1.0000 0.50000  0.14620  0.85000  Biso   1.000  C
