data_image0
_cell_length_a       24.814
_cell_length_b       18.458
_cell_length_c       10.2572
_cell_angle_alpha    90
_cell_angle_beta     90
_cell_angle_gamma    90

_symmetry_space_group_name_H-M    "P 1"
_symmetry_int_tables_number       1

loop_
  _symmetry_equiv_pos_as_xyz
  'x, y, z'

loop_
  _atom_site_label
  _atom_site_occupancy
  _atom_site_fract_x
  _atom_site_fract_y
  _atom_site_fract_z
  _atom_site_thermal_displace_type
  _atom_site_B_iso_or_equiv
  _atom_site_type_symbol
  Ga1      1.0000 0.43750  0.91578  0.11277  Biso   1.000  Ga
  Ga2      1.0000 0.33839  0.15286  0.92770  Biso   1.000  Ga
  Zn1      1.0000 0.55936  0.93034  0.37861  Biso   1.000  Zn
  Ga3      1.0000 0.23536  0.08295  0.60171  Biso   1.000  Ga
  Ga4      1.0000 0.34615  0.82721  0.59097  Biso   1.000  Ga
  Ga5      1.0000 0.24147  0.89312  0.89762  Biso   1.000  Ga
  Ga6      1.0000 0.27631  0.70236  0.91842  Biso   1.000  Ga
  Ga7      1.0000 0.23191  0.77191  0.42260  Biso   1.000  Ga
  P1       1.0000 0.23253  0.06490  0.89600  Biso   1.000  P
  P2       1.0000 0.43785  0.90392  0.41490  Biso   1.000  P
  P3       1.0000 0.43573  0.08428  0.08020  Biso   1.000  P
  P4       1.0000 0.23462  0.91030  0.60540  Biso   1.000  P
  P5       1.0000 0.36066  0.83174  0.90570  Biso   1.000  P
  P6       1.0000 0.64541  0.85511  0.57890  Biso   1.000  P
  P7       1.0000 0.30016  0.67990  0.62230  Biso   1.000  P
  P8       1.0000 0.29142  0.29451  0.87540  Biso   1.000  P
  F1       1.0000 0.24670  0.78830  0.83290  Biso   1.000  F
  F2       1.0000 0.23740  0.18780  0.66690  Biso   1.000  F
  F3       1.0000 0.30710  0.81230  0.41850  Biso   1.000  F
  O1       1.0000 0.29170  0.08600  0.86810  Biso   1.000  O
  O2       1.0000 0.20400  0.06410  0.76120  Biso   1.000  O
  O3       1.0000 0.23200  0.99000  0.95830  Biso   1.000  O
  O4       1.0000 0.20250  0.11770  0.98390  Biso   1.000  O
  O5       1.0000 0.49610  0.90500  0.46530  Biso   1.000  O
  O6       1.0000 0.41220  0.97950  0.41920  Biso   1.000  O
  O7       1.0000 0.43630  0.87310  0.27640  Biso   1.000  O
  O8       1.0000 0.40860  0.85410  0.50560  Biso   1.000  O
  O9       1.0000 0.40400  0.13130  0.98660  Biso   1.000  O
  O10      1.0000 0.42850  0.11440  0.21960  Biso   1.000  O
  O11      1.0000 0.41330  0.00650  0.07260  Biso   1.000  O
  O12      1.0000 0.49440  0.08990  0.03670  Biso   1.000  O
  O13      1.0000 0.20660  0.85540  0.51950  Biso   1.000  O
  O14      1.0000 0.29490  0.89520  0.62860  Biso   1.000  O
  O15      1.0000 0.22810  0.98420  0.54150  Biso   1.000  O
  O16      1.0000 0.20700  0.90860  0.74150  Biso   1.000  O
  O17      1.0000 0.34500  0.75390  0.93020  Biso   1.000  O
  O18      1.0000 0.40690  0.84870  0.99940  Biso   1.000  O
  O19      1.0000 0.38050  0.84410  0.76620  Biso   1.000  O
  O20      1.0000 0.31460  0.88590  0.93670  Biso   1.000  O
  O21      1.0000 0.69220  0.90920  0.55860  Biso   1.000  O
  O22      1.0000 0.66170  0.77660  0.57350  Biso   1.000  O
  O23      1.0000 0.61950  0.87000  0.71320  Biso   1.000  O
  O24      1.0000 0.60400  0.86750  0.47240  Biso   1.000  O
  O25      1.0000 0.35000  0.72790  0.60980  Biso   1.000  O
  O26      1.0000 0.25000  0.72250  0.58330  Biso   1.000  O
  O27      1.0000 0.30830  0.61340  0.53540  Biso   1.000  O
  O28      1.0000 0.29440  0.65260  0.76230  Biso   1.000  O
  O29      1.0000 0.28340  0.32270  0.73770  Biso   1.000  O
  O30      1.0000 0.34220  0.24730  0.88180  Biso   1.000  O
  O31      1.0000 0.30050  0.36030  0.96390  Biso   1.000  O
  O32      1.0000 0.24350  0.25010  0.91950  Biso   1.000  O
  O33      1.0000 0.30030  0.16580  0.09620  Biso   1.000  O
  Ga8      1.0000 0.56250  0.08422  0.11277  Biso   1.000  Ga
  Ga9      1.0000 0.66161  0.84714  0.92770  Biso   1.000  Ga
  Zn2      1.0000 0.44064  0.06966  0.37861  Biso   1.000  Zn
  Ga10     1.0000 0.76464  0.91705  0.60171  Biso   1.000  Ga
  Ga11     1.0000 0.65385  0.17279  0.59097  Biso   1.000  Ga
  Ga12     1.0000 0.75853  0.10688  0.89762  Biso   1.000  Ga
  Ga13     1.0000 0.72369  0.29764  0.91842  Biso   1.000  Ga
  Ga14     1.0000 0.76809  0.22809  0.42260  Biso   1.000  Ga
  P9       1.0000 0.76747  0.93510  0.89600  Biso   1.000  P
  P10      1.0000 0.56215  0.09608  0.41490  Biso   1.000  P
  P11      1.0000 0.56427  0.91572  0.08020  Biso   1.000  P
  P12      1.0000 0.76538  0.08970  0.60540  Biso   1.000  P
  P13      1.0000 0.63934  0.16826  0.90570  Biso   1.000  P
  P14      1.0000 0.35459  0.14489  0.57890  Biso   1.000  P
  P15      1.0000 0.69984  0.32010  0.62230  Biso   1.000  P
  P16      1.0000 0.70858  0.70549  0.87540  Biso   1.000  P
  F4       1.0000 0.75330  0.21170  0.83290  Biso   1.000  F
  F5       1.0000 0.76260  0.81220  0.66690  Biso   1.000  F
  F6       1.0000 0.69290  0.18770  0.41850  Biso   1.000  F
  O34      1.0000 0.70830  0.91400  0.86810  Biso   1.000  O
  O35      1.0000 0.79600  0.93590  0.76120  Biso   1.000  O
  O36      1.0000 0.76800  0.01000  0.95830  Biso   1.000  O
  O37      1.0000 0.79750  0.88230  0.98390  Biso   1.000  O
  O38      1.0000 0.50390  0.09500  0.46530  Biso   1.000  O
  O39      1.0000 0.58780  0.02050  0.41920  Biso   1.000  O
  O40      1.0000 0.56370  0.12690  0.27640  Biso   1.000  O
  O41      1.0000 0.59140  0.14590  0.50560  Biso   1.000  O
  O42      1.0000 0.59600  0.86870  0.98660  Biso   1.000  O
  O43      1.0000 0.57150  0.88560  0.21960  Biso   1.000  O
  O44      1.0000 0.58670  0.99350  0.07260  Biso   1.000  O
  O45      1.0000 0.50560  0.91010  0.03670  Biso   1.000  O
  O46      1.0000 0.79340  0.14460  0.51950  Biso   1.000  O
  O47      1.0000 0.70510  0.10480  0.62860  Biso   1.000  O
  O48      1.0000 0.77190  0.01580  0.54150  Biso   1.000  O
  O49      1.0000 0.79300  0.09140  0.74150  Biso   1.000  O
  O50      1.0000 0.65500  0.24610  0.93020  Biso   1.000  O
  O51      1.0000 0.59310  0.15130  0.99940  Biso   1.000  O
  O52      1.0000 0.61950  0.15590  0.76620  Biso   1.000  O
  O53      1.0000 0.68540  0.11410  0.93670  Biso   1.000  O
  O54      1.0000 0.30780  0.09080  0.55860  Biso   1.000  O
  O55      1.0000 0.33830  0.22340  0.57350  Biso   1.000  O
  O56      1.0000 0.38050  0.13000  0.71320  Biso   1.000  O
  O57      1.0000 0.39600  0.13250  0.47240  Biso   1.000  O
  O58      1.0000 0.65000  0.27210  0.60980  Biso   1.000  O
  O59      1.0000 0.75000  0.27750  0.58330  Biso   1.000  O
  O60      1.0000 0.69170  0.38660  0.53540  Biso   1.000  O
  O61      1.0000 0.70560  0.34740  0.76230  Biso   1.000  O
  O62      1.0000 0.71660  0.67730  0.73770  Biso   1.000  O
  O63      1.0000 0.65780  0.75270  0.88180  Biso   1.000  O
  O64      1.0000 0.69950  0.63970  0.96390  Biso   1.000  O
  O65      1.0000 0.75650  0.74990  0.91950  Biso   1.000  O
  O66      1.0000 0.69970  0.83420  0.09620  Biso   1.000  O
  Ga15     1.0000 0.06250  0.41578  0.88723  Biso   1.000  Ga
  Ga16     1.0000 0.16161  0.65286  0.07230  Biso   1.000  Ga
  Zn3      1.0000 0.94064  0.43034  0.62139  Biso   1.000  Zn
  Ga17     1.0000 0.26464  0.58295  0.39829  Biso   1.000  Ga
  Ga18     1.0000 0.15385  0.32721  0.40903  Biso   1.000  Ga
  Ga19     1.0000 0.25853  0.39312  0.10238  Biso   1.000  Ga
  Ga20     1.0000 0.22369  0.20236  0.08158  Biso   1.000  Ga
  Ga21     1.0000 0.26809  0.27191  0.57740  Biso   1.000  Ga
  P17      1.0000 0.26747  0.56490  0.10400  Biso   1.000  P
  P18      1.0000 0.06215  0.40392  0.58510  Biso   1.000  P
  P19      1.0000 0.06427  0.58428  0.91980  Biso   1.000  P
  P20      1.0000 0.26538  0.41030  0.39460  Biso   1.000  P
  P21      1.0000 0.13934  0.33174  0.09430  Biso   1.000  P
  P22      1.0000 0.85459  0.35511  0.42110  Biso   1.000  P
  P23      1.0000 0.19984  0.17990  0.37770  Biso   1.000  P
  P24      1.0000 0.20858  0.79451  0.12460  Biso   1.000  P
  F7       1.0000 0.25330  0.28830  0.16710  Biso   1.000  F
  F8       1.0000 0.26260  0.68780  0.33310  Biso   1.000  F
  F9       1.0000 0.19290  0.31230  0.58150  Biso   1.000  F
  O67      1.0000 0.20830  0.58600  0.13190  Biso   1.000  O
  O68      1.0000 0.29600  0.56410  0.23880  Biso   1.000  O
  O69      1.0000 0.26800  0.49000  0.04170  Biso   1.000  O
  O70      1.0000 0.29750  0.61770  0.01610  Biso   1.000  O
  O71      1.0000 0.00390  0.40500  0.53470  Biso   1.000  O
  O72      1.0000 0.08780  0.47950  0.58080  Biso   1.000  O
  O73      1.0000 0.06370  0.37310  0.72360  Biso   1.000  O
  O74      1.0000 0.09140  0.35410  0.49440  Biso   1.000  O
  O75      1.0000 0.09600  0.63130  0.01340  Biso   1.000  O
  O76      1.0000 0.07150  0.61440  0.78040  Biso   1.000  O
  O77      1.0000 0.08670  0.50650  0.92740  Biso   1.000  O
  O78      1.0000 0.00560  0.58990  0.96330  Biso   1.000  O
  O79      1.0000 0.29340  0.35540  0.48050  Biso   1.000  O
  O80      1.0000 0.20510  0.39520  0.37140  Biso   1.000  O
  O81      1.0000 0.27190  0.48420  0.45850  Biso   1.000  O
  O82      1.0000 0.29300  0.40860  0.25850  Biso   1.000  O
  O83      1.0000 0.15500  0.25390  0.06980  Biso   1.000  O
  O84      1.0000 0.09310  0.34870  0.00060  Biso   1.000  O
  O85      1.0000 0.11950  0.34410  0.23380  Biso   1.000  O
  O86      1.0000 0.18540  0.38590  0.06330  Biso   1.000  O
  O87      1.0000 0.80780  0.40920  0.44140  Biso   1.000  O
  O88      1.0000 0.83830  0.27660  0.42650  Biso   1.000  O
  O89      1.0000 0.88050  0.37000  0.28680  Biso   1.000  O
  O90      1.0000 0.89600  0.36750  0.52760  Biso   1.000  O
  O91      1.0000 0.15000  0.22790  0.39020  Biso   1.000  O
  O92      1.0000 0.25000  0.22250  0.41670  Biso   1.000  O
  O93      1.0000 0.19170  0.11340  0.46460  Biso   1.000  O
  O94      1.0000 0.20560  0.15260  0.23770  Biso   1.000  O
  O95      1.0000 0.21660  0.82270  0.26230  Biso   1.000  O
  O96      1.0000 0.15780  0.74730  0.11820  Biso   1.000  O
  O97      1.0000 0.19950  0.86030  0.03610  Biso   1.000  O
  O98      1.0000 0.25650  0.75010  0.08050  Biso   1.000  O
  O99      1.0000 0.19970  0.66580  0.90380  Biso   1.000  O
  Ga22     1.0000 0.93750  0.58422  0.88723  Biso   1.000  Ga
  Ga23     1.0000 0.83839  0.34714  0.07230  Biso   1.000  Ga
  Zn4      1.0000 0.05936  0.56966  0.62139  Biso   1.000  Zn
  Ga24     1.0000 0.73536  0.41705  0.39829  Biso   1.000  Ga
  Ga25     1.0000 0.84615  0.67279  0.40903  Biso   1.000  Ga
  Ga26     1.0000 0.74147  0.60688  0.10238  Biso   1.000  Ga
  Ga27     1.0000 0.77631  0.79764  0.08158  Biso   1.000  Ga
  Ga28     1.0000 0.73191  0.72809  0.57740  Biso   1.000  Ga
  P25      1.0000 0.73253  0.43510  0.10400  Biso   1.000  P
  P26      1.0000 0.93785  0.59608  0.58510  Biso   1.000  P
  P27      1.0000 0.93573  0.41572  0.91980  Biso   1.000  P
  P28      1.0000 0.73462  0.58970  0.39460  Biso   1.000  P
  P29      1.0000 0.86066  0.66826  0.09430  Biso   1.000  P
  P30      1.0000 0.14541  0.64489  0.42110  Biso   1.000  P
  P31      1.0000 0.80016  0.82010  0.37770  Biso   1.000  P
  P32      1.0000 0.79142  0.20549  0.12460  Biso   1.000  P
  F10      1.0000 0.74670  0.71170  0.16710  Biso   1.000  F
  F11      1.0000 0.73740  0.31220  0.33310  Biso   1.000  F
  F12      1.0000 0.80710  0.68770  0.58150  Biso   1.000  F
  O100     1.0000 0.79170  0.41400  0.13190  Biso   1.000  O
  O101     1.0000 0.70400  0.43590  0.23880  Biso   1.000  O
  O102     1.0000 0.73200  0.51000  0.04170  Biso   1.000  O
  O103     1.0000 0.70250  0.38230  0.01610  Biso   1.000  O
  O104     1.0000 0.99610  0.59500  0.53470  Biso   1.000  O
  O105     1.0000 0.91220  0.52050  0.58080  Biso   1.000  O
  O106     1.0000 0.93630  0.62690  0.72360  Biso   1.000  O
  O107     1.0000 0.90860  0.64590  0.49440  Biso   1.000  O
  O108     1.0000 0.90400  0.36870  0.01340  Biso   1.000  O
  O109     1.0000 0.92850  0.38560  0.78040  Biso   1.000  O
  O110     1.0000 0.91330  0.49350  0.92740  Biso   1.000  O
  O111     1.0000 0.99440  0.41010  0.96330  Biso   1.000  O
  O112     1.0000 0.70660  0.64460  0.48050  Biso   1.000  O
  O113     1.0000 0.79490  0.60480  0.37140  Biso   1.000  O
  O114     1.0000 0.72810  0.51580  0.45850  Biso   1.000  O
  O115     1.0000 0.70700  0.59140  0.25850  Biso   1.000  O
  O116     1.0000 0.84500  0.74610  0.06980  Biso   1.000  O
  O117     1.0000 0.90690  0.65130  0.00060  Biso   1.000  O
  O118     1.0000 0.88050  0.65590  0.23380  Biso   1.000  O
  O119     1.0000 0.81460  0.61410  0.06330  Biso   1.000  O
  O120     1.0000 0.19220  0.59080  0.44140  Biso   1.000  O
  O121     1.0000 0.16170  0.72340  0.42650  Biso   1.000  O
  O122     1.0000 0.11950  0.63000  0.28680  Biso   1.000  O
  O123     1.0000 0.10400  0.63250  0.52760  Biso   1.000  O
  O124     1.0000 0.85000  0.77210  0.39020  Biso   1.000  O
  O125     1.0000 0.75000  0.77750  0.41670  Biso   1.000  O
  O126     1.0000 0.80830  0.88660  0.46460  Biso   1.000  O
  O127     1.0000 0.79440  0.84740  0.23770  Biso   1.000  O
  O128     1.0000 0.78340  0.17730  0.26230  Biso   1.000  O
  O129     1.0000 0.84220  0.25270  0.11820  Biso   1.000  O
  O130     1.0000 0.80050  0.13970  0.03610  Biso   1.000  O
  O131     1.0000 0.74350  0.24990  0.08050  Biso   1.000  O
  O132     1.0000 0.80030  0.33420  0.90380  Biso   1.000  O
