data_IFAQUC_clean
_audit_creation_date              2014-07-02
_audit_creation_method            'Materials Studio'
_symmetry_space_group_name_H-M    'P1'
_symmetry_Int_Tables_number       1
_symmetry_cell_setting            triclinic
loop_
_symmetry_equiv_pos_as_xyz
  x,y,z
_cell_length_a                    8.9070
_cell_length_b                    18.9320
_cell_length_c                    28.6440
_cell_angle_alpha                 90.0000
_cell_angle_beta                  98.6410
_cell_angle_gamma                 90.0000
loop_
_atom_site_label
_atom_site_type_symbol
_atom_site_fract_x
_atom_site_fract_y
_atom_site_fract_z
_atom_site_U_iso_or_equiv
_atom_site_adp_type
_atom_site_occupancy
Co1    Co    0.32436   0.03870   0.78048   0.01267  Uiso   1.00
Co2    Co    0.90996   0.77687   0.03806   0.01267  Uiso   1.00
Co3    Co    0.17564   0.53870   0.71952   0.01267  Uiso   1.00
Co4    Co    0.59004   0.27687   0.46194   0.01267  Uiso   1.00
Co5    Co    0.67564   0.96130   0.21952   0.01267  Uiso   1.00
Co6    Co    0.09004   0.22313   0.96194   0.01267  Uiso   1.00
Co7    Co    0.82436   0.46130   0.28048   0.01267  Uiso   1.00
Co8    Co    0.40996   0.72313   0.53806   0.01267  Uiso   1.00
Mo1    Mo    0.39731   0.90500   0.86421   0.01267  Uiso   1.00
Mo2    Mo    0.56773   0.81771   0.95874   0.01267  Uiso   1.00
Mo3    Mo    0.53242   0.62953   0.92639   0.01267  Uiso   1.00
Mo4    Mo    0.46338   0.63066   0.80760   0.01267  Uiso   1.00
Mo5    Mo    0.35676   0.79255   0.77051   0.01267  Uiso   1.00
Mo6    Mo    0.10269   0.40500   0.63579   0.01267  Uiso   1.00
Mo7    Mo    0.93227   0.31771   0.54126   0.01267  Uiso   1.00
Mo8    Mo    0.96758   0.12953   0.57361   0.01267  Uiso   1.00
Mo9    Mo    0.03662   0.13066   0.69240   0.01267  Uiso   1.00
Mo10   Mo    0.14324   0.29255   0.72949   0.01267  Uiso   1.00
Mo11   Mo    0.60269   0.09500   0.13579   0.01267  Uiso   1.00
Mo12   Mo    0.43227   0.18229   0.04126   0.01267  Uiso   1.00
Mo13   Mo    0.46758   0.37047   0.07361   0.01267  Uiso   1.00
Mo14   Mo    0.53662   0.36934   0.19240   0.01267  Uiso   1.00
Mo15   Mo    0.64324   0.20745   0.22949   0.01267  Uiso   1.00
Mo16   Mo    0.89731   0.59500   0.36421   0.01267  Uiso   1.00
Mo17   Mo    0.06773   0.68229   0.45874   0.01267  Uiso   1.00
Mo18   Mo    0.03242   0.87047   0.42639   0.01267  Uiso   1.00
Mo19   Mo    0.96338   0.86934   0.30760   0.01267  Uiso   1.00
Mo20   Mo    0.85676   0.70745   0.27051   0.01267  Uiso   1.00
P1     P     0.26717   0.73915   0.87771   0.01267  Uiso   1.00
P2     P     0.67097   0.77011   0.85694   0.01267  Uiso   1.00
P3     P     0.23283   0.23915   0.62229   0.01267  Uiso   1.00
P4     P     0.82903   0.27011   0.64306   0.01267  Uiso   1.00
P5     P     0.73283   0.26085   0.12229   0.01267  Uiso   1.00
P6     P     0.32903   0.22989   0.14306   0.01267  Uiso   1.00
P7     P     0.76717   0.76085   0.37771   0.01267  Uiso   1.00
P8     P     0.17097   0.72989   0.35694   0.01267  Uiso   1.00
H1     H     0.09560   0.92540   0.73330   0.01267  Uiso   1.00
H2     H     0.84730   0.89160   0.73260   0.01267  Uiso   1.00
H3     H     0.70680   0.94370   0.78580   0.01267  Uiso   1.00
H4     H     0.82350   0.02750   0.83880   0.01267  Uiso   1.00
H5     H     0.58410   0.22400   0.88380   0.01267  Uiso   1.00
H6     H     0.80420   0.23180   0.84970   0.01267  Uiso   1.00
H7     H     0.81900   0.17170   0.77980   0.01267  Uiso   1.00
H8     H     0.61920   0.09960   0.74860   0.01267  Uiso   1.00
H9     H     0.22220   0.37460   0.97550   0.01267  Uiso   1.00
H10    H     0.34610   0.45590   0.93480   0.01267  Uiso   1.00
H11    H     0.42420   0.42230   0.86480   0.01267  Uiso   1.00
H12    H     0.39000   0.30660   0.83910   0.01267  Uiso   1.00
H13    H     0.96360   0.97870   0.90600   0.01267  Uiso   1.00
H14    H     0.80250   0.94890   0.95990   0.01267  Uiso   1.00
H15    H     0.73460   0.03520   0.01030   0.01267  Uiso   1.00
H16    H     0.84160   0.14640   0.00930   0.01267  Uiso   1.00
H17    H     0.07050   0.81580   0.85590   0.01267  Uiso   1.00
H18    H     0.04610   0.77530   0.90190   0.01267  Uiso   1.00
H19    H     0.84520   0.80750   0.81160   0.01267  Uiso   1.00
H20    H     0.77240   0.73650   0.79190   0.01267  Uiso   1.00
H21    H     0.00770   0.70040   0.81620   0.01267  Uiso   1.00
H22    H     0.93490   0.68270   0.86140   0.01267  Uiso   1.00
H23    H     0.40440   0.42540   0.76670   0.01267  Uiso   1.00
H24    H     0.65270   0.39160   0.76740   0.01267  Uiso   1.00
H25    H     0.79320   0.44370   0.71420   0.01267  Uiso   1.00
H26    H     0.67650   0.52750   0.66120   0.01267  Uiso   1.00
H27    H     0.91590   0.72400   0.61620   0.01267  Uiso   1.00
H28    H     0.69580   0.73180   0.65030   0.01267  Uiso   1.00
H29    H     0.68100   0.67170   0.72020   0.01267  Uiso   1.00
H30    H     0.88080   0.59960   0.75140   0.01267  Uiso   1.00
H31    H     0.27780   0.87460   0.52450   0.01267  Uiso   1.00
H32    H     0.15390   0.95590   0.56520   0.01267  Uiso   1.00
H33    H     0.07580   0.92230   0.63520   0.01267  Uiso   1.00
H34    H     0.11000   0.80660   0.66090   0.01267  Uiso   1.00
H35    H     0.53640   0.47870   0.59400   0.01267  Uiso   1.00
H36    H     0.69750   0.44890   0.54010   0.01267  Uiso   1.00
H37    H     0.76540   0.53520   0.48970   0.01267  Uiso   1.00
H38    H     0.65840   0.64640   0.49070   0.01267  Uiso   1.00
H39    H     0.42950   0.31580   0.64410   0.01267  Uiso   1.00
H40    H     0.45390   0.27530   0.59810   0.01267  Uiso   1.00
H41    H     0.65480   0.30750   0.68840   0.01267  Uiso   1.00
H42    H     0.72760   0.23650   0.70810   0.01267  Uiso   1.00
H43    H     0.49230   0.20040   0.68380   0.01267  Uiso   1.00
H44    H     0.56510   0.18270   0.63860   0.01267  Uiso   1.00
H45    H     0.90440   0.07460   0.26670   0.01267  Uiso   1.00
H46    H     0.15270   0.10840   0.26740   0.01267  Uiso   1.00
H47    H     0.29320   0.05630   0.21420   0.01267  Uiso   1.00
H48    H     0.17650   0.97250   0.16120   0.01267  Uiso   1.00
H49    H     0.41590   0.77600   0.11620   0.01267  Uiso   1.00
H50    H     0.19580   0.76820   0.15030   0.01267  Uiso   1.00
H51    H     0.18100   0.82830   0.22020   0.01267  Uiso   1.00
H52    H     0.38080   0.90040   0.25140   0.01267  Uiso   1.00
H53    H     0.77780   0.62540   0.02450   0.01267  Uiso   1.00
H54    H     0.65390   0.54410   0.06520   0.01267  Uiso   1.00
H55    H     0.57580   0.57770   0.13520   0.01267  Uiso   1.00
H56    H     0.61000   0.69340   0.16090   0.01267  Uiso   1.00
H57    H     0.03640   0.02130   0.09400   0.01267  Uiso   1.00
H58    H     0.19750   0.05110   0.04010   0.01267  Uiso   1.00
H59    H     0.26540   0.96480   0.98970   0.01267  Uiso   1.00
H60    H     0.15840   0.85360   0.99070   0.01267  Uiso   1.00
H61    H     0.92950   0.18420   0.14410   0.01267  Uiso   1.00
H62    H     0.95390   0.22470   0.09810   0.01267  Uiso   1.00
H63    H     0.15480   0.19250   0.18840   0.01267  Uiso   1.00
H64    H     0.22760   0.26350   0.20810   0.01267  Uiso   1.00
H65    H     0.99230   0.29960   0.18380   0.01267  Uiso   1.00
H66    H     0.06510   0.31730   0.13860   0.01267  Uiso   1.00
H67    H     0.59560   0.57460   0.23330   0.01267  Uiso   1.00
H68    H     0.34730   0.60840   0.23260   0.01267  Uiso   1.00
H69    H     0.20680   0.55630   0.28580   0.01267  Uiso   1.00
H70    H     0.32350   0.47250   0.33880   0.01267  Uiso   1.00
H71    H     0.08410   0.27600   0.38380   0.01267  Uiso   1.00
H72    H     0.30420   0.26820   0.34970   0.01267  Uiso   1.00
H73    H     0.31900   0.32830   0.27980   0.01267  Uiso   1.00
H74    H     0.11920   0.40040   0.24860   0.01267  Uiso   1.00
H75    H     0.72220   0.12540   0.47550   0.01267  Uiso   1.00
H76    H     0.84610   0.04410   0.43480   0.01267  Uiso   1.00
H77    H     0.92420   0.07770   0.36480   0.01267  Uiso   1.00
H78    H     0.89000   0.19340   0.33910   0.01267  Uiso   1.00
H79    H     0.46360   0.52130   0.40600   0.01267  Uiso   1.00
H80    H     0.30250   0.55110   0.45990   0.01267  Uiso   1.00
H81    H     0.23460   0.46480   0.51030   0.01267  Uiso   1.00
H82    H     0.34160   0.35360   0.50930   0.01267  Uiso   1.00
H83    H     0.57050   0.68420   0.35590   0.01267  Uiso   1.00
H84    H     0.54610   0.72470   0.40190   0.01267  Uiso   1.00
H85    H     0.34520   0.69250   0.31160   0.01267  Uiso   1.00
H86    H     0.27240   0.76350   0.29190   0.01267  Uiso   1.00
H87    H     0.50770   0.79960   0.31620   0.01267  Uiso   1.00
H88    H     0.43490   0.81730   0.36140   0.01267  Uiso   1.00
C1     C     0.04040   0.94537   0.75509   0.01267  Uiso   1.00
C2     C     0.89110   0.92524   0.75417   0.01267  Uiso   1.00
C3     C     0.80790   0.95600   0.78586   0.01267  Uiso   1.00
C4     C     0.87790   0.00530   0.81771   0.01267  Uiso   1.00
C5     C     0.02960   0.02121   0.81773   0.01267  Uiso   1.00
C6     C     0.11620   0.07560   0.84887   0.01267  Uiso   1.00
C7     C     0.32290   0.15412   0.85013   0.01267  Uiso   1.00
C8     C     0.47120   0.16093   0.83307   0.01267  Uiso   1.00
C9     C     0.59160   0.20060   0.85565   0.01267  Uiso   1.00
C10    C     0.72290   0.20460   0.83556   0.01267  Uiso   1.00
C11    C     0.73290   0.16810   0.79447   0.01267  Uiso   1.00
C12    C     0.61150   0.12596   0.77549   0.01267  Uiso   1.00
C13    C     0.08160   0.10770   0.89026   0.01267  Uiso   1.00
C14    C     0.25780   0.36055   0.94808   0.01267  Uiso   1.00
C15    C     0.33040   0.41004   0.92356   0.01267  Uiso   1.00
C16    C     0.37830   0.38970   0.88246   0.01267  Uiso   1.00
C17    C     0.35860   0.32083   0.86712   0.01267  Uiso   1.00
C18    C     0.29100   0.27318   0.89430   0.01267  Uiso   1.00
C19    C     0.25690   0.19827   0.88129   0.01267  Uiso   1.00
C20    C     0.98350   0.08183   0.92422   0.01267  Uiso   1.00
C21    C     0.93390   0.01270   0.92623   0.01267  Uiso   1.00
C22    C     0.83940   0.99480   0.95868   0.01267  Uiso   1.00
C23    C     0.80090   0.04560   0.98905   0.01267  Uiso   1.00
C24    C     0.86280   0.11280   0.98752   0.01267  Uiso   1.00
C25    C     0.07550   0.76965   0.87084   0.01267  Uiso   1.00
C26    C     0.81610   0.76065   0.82058   0.01267  Uiso   1.00
C27    C     0.96130   0.72092   0.84162   0.01267  Uiso   1.00
C28    C     0.45960   0.44537   0.74491   0.01267  Uiso   1.00
C29    C     0.60890   0.42524   0.74583   0.01267  Uiso   1.00
C30    C     0.69210   0.45600   0.71414   0.01267  Uiso   1.00
C31    C     0.62210   0.50530   0.68229   0.01267  Uiso   1.00
C32    C     0.47040   0.52121   0.68227   0.01267  Uiso   1.00
C33    C     0.38380   0.57560   0.65113   0.01267  Uiso   1.00
C34    C     0.17710   0.65412   0.64987   0.01267  Uiso   1.00
C35    C     0.02880   0.66093   0.66693   0.01267  Uiso   1.00
C36    C     0.90840   0.70060   0.64435   0.01267  Uiso   1.00
C37    C     0.77710   0.70460   0.66444   0.01267  Uiso   1.00
C38    C     0.76710   0.66810   0.70553   0.01267  Uiso   1.00
C39    C     0.88850   0.62596   0.72451   0.01267  Uiso   1.00
C40    C     0.41840   0.60770   0.60974   0.01267  Uiso   1.00
C41    C     0.24220   0.86055   0.55192   0.01267  Uiso   1.00
C42    C     0.16960   0.91004   0.57644   0.01267  Uiso   1.00
C43    C     0.12170   0.88970   0.61754   0.01267  Uiso   1.00
C44    C     0.14140   0.82083   0.63288   0.01267  Uiso   1.00
C45    C     0.20900   0.77318   0.60570   0.01267  Uiso   1.00
C46    C     0.24310   0.69827   0.61871   0.01267  Uiso   1.00
C47    C     0.51650   0.58183   0.57578   0.01267  Uiso   1.00
C48    C     0.56610   0.51270   0.57377   0.01267  Uiso   1.00
C49    C     0.66060   0.49480   0.54132   0.01267  Uiso   1.00
C50    C     0.69910   0.54560   0.51095   0.01267  Uiso   1.00
C51    C     0.63720   0.61280   0.51248   0.01267  Uiso   1.00
C52    C     0.42450   0.26965   0.62916   0.01267  Uiso   1.00
C53    C     0.68390   0.26065   0.67942   0.01267  Uiso   1.00
C54    C     0.53870   0.22092   0.65838   0.01267  Uiso   1.00
C55    C     0.95960   0.05463   0.24491   0.01267  Uiso   1.00
C56    C     0.10890   0.07476   0.24583   0.01267  Uiso   1.00
C57    C     0.19210   0.04400   0.21414   0.01267  Uiso   1.00
C58    C     0.12210   0.99470   0.18229   0.01267  Uiso   1.00
C59    C     0.97040   0.97879   0.18227   0.01267  Uiso   1.00
C60    C     0.88380   0.92440   0.15113   0.01267  Uiso   1.00
C61    C     0.67710   0.84588   0.14987   0.01267  Uiso   1.00
C62    C     0.52880   0.83907   0.16693   0.01267  Uiso   1.00
C63    C     0.40840   0.79940   0.14435   0.01267  Uiso   1.00
C64    C     0.27710   0.79540   0.16444   0.01267  Uiso   1.00
C65    C     0.26710   0.83190   0.20553   0.01267  Uiso   1.00
C66    C     0.38850   0.87404   0.22451   0.01267  Uiso   1.00
C67    C     0.91840   0.89230   0.10974   0.01267  Uiso   1.00
C68    C     0.74220   0.63945   0.05192   0.01267  Uiso   1.00
C69    C     0.66960   0.58996   0.07644   0.01267  Uiso   1.00
C70    C     0.62170   0.61030   0.11754   0.01267  Uiso   1.00
C71    C     0.64140   0.67917   0.13288   0.01267  Uiso   1.00
C72    C     0.70900   0.72682   0.10570   0.01267  Uiso   1.00
C73    C     0.74310   0.80173   0.11871   0.01267  Uiso   1.00
C74    C     0.01650   0.91817   0.07578   0.01267  Uiso   1.00
C75    C     0.06610   0.98730   0.07377   0.01267  Uiso   1.00
C76    C     0.16060   0.00520   0.04132   0.01267  Uiso   1.00
C77    C     0.19910   0.95440   0.01095   0.01267  Uiso   1.00
C78    C     0.13720   0.88720   0.01248   0.01267  Uiso   1.00
C79    C     0.92450   0.23035   0.12916   0.01267  Uiso   1.00
C80    C     0.18390   0.23935   0.17942   0.01267  Uiso   1.00
C81    C     0.03870   0.27908   0.15838   0.01267  Uiso   1.00
C82    C     0.54040   0.55463   0.25509   0.01267  Uiso   1.00
C83    C     0.39110   0.57476   0.25417   0.01267  Uiso   1.00
C84    C     0.30790   0.54400   0.28586   0.01267  Uiso   1.00
C85    C     0.37790   0.49470   0.31771   0.01267  Uiso   1.00
C86    C     0.52960   0.47879   0.31773   0.01267  Uiso   1.00
C87    C     0.61620   0.42440   0.34887   0.01267  Uiso   1.00
C88    C     0.82290   0.34588   0.35013   0.01267  Uiso   1.00
C89    C     0.97120   0.33907   0.33307   0.01267  Uiso   1.00
C90    C     0.09160   0.29940   0.35565   0.01267  Uiso   1.00
C91    C     0.22290   0.29540   0.33556   0.01267  Uiso   1.00
C92    C     0.23290   0.33190   0.29447   0.01267  Uiso   1.00
C93    C     0.11150   0.37404   0.27549   0.01267  Uiso   1.00
C94    C     0.58160   0.39230   0.39026   0.01267  Uiso   1.00
C95    C     0.75780   0.13945   0.44808   0.01267  Uiso   1.00
C96    C     0.83040   0.08996   0.42356   0.01267  Uiso   1.00
C97    C     0.87830   0.11030   0.38246   0.01267  Uiso   1.00
C98    C     0.85860   0.17917   0.36712   0.01267  Uiso   1.00
C99    C     0.79100   0.22682   0.39430   0.01267  Uiso   1.00
C100   C     0.75690   0.30173   0.38129   0.01267  Uiso   1.00
C101   C     0.48350   0.41817   0.42422   0.01267  Uiso   1.00
C102   C     0.43390   0.48730   0.42623   0.01267  Uiso   1.00
C103   C     0.33940   0.50520   0.45868   0.01267  Uiso   1.00
C104   C     0.30090   0.45440   0.48905   0.01267  Uiso   1.00
C105   C     0.36280   0.38720   0.48752   0.01267  Uiso   1.00
C106   C     0.57550   0.73035   0.37084   0.01267  Uiso   1.00
C107   C     0.31610   0.73935   0.32058   0.01267  Uiso   1.00
C108   C     0.46130   0.77908   0.34162   0.01267  Uiso   1.00
N1     N     0.10900   0.99243   0.78599   0.01267  Uiso   1.00
N2     N     0.24330   0.09731   0.83322   0.01267  Uiso   1.00
N3     N     0.48440   0.12194   0.79450   0.01267  Uiso   1.00
N4     N     0.23710   0.29373   0.93384   0.01267  Uiso   1.00
N5     N     0.14640   0.17026   0.90215   0.01267  Uiso   1.00
N6     N     0.95200   0.13093   0.95569   0.01267  Uiso   1.00
N7     N     0.39100   0.49243   0.71401   0.01267  Uiso   1.00
N8     N     0.25670   0.59731   0.66678   0.01267  Uiso   1.00
N9     N     0.01560   0.62194   0.70550   0.01267  Uiso   1.00
N10    N     0.26290   0.79373   0.56616   0.01267  Uiso   1.00
N11    N     0.35360   0.67026   0.59785   0.01267  Uiso   1.00
N12    N     0.54800   0.63093   0.54431   0.01267  Uiso   1.00
N13    N     0.89100   0.00757   0.21401   0.01267  Uiso   1.00
N14    N     0.75670   0.90269   0.16678   0.01267  Uiso   1.00
N15    N     0.51560   0.87806   0.20550   0.01267  Uiso   1.00
N16    N     0.76290   0.70627   0.06616   0.01267  Uiso   1.00
N17    N     0.85360   0.82974   0.09785   0.01267  Uiso   1.00
N18    N     0.04800   0.86907   0.04431   0.01267  Uiso   1.00
N19    N     0.60900   0.50757   0.28599   0.01267  Uiso   1.00
N20    N     0.74330   0.40269   0.33322   0.01267  Uiso   1.00
N21    N     0.98440   0.37806   0.29450   0.01267  Uiso   1.00
N22    N     0.73710   0.20627   0.43384   0.01267  Uiso   1.00
N23    N     0.64640   0.32974   0.40215   0.01267  Uiso   1.00
N24    N     0.45200   0.36907   0.45569   0.01267  Uiso   1.00
O1     O     0.46140   0.97479   0.83304   0.01267  Uiso   1.00
O2     O     0.54560   0.90083   0.91985   0.01267  Uiso   1.00
O3     O     0.36950   0.80143   0.89799   0.01267  Uiso   1.00
O4     O     0.55480   0.82281   0.83166   0.01267  Uiso   1.00
O5     O     0.73330   0.83566   0.99692   0.01267  Uiso   1.00
O6     O     0.73450   0.79480   0.90625   0.01267  Uiso   1.00
O7     O     0.56590   0.71793   0.95895   0.01267  Uiso   1.00
O8     O     0.29320   0.67740   0.91148   0.01267  Uiso   1.00
O9     O     0.44950   0.58660   0.86750   0.01267  Uiso   1.00
O10    O     0.59890   0.69609   0.86118   0.01267  Uiso   1.00
O11    O     0.30450   0.59226   0.77587   0.01267  Uiso   1.00
O12    O     0.30240   0.71784   0.82863   0.01267  Uiso   1.00
O13    O     0.48140   0.71111   0.76792   0.01267  Uiso   1.00
O14    O     0.28060   0.85924   0.81056   0.01267  Uiso   1.00
O15    O     0.03860   0.47479   0.66696   0.01267  Uiso   1.00
O16    O     0.95440   0.40083   0.58015   0.01267  Uiso   1.00
O17    O     0.13050   0.30143   0.60201   0.01267  Uiso   1.00
O18    O     0.94520   0.32281   0.66834   0.01267  Uiso   1.00
O19    O     0.76670   0.33566   0.50308   0.01267  Uiso   1.00
O20    O     0.76550   0.29480   0.59375   0.01267  Uiso   1.00
O21    O     0.93410   0.21793   0.54105   0.01267  Uiso   1.00
O22    O     0.20680   0.17740   0.58852   0.01267  Uiso   1.00
O23    O     0.05050   0.08660   0.63250   0.01267  Uiso   1.00
O24    O     0.90110   0.19609   0.63882   0.01267  Uiso   1.00
O25    O     0.19550   0.09226   0.72413   0.01267  Uiso   1.00
O26    O     0.19760   0.21784   0.67137   0.01267  Uiso   1.00
O27    O     0.01860   0.21111   0.73208   0.01267  Uiso   1.00
O28    O     0.21940   0.35924   0.68944   0.01267  Uiso   1.00
O29    O     0.53860   0.02521   0.16696   0.01267  Uiso   1.00
O30    O     0.45440   0.09917   0.08015   0.01267  Uiso   1.00
O31    O     0.63050   0.19857   0.10201   0.01267  Uiso   1.00
O32    O     0.44520   0.17719   0.16834   0.01267  Uiso   1.00
O33    O     0.26670   0.16434   0.00308   0.01267  Uiso   1.00
O34    O     0.26550   0.20520   0.09375   0.01267  Uiso   1.00
O35    O     0.43410   0.28207   0.04105   0.01267  Uiso   1.00
O36    O     0.70680   0.32260   0.08852   0.01267  Uiso   1.00
O37    O     0.55050   0.41340   0.13250   0.01267  Uiso   1.00
O38    O     0.40110   0.30391   0.13882   0.01267  Uiso   1.00
O39    O     0.69550   0.40774   0.22413   0.01267  Uiso   1.00
O40    O     0.69760   0.28216   0.17137   0.01267  Uiso   1.00
O41    O     0.51860   0.28889   0.23208   0.01267  Uiso   1.00
O42    O     0.71940   0.14076   0.18944   0.01267  Uiso   1.00
O43    O     0.96140   0.52521   0.33304   0.01267  Uiso   1.00
O44    O     0.04560   0.59917   0.41985   0.01267  Uiso   1.00
O45    O     0.86950   0.69857   0.39799   0.01267  Uiso   1.00
O46    O     0.05480   0.67719   0.33166   0.01267  Uiso   1.00
O47    O     0.23330   0.66434   0.49692   0.01267  Uiso   1.00
O48    O     0.23450   0.70520   0.40625   0.01267  Uiso   1.00
O49    O     0.06590   0.78207   0.45895   0.01267  Uiso   1.00
O50    O     0.79320   0.82260   0.41148   0.01267  Uiso   1.00
O51    O     0.94950   0.91340   0.36750   0.01267  Uiso   1.00
O52    O     0.09890   0.80391   0.36118   0.01267  Uiso   1.00
O53    O     0.80450   0.90774   0.27587   0.01267  Uiso   1.00
O54    O     0.80240   0.78216   0.32863   0.01267  Uiso   1.00
O55    O     0.98140   0.78889   0.26792   0.01267  Uiso   1.00
O56    O     0.78060   0.64076   0.31056   0.01267  Uiso   1.00
