data_IFEHUY_clean
_audit_creation_date              2014-07-02
_audit_creation_method            'Materials Studio'
_symmetry_space_group_name_H-M    'P1'
_symmetry_Int_Tables_number       1
_symmetry_cell_setting            triclinic
loop_
_symmetry_equiv_pos_as_xyz
  x,y,z
_cell_length_a                    15.4839
_cell_length_b                    16.3541
_cell_length_c                    16.3541
_cell_angle_alpha                 69.4761
_cell_angle_beta                  71.6032
_cell_angle_gamma                 108.3970
loop_
_atom_site_label
_atom_site_type_symbol
_atom_site_fract_x
_atom_site_fract_y
_atom_site_fract_z
_atom_site_U_iso_or_equiv
_atom_site_adp_type
_atom_site_occupancy
Mn1    Mn    0.59221   0.68442   0.65779   0.01267  Uiso   1.00
Mn2    Mn    0.25000   0.65779   0.65779   0.01267  Uiso   1.00
Mn3    Mn    0.90779   0.65779   0.68442   0.01267  Uiso   1.00
Mn4    Mn    0.40779   0.31558   0.34221   0.01267  Uiso   1.00
Mn5    Mn    0.75000   0.34221   0.34221   0.01267  Uiso   1.00
Mn6    Mn    0.09221   0.34221   0.31558   0.01267  Uiso   1.00
Mn7    Mn    0.75000   0.59284   0.59284   0.01267  Uiso   1.00
Mn8    Mn    0.34284   0.59284   0.81432   0.01267  Uiso   1.00
Mn9    Mn    0.15716   0.81432   0.59284   0.01267  Uiso   1.00
Mn10   Mn    0.25000   0.40716   0.40716   0.01267  Uiso   1.00
Mn11   Mn    0.65716   0.40716   0.18568   0.01267  Uiso   1.00
Mn12   Mn    0.84284   0.18568   0.40716   0.01267  Uiso   1.00
H1     H     0.61720   0.43930   0.97380   0.01267  Uiso   1.00
H2     H     0.59100   0.97380   0.58690   0.01267  Uiso   1.00
H3     H     0.17790   0.58690   0.43930   0.01267  Uiso   1.00
H4     H     0.90900   0.58690   0.97380   0.01267  Uiso   1.00
H5     H     0.32210   0.43930   0.58690   0.01267  Uiso   1.00
H6     H     0.88280   0.97380   0.43930   0.01267  Uiso   1.00
H7     H     0.38280   0.56070   0.02620   0.01267  Uiso   1.00
H8     H     0.40900   0.02620   0.41310   0.01267  Uiso   1.00
H9     H     0.82210   0.41310   0.56070   0.01267  Uiso   1.00
H10    H     0.09100   0.41310   0.02620   0.01267  Uiso   1.00
H11    H     0.67790   0.56070   0.41310   0.01267  Uiso   1.00
H12    H     0.11720   0.02620   0.56070   0.01267  Uiso   1.00
C1     C     0.57667   0.53798   0.90346   0.01267  Uiso   1.00
C2     C     0.66204   0.57259   0.80325   0.01267  Uiso   1.00
C3     C     0.56895   0.46362   0.98492   0.01267  Uiso   1.00
C4     C     0.50726   0.57658   0.91752   0.01267  Uiso   1.00
C5     C     0.48013   0.90346   0.55856   0.01267  Uiso   1.00
C6     C     0.46529   0.80325   0.62416   0.01267  Uiso   1.00
C7     C     0.55387   0.98492   0.55146   0.01267  Uiso   1.00
C8     C     0.42478   0.91752   0.50590   0.01267  Uiso   1.00
C9     C     0.03869   0.55856   0.53798   0.01267  Uiso   1.00
C10    C     0.08945   0.62416   0.57259   0.01267  Uiso   1.00
C11    C     0.10533   0.55146   0.46362   0.01267  Uiso   1.00
C12    C     0.93068   0.50590   0.57658   0.01267  Uiso   1.00
C13    C     0.01987   0.55856   0.90346   0.01267  Uiso   1.00
C14    C     0.03471   0.62416   0.80325   0.01267  Uiso   1.00
C15    C     0.94613   0.55146   0.98492   0.01267  Uiso   1.00
C16    C     0.07522   0.50590   0.91752   0.01267  Uiso   1.00
C17    C     0.46131   0.53798   0.55856   0.01267  Uiso   1.00
C18    C     0.41055   0.57259   0.62416   0.01267  Uiso   1.00
C19    C     0.39467   0.46362   0.55146   0.01267  Uiso   1.00
C20    C     0.56932   0.57658   0.50590   0.01267  Uiso   1.00
C21    C     0.92333   0.90346   0.53798   0.01267  Uiso   1.00
C22    C     0.83796   0.80325   0.57259   0.01267  Uiso   1.00
C23    C     0.93105   0.98492   0.46362   0.01267  Uiso   1.00
C24    C     0.99274   0.91752   0.57658   0.01267  Uiso   1.00
C25    C     0.42333   0.46202   0.09654   0.01267  Uiso   1.00
C26    C     0.33796   0.42741   0.19675   0.01267  Uiso   1.00
C27    C     0.43105   0.53638   0.01508   0.01267  Uiso   1.00
C28    C     0.49274   0.42342   0.08248   0.01267  Uiso   1.00
C29    C     0.51987   0.09654   0.44144   0.01267  Uiso   1.00
C30    C     0.53471   0.19675   0.37584   0.01267  Uiso   1.00
C31    C     0.44613   0.01508   0.44854   0.01267  Uiso   1.00
C32    C     0.57522   0.08248   0.49410   0.01267  Uiso   1.00
C33    C     0.96131   0.44144   0.46202   0.01267  Uiso   1.00
C34    C     0.91055   0.37584   0.42741   0.01267  Uiso   1.00
C35    C     0.89467   0.44854   0.53638   0.01267  Uiso   1.00
C36    C     0.06932   0.49410   0.42342   0.01267  Uiso   1.00
C37    C     0.98013   0.44144   0.09654   0.01267  Uiso   1.00
C38    C     0.96529   0.37584   0.19675   0.01267  Uiso   1.00
C39    C     0.05387   0.44854   0.01508   0.01267  Uiso   1.00
C40    C     0.92478   0.49410   0.08248   0.01267  Uiso   1.00
C41    C     0.53869   0.46202   0.44144   0.01267  Uiso   1.00
C42    C     0.58945   0.42741   0.37584   0.01267  Uiso   1.00
C43    C     0.60533   0.53638   0.44854   0.01267  Uiso   1.00
C44    C     0.43068   0.42342   0.49410   0.01267  Uiso   1.00
C45    C     0.07667   0.09654   0.46202   0.01267  Uiso   1.00
C46    C     0.16204   0.19675   0.42741   0.01267  Uiso   1.00
C47    C     0.06895   0.01508   0.53638   0.01267  Uiso   1.00
C48    C     0.00726   0.08248   0.42342   0.01267  Uiso   1.00
S1     S     0.51429   0.67601   0.82115   0.01267  Uiso   1.00
S2     S     0.33544   0.82116   0.50284   0.01267  Uiso   1.00
S3     S     0.83828   0.50284   0.67601   0.01267  Uiso   1.00
S4     S     0.16456   0.50284   0.82115   0.01267  Uiso   1.00
S5     S     0.66172   0.67601   0.50284   0.01267  Uiso   1.00
S6     S     0.98571   0.82115   0.67601   0.01267  Uiso   1.00
S7     S     0.48571   0.32399   0.17885   0.01267  Uiso   1.00
S8     S     0.66456   0.17885   0.49716   0.01267  Uiso   1.00
S9     S     0.16172   0.49716   0.32399   0.01267  Uiso   1.00
S10    S     0.83544   0.49716   0.17885   0.01267  Uiso   1.00
S11    S     0.33828   0.32400   0.49716   0.01267  Uiso   1.00
S12    S     0.01428   0.17884   0.32400   0.01267  Uiso   1.00
O1     O     0.63916   0.57340   0.73407   0.01267  Uiso   1.00
O2     O     0.75008   0.59465   0.79522   0.01267  Uiso   1.00
O3     O     0.37323   0.73407   0.69253   0.01267  Uiso   1.00
O4     O     0.54530   0.79522   0.61013   0.01267  Uiso   1.00
O5     O     0.06576   0.69253   0.57340   0.01267  Uiso   1.00
O6     O     0.15543   0.61013   0.59465   0.01267  Uiso   1.00
O7     O     0.12677   0.69253   0.73407   0.01267  Uiso   1.00
O8     O     0.95470   0.61013   0.79522   0.01267  Uiso   1.00
O9     O     0.43424   0.57340   0.69253   0.01267  Uiso   1.00
O10    O     0.34457   0.59465   0.61013   0.01267  Uiso   1.00
O11    O     0.86084   0.73407   0.57340   0.01267  Uiso   1.00
O12    O     0.74992   0.79522   0.59465   0.01267  Uiso   1.00
O13    O     0.36084   0.42660   0.26593   0.01267  Uiso   1.00
O14    O     0.24992   0.40535   0.20478   0.01267  Uiso   1.00
O15    O     0.62677   0.26593   0.30747   0.01267  Uiso   1.00
O16    O     0.45470   0.20478   0.38987   0.01267  Uiso   1.00
O17    O     0.93424   0.30747   0.42660   0.01267  Uiso   1.00
O18    O     0.84457   0.38987   0.40535   0.01267  Uiso   1.00
O19    O     0.87323   0.30747   0.26593   0.01267  Uiso   1.00
O20    O     0.04530   0.38987   0.20478   0.01267  Uiso   1.00
O21    O     0.56576   0.42660   0.30747   0.01267  Uiso   1.00
O22    O     0.65543   0.40535   0.38987   0.01267  Uiso   1.00
O23    O     0.13916   0.26593   0.42660   0.01267  Uiso   1.00
O24    O     0.25008   0.20478   0.40535   0.01267  Uiso   1.00
