data_IFENOY03_clean
_audit_creation_date              2015-05-18
_audit_creation_method            'Materials Studio'
_symmetry_space_group_name_H-M    'P1'
_symmetry_Int_Tables_number       1
_symmetry_cell_setting            triclinic
loop_
_symmetry_equiv_pos_as_xyz
  x,y,z
_cell_length_a                    26.4366
_cell_length_b                    26.4366
_cell_length_c                    5.3287
_cell_angle_alpha                 90.0000
_cell_angle_beta                  90.0000
_cell_angle_gamma                 90.0000
loop_
_atom_site_label
_atom_site_type_symbol
_atom_site_fract_x
_atom_site_fract_y
_atom_site_fract_z
_atom_site_U_iso_or_equiv
_atom_site_adp_type
_atom_site_occupancy
Zn1    Zn    0.72623   0.71490   0.33260   0.01267  Uiso   1.00
H2     H     0.83200   0.50650   0.53110   0.01267  Uiso   1.00
H3     H     0.81270   0.67930   0.72660   0.01267  Uiso   1.00
H4     H     0.87710   0.66970   0.05710   0.01267  Uiso   1.00
H5     H     0.90010   0.50060   0.84640   0.01267  Uiso   1.00
H6     H     0.94800   0.53760   0.15080   0.01267  Uiso   1.00
H7     H     0.70460   0.60710   0.11560   0.01267  Uiso   1.00
H8     H     0.93510   0.62130   0.26630   0.01267  Uiso   1.00
H9     H     0.81160   0.48560   0.10680   0.01267  Uiso   1.00
H10    H     0.78610   0.40490   0.96830   0.01267  Uiso   1.00
H11    H     0.66790   0.52140   0.20940   0.01267  Uiso   1.00
H12    H     0.64250   0.45300   0.99270   0.01267  Uiso   1.00
C13    C     0.74157   0.51149   0.17340   0.01267  Uiso   1.00
C14    C     0.82774   0.54038   0.57240   0.01267  Uiso   1.00
C15    C     0.79160   0.56947   0.45430   0.01267  Uiso   1.00
C16    C     0.85277   0.61560   0.81480   0.01267  Uiso   1.00
C17    C     0.85786   0.56330   0.75620   0.01267  Uiso   1.00
C18    C     0.81676   0.64515   0.68880   0.01267  Uiso   1.00
C19    C     0.78733   0.62200   0.50580   0.01267  Uiso   1.00
C20    C     0.88160   0.63600   0.01140   0.01267  Uiso   1.00
C21    C     0.89510   0.53450   0.88640   0.01267  Uiso   1.00
C22    C     0.92340   0.55660   0.06890   0.01267  Uiso   1.00
C23    C     0.73140   0.60402   0.22770   0.01267  Uiso   1.00
C24    C     0.91630   0.60720   0.13640   0.01267  Uiso   1.00
C25    C     0.77740   0.47740   0.09900   0.01267  Uiso   1.00
C26    C     0.71500   0.41887   0.98360   0.01267  Uiso   1.00
C27    C     0.76190   0.42910   0.00900   0.01267  Uiso   1.00
C28    C     0.69200   0.49920   0.14600   0.01267  Uiso   1.00
C29    C     0.67630   0.45770   0.03600   0.01267  Uiso   1.00
C30    C     0.69590   0.36920   0.89700   0.01267  Uiso   1.00
N31    N     0.74947   0.64139   0.35640   0.01267  Uiso   1.00
N32    N     0.75587   0.55987   0.27460   0.01267  Uiso   1.00
O33    O     0.22398   0.24618   0.15620   0.01267  Uiso   1.00
O34    O     0.72421   0.33484   0.86030   0.01267  Uiso   1.00
O35    O     0.65530   0.35790   0.81800   0.01267  Uiso   1.00
H36    H     0.30250   0.24247   0.82510   0.01267  Uiso   1.00
Zn37   Zn    0.22623   0.21490   0.83260   0.01267  Uiso   1.00
H38    H     0.33200   0.00650   0.03110   0.01267  Uiso   1.00
H39    H     0.31270   0.17930   0.22660   0.01267  Uiso   1.00
H40    H     0.37710   0.16970   0.55710   0.01267  Uiso   1.00
H41    H     0.40010   0.00060   0.34640   0.01267  Uiso   1.00
H42    H     0.44800   0.03760   0.65080   0.01267  Uiso   1.00
H43    H     0.20460   0.10710   0.61560   0.01267  Uiso   1.00
H44    H     0.43510   0.12130   0.76630   0.01267  Uiso   1.00
H45    H     0.31160   0.98560   0.60680   0.01267  Uiso   1.00
H46    H     0.28610   0.90490   0.46830   0.01267  Uiso   1.00
H47    H     0.16790   0.02140   0.70940   0.01267  Uiso   1.00
H48    H     0.14250   0.95300   0.49270   0.01267  Uiso   1.00
C49    C     0.24157   0.01149   0.67340   0.01267  Uiso   1.00
C50    C     0.32774   0.04038   0.07240   0.01267  Uiso   1.00
C51    C     0.29160   0.06947   0.95430   0.01267  Uiso   1.00
C52    C     0.35277   0.11560   0.31480   0.01267  Uiso   1.00
C53    C     0.35786   0.06330   0.25620   0.01267  Uiso   1.00
C54    C     0.31676   0.14515   0.18880   0.01267  Uiso   1.00
C55    C     0.28733   0.12200   0.00580   0.01267  Uiso   1.00
C56    C     0.38160   0.13600   0.51140   0.01267  Uiso   1.00
C57    C     0.39510   0.03450   0.38640   0.01267  Uiso   1.00
C58    C     0.42340   0.05660   0.56890   0.01267  Uiso   1.00
C59    C     0.23140   0.10402   0.72770   0.01267  Uiso   1.00
C60    C     0.41630   0.10720   0.63640   0.01267  Uiso   1.00
C61    C     0.27740   0.97740   0.59900   0.01267  Uiso   1.00
C62    C     0.21500   0.91887   0.48360   0.01267  Uiso   1.00
C63    C     0.26190   0.92910   0.50900   0.01267  Uiso   1.00
C64    C     0.19200   0.99920   0.64600   0.01267  Uiso   1.00
C65    C     0.17630   0.95770   0.53600   0.01267  Uiso   1.00
C66    C     0.19590   0.86920   0.39700   0.01267  Uiso   1.00
N67    N     0.24947   0.14139   0.85640   0.01267  Uiso   1.00
N68    N     0.25587   0.05987   0.77460   0.01267  Uiso   1.00
O69    O     0.72398   0.74618   0.65620   0.01267  Uiso   1.00
O70    O     0.22421   0.83484   0.36030   0.01267  Uiso   1.00
O71    O     0.15530   0.85790   0.31800   0.01267  Uiso   1.00
H72    H     0.80250   0.74247   0.32510   0.01267  Uiso   1.00
Zn73   Zn    0.27377   0.28510   0.33260   0.01267  Uiso   1.00
H74    H     0.16800   0.49350   0.53110   0.01267  Uiso   1.00
H75    H     0.18730   0.32070   0.72660   0.01267  Uiso   1.00
H76    H     0.12290   0.33030   0.05710   0.01267  Uiso   1.00
H77    H     0.09990   0.49940   0.84640   0.01267  Uiso   1.00
H78    H     0.05200   0.46240   0.15080   0.01267  Uiso   1.00
H79    H     0.29540   0.39290   0.11560   0.01267  Uiso   1.00
H80    H     0.06490   0.37870   0.26630   0.01267  Uiso   1.00
H81    H     0.18840   0.51440   0.10680   0.01267  Uiso   1.00
H82    H     0.21390   0.59510   0.96830   0.01267  Uiso   1.00
H83    H     0.33210   0.47860   0.20940   0.01267  Uiso   1.00
H84    H     0.35750   0.54700   0.99270   0.01267  Uiso   1.00
C85    C     0.25843   0.48851   0.17340   0.01267  Uiso   1.00
C86    C     0.17226   0.45962   0.57240   0.01267  Uiso   1.00
C87    C     0.20840   0.43053   0.45430   0.01267  Uiso   1.00
C88    C     0.14723   0.38440   0.81480   0.01267  Uiso   1.00
C89    C     0.14214   0.43670   0.75620   0.01267  Uiso   1.00
C90    C     0.18324   0.35485   0.68880   0.01267  Uiso   1.00
C91    C     0.21267   0.37800   0.50580   0.01267  Uiso   1.00
C92    C     0.11840   0.36400   0.01140   0.01267  Uiso   1.00
C93    C     0.10490   0.46550   0.88640   0.01267  Uiso   1.00
C94    C     0.07660   0.44340   0.06890   0.01267  Uiso   1.00
C95    C     0.26860   0.39598   0.22770   0.01267  Uiso   1.00
C96    C     0.08370   0.39280   0.13640   0.01267  Uiso   1.00
C97    C     0.22260   0.52260   0.09900   0.01267  Uiso   1.00
C98    C     0.28500   0.58113   0.98360   0.01267  Uiso   1.00
C99    C     0.23810   0.57090   0.00900   0.01267  Uiso   1.00
C100   C     0.30800   0.50080   0.14600   0.01267  Uiso   1.00
C101   C     0.32370   0.54230   0.03600   0.01267  Uiso   1.00
C102   C     0.30410   0.63080   0.89700   0.01267  Uiso   1.00
N103   N     0.25053   0.35861   0.35640   0.01267  Uiso   1.00
N104   N     0.24413   0.44013   0.27460   0.01267  Uiso   1.00
O105   O     0.77602   0.75382   0.15620   0.01267  Uiso   1.00
O106   O     0.27579   0.66516   0.86030   0.01267  Uiso   1.00
O107   O     0.34470   0.64210   0.81800   0.01267  Uiso   1.00
H108   H     0.69750   0.75753   0.82510   0.01267  Uiso   1.00
Zn109  Zn    0.77377   0.78510   0.83260   0.01267  Uiso   1.00
H110   H     0.66800   0.99350   0.03110   0.01267  Uiso   1.00
H111   H     0.68730   0.82070   0.22660   0.01267  Uiso   1.00
H112   H     0.62290   0.83030   0.55710   0.01267  Uiso   1.00
H113   H     0.59990   0.99940   0.34640   0.01267  Uiso   1.00
H114   H     0.55200   0.96240   0.65080   0.01267  Uiso   1.00
H115   H     0.79540   0.89290   0.61560   0.01267  Uiso   1.00
H116   H     0.56490   0.87870   0.76630   0.01267  Uiso   1.00
H117   H     0.68840   0.01440   0.60680   0.01267  Uiso   1.00
H118   H     0.71390   0.09510   0.46830   0.01267  Uiso   1.00
H119   H     0.83210   0.97860   0.70940   0.01267  Uiso   1.00
H120   H     0.85750   0.04700   0.49270   0.01267  Uiso   1.00
C121   C     0.75843   0.98851   0.67340   0.01267  Uiso   1.00
C122   C     0.67226   0.95962   0.07240   0.01267  Uiso   1.00
C123   C     0.70840   0.93053   0.95430   0.01267  Uiso   1.00
C124   C     0.64723   0.88440   0.31480   0.01267  Uiso   1.00
C125   C     0.64214   0.93670   0.25620   0.01267  Uiso   1.00
C126   C     0.68324   0.85485   0.18880   0.01267  Uiso   1.00
C127   C     0.71267   0.87800   0.00580   0.01267  Uiso   1.00
C128   C     0.61840   0.86400   0.51140   0.01267  Uiso   1.00
C129   C     0.60490   0.96550   0.38640   0.01267  Uiso   1.00
C130   C     0.57660   0.94340   0.56890   0.01267  Uiso   1.00
C131   C     0.76860   0.89598   0.72770   0.01267  Uiso   1.00
C132   C     0.58370   0.89280   0.63640   0.01267  Uiso   1.00
C133   C     0.72260   0.02260   0.59900   0.01267  Uiso   1.00
C134   C     0.78500   0.08113   0.48360   0.01267  Uiso   1.00
C135   C     0.73810   0.07090   0.50900   0.01267  Uiso   1.00
C136   C     0.80800   0.00080   0.64600   0.01267  Uiso   1.00
C137   C     0.82370   0.04230   0.53600   0.01267  Uiso   1.00
C138   C     0.80410   0.13080   0.39700   0.01267  Uiso   1.00
N139   N     0.75053   0.85861   0.85640   0.01267  Uiso   1.00
N140   N     0.74413   0.94013   0.77460   0.01267  Uiso   1.00
O141   O     0.27602   0.25382   0.65620   0.01267  Uiso   1.00
O142   O     0.77579   0.16516   0.36030   0.01267  Uiso   1.00
O143   O     0.84470   0.14210   0.31800   0.01267  Uiso   1.00
H144   H     0.19750   0.25753   0.32510   0.01267  Uiso   1.00
Zn145  Zn    0.71490   0.27377   0.66740   0.01267  Uiso   1.00
H146   H     0.50650   0.16800   0.46890   0.01267  Uiso   1.00
H147   H     0.67930   0.18730   0.27340   0.01267  Uiso   1.00
H148   H     0.66970   0.12290   0.94290   0.01267  Uiso   1.00
H149   H     0.50060   0.09990   0.15360   0.01267  Uiso   1.00
H150   H     0.53760   0.05200   0.84920   0.01267  Uiso   1.00
H151   H     0.60710   0.29540   0.88440   0.01267  Uiso   1.00
H152   H     0.62130   0.06490   0.73370   0.01267  Uiso   1.00
H153   H     0.48560   0.18840   0.89320   0.01267  Uiso   1.00
H154   H     0.40490   0.21390   0.03170   0.01267  Uiso   1.00
H155   H     0.52140   0.33210   0.79060   0.01267  Uiso   1.00
H156   H     0.45300   0.35750   0.00730   0.01267  Uiso   1.00
C157   C     0.51149   0.25843   0.82660   0.01267  Uiso   1.00
C158   C     0.54038   0.17226   0.42760   0.01267  Uiso   1.00
C159   C     0.56947   0.20840   0.54570   0.01267  Uiso   1.00
C160   C     0.61560   0.14723   0.18520   0.01267  Uiso   1.00
C161   C     0.56330   0.14214   0.24380   0.01267  Uiso   1.00
C162   C     0.64515   0.18324   0.31120   0.01267  Uiso   1.00
C163   C     0.62200   0.21267   0.49420   0.01267  Uiso   1.00
C164   C     0.63600   0.11840   0.98860   0.01267  Uiso   1.00
C165   C     0.53450   0.10490   0.11360   0.01267  Uiso   1.00
C166   C     0.55660   0.07660   0.93110   0.01267  Uiso   1.00
C167   C     0.60402   0.26860   0.77230   0.01267  Uiso   1.00
C168   C     0.60720   0.08370   0.86360   0.01267  Uiso   1.00
C169   C     0.47740   0.22260   0.90100   0.01267  Uiso   1.00
C170   C     0.41887   0.28500   0.01640   0.01267  Uiso   1.00
C171   C     0.42910   0.23810   0.99100   0.01267  Uiso   1.00
C172   C     0.49920   0.30800   0.85400   0.01267  Uiso   1.00
C173   C     0.45770   0.32370   0.96400   0.01267  Uiso   1.00
C174   C     0.36920   0.30410   0.10300   0.01267  Uiso   1.00
N175   N     0.64139   0.25053   0.64360   0.01267  Uiso   1.00
N176   N     0.55987   0.24413   0.72540   0.01267  Uiso   1.00
O177   O     0.24618   0.77602   0.84380   0.01267  Uiso   1.00
O178   O     0.33484   0.27579   0.13970   0.01267  Uiso   1.00
O179   O     0.35790   0.34470   0.18200   0.01267  Uiso   1.00
H180   H     0.24247   0.69750   0.17490   0.01267  Uiso   1.00
Zn181  Zn    0.21490   0.77377   0.16740   0.01267  Uiso   1.00
H182   H     0.00650   0.66800   0.96890   0.01267  Uiso   1.00
H183   H     0.17930   0.68730   0.77340   0.01267  Uiso   1.00
H184   H     0.16970   0.62290   0.44290   0.01267  Uiso   1.00
H185   H     0.00060   0.59990   0.65360   0.01267  Uiso   1.00
H186   H     0.03760   0.55200   0.34920   0.01267  Uiso   1.00
H187   H     0.10710   0.79540   0.38440   0.01267  Uiso   1.00
H188   H     0.12130   0.56490   0.23370   0.01267  Uiso   1.00
H189   H     0.98560   0.68840   0.39320   0.01267  Uiso   1.00
H190   H     0.90490   0.71390   0.53170   0.01267  Uiso   1.00
H191   H     0.02140   0.83210   0.29060   0.01267  Uiso   1.00
H192   H     0.95300   0.85750   0.50730   0.01267  Uiso   1.00
C193   C     0.01149   0.75843   0.32660   0.01267  Uiso   1.00
C194   C     0.04038   0.67226   0.92760   0.01267  Uiso   1.00
C195   C     0.06947   0.70840   0.04570   0.01267  Uiso   1.00
C196   C     0.11560   0.64723   0.68520   0.01267  Uiso   1.00
C197   C     0.06330   0.64214   0.74380   0.01267  Uiso   1.00
C198   C     0.14515   0.68324   0.81120   0.01267  Uiso   1.00
C199   C     0.12200   0.71267   0.99420   0.01267  Uiso   1.00
C200   C     0.13600   0.61840   0.48860   0.01267  Uiso   1.00
C201   C     0.03450   0.60490   0.61360   0.01267  Uiso   1.00
C202   C     0.05660   0.57660   0.43110   0.01267  Uiso   1.00
C203   C     0.10402   0.76860   0.27230   0.01267  Uiso   1.00
C204   C     0.10720   0.58370   0.36360   0.01267  Uiso   1.00
C205   C     0.97740   0.72260   0.40100   0.01267  Uiso   1.00
C206   C     0.91887   0.78500   0.51640   0.01267  Uiso   1.00
C207   C     0.92910   0.73810   0.49100   0.01267  Uiso   1.00
C208   C     0.99920   0.80800   0.35400   0.01267  Uiso   1.00
C209   C     0.95770   0.82370   0.46400   0.01267  Uiso   1.00
C210   C     0.86920   0.80410   0.60300   0.01267  Uiso   1.00
N211   N     0.14139   0.75053   0.14360   0.01267  Uiso   1.00
N212   N     0.05987   0.74413   0.22540   0.01267  Uiso   1.00
O213   O     0.74618   0.27602   0.34380   0.01267  Uiso   1.00
O214   O     0.83484   0.77579   0.63970   0.01267  Uiso   1.00
O215   O     0.85790   0.84470   0.68200   0.01267  Uiso   1.00
H216   H     0.74247   0.19750   0.67490   0.01267  Uiso   1.00
Zn217  Zn    0.28510   0.72623   0.66740   0.01267  Uiso   1.00
H218   H     0.49350   0.83200   0.46890   0.01267  Uiso   1.00
H219   H     0.32070   0.81270   0.27340   0.01267  Uiso   1.00
H220   H     0.33030   0.87710   0.94290   0.01267  Uiso   1.00
H221   H     0.49940   0.90010   0.15360   0.01267  Uiso   1.00
H222   H     0.46240   0.94800   0.84920   0.01267  Uiso   1.00
H223   H     0.39290   0.70460   0.88440   0.01267  Uiso   1.00
H224   H     0.37870   0.93510   0.73370   0.01267  Uiso   1.00
H225   H     0.51440   0.81160   0.89320   0.01267  Uiso   1.00
H226   H     0.59510   0.78610   0.03170   0.01267  Uiso   1.00
H227   H     0.47860   0.66790   0.79060   0.01267  Uiso   1.00
H228   H     0.54700   0.64250   0.00730   0.01267  Uiso   1.00
C229   C     0.48851   0.74157   0.82660   0.01267  Uiso   1.00
C230   C     0.45962   0.82774   0.42760   0.01267  Uiso   1.00
C231   C     0.43053   0.79160   0.54570   0.01267  Uiso   1.00
C232   C     0.38440   0.85277   0.18520   0.01267  Uiso   1.00
C233   C     0.43670   0.85786   0.24380   0.01267  Uiso   1.00
C234   C     0.35485   0.81676   0.31120   0.01267  Uiso   1.00
C235   C     0.37800   0.78733   0.49420   0.01267  Uiso   1.00
C236   C     0.36400   0.88160   0.98860   0.01267  Uiso   1.00
C237   C     0.46550   0.89510   0.11360   0.01267  Uiso   1.00
C238   C     0.44340   0.92340   0.93110   0.01267  Uiso   1.00
C239   C     0.39598   0.73140   0.77230   0.01267  Uiso   1.00
C240   C     0.39280   0.91630   0.86360   0.01267  Uiso   1.00
C241   C     0.52260   0.77740   0.90100   0.01267  Uiso   1.00
C242   C     0.58113   0.71500   0.01640   0.01267  Uiso   1.00
C243   C     0.57090   0.76190   0.99100   0.01267  Uiso   1.00
C244   C     0.50080   0.69200   0.85400   0.01267  Uiso   1.00
C245   C     0.54230   0.67630   0.96400   0.01267  Uiso   1.00
C246   C     0.63080   0.69590   0.10300   0.01267  Uiso   1.00
N247   N     0.35861   0.74947   0.64360   0.01267  Uiso   1.00
N248   N     0.44013   0.75587   0.72540   0.01267  Uiso   1.00
O249   O     0.75382   0.22398   0.84380   0.01267  Uiso   1.00
O250   O     0.66516   0.72421   0.13970   0.01267  Uiso   1.00
O251   O     0.64210   0.65530   0.18200   0.01267  Uiso   1.00
H252   H     0.75753   0.30250   0.17490   0.01267  Uiso   1.00
Zn253  Zn    0.78510   0.22623   0.16740   0.01267  Uiso   1.00
H254   H     0.99350   0.33200   0.96890   0.01267  Uiso   1.00
H255   H     0.82070   0.31270   0.77340   0.01267  Uiso   1.00
H256   H     0.83030   0.37710   0.44290   0.01267  Uiso   1.00
H257   H     0.99940   0.40010   0.65360   0.01267  Uiso   1.00
H258   H     0.96240   0.44800   0.34920   0.01267  Uiso   1.00
H259   H     0.89290   0.20460   0.38440   0.01267  Uiso   1.00
H260   H     0.87870   0.43510   0.23370   0.01267  Uiso   1.00
H261   H     0.01440   0.31160   0.39320   0.01267  Uiso   1.00
H262   H     0.09510   0.28610   0.53170   0.01267  Uiso   1.00
H263   H     0.97860   0.16790   0.29060   0.01267  Uiso   1.00
H264   H     0.04700   0.14250   0.50730   0.01267  Uiso   1.00
C265   C     0.98851   0.24157   0.32660   0.01267  Uiso   1.00
C266   C     0.95962   0.32774   0.92760   0.01267  Uiso   1.00
C267   C     0.93053   0.29160   0.04570   0.01267  Uiso   1.00
C268   C     0.88440   0.35277   0.68520   0.01267  Uiso   1.00
C269   C     0.93670   0.35786   0.74380   0.01267  Uiso   1.00
C270   C     0.85485   0.31676   0.81120   0.01267  Uiso   1.00
C271   C     0.87800   0.28733   0.99420   0.01267  Uiso   1.00
C272   C     0.86400   0.38160   0.48860   0.01267  Uiso   1.00
C273   C     0.96550   0.39510   0.61360   0.01267  Uiso   1.00
C274   C     0.94340   0.42340   0.43110   0.01267  Uiso   1.00
C275   C     0.89598   0.23140   0.27230   0.01267  Uiso   1.00
C276   C     0.89280   0.41630   0.36360   0.01267  Uiso   1.00
C277   C     0.02260   0.27740   0.40100   0.01267  Uiso   1.00
C278   C     0.08113   0.21500   0.51640   0.01267  Uiso   1.00
C279   C     0.07090   0.26190   0.49100   0.01267  Uiso   1.00
C280   C     0.00080   0.19200   0.35400   0.01267  Uiso   1.00
C281   C     0.04230   0.17630   0.46400   0.01267  Uiso   1.00
C282   C     0.13080   0.19590   0.60300   0.01267  Uiso   1.00
N283   N     0.85861   0.24947   0.14360   0.01267  Uiso   1.00
N284   N     0.94013   0.25587   0.22540   0.01267  Uiso   1.00
O285   O     0.25382   0.72398   0.34380   0.01267  Uiso   1.00
O286   O     0.16516   0.22421   0.63970   0.01267  Uiso   1.00
O287   O     0.14210   0.15530   0.68200   0.01267  Uiso   1.00
H288   H     0.25753   0.80250   0.67490   0.01267  Uiso   1.00
