data_IFENOY01_clean
_audit_creation_date              2015-05-15
_audit_creation_method            'Materials Studio'
_symmetry_space_group_name_H-M    'P1'
_symmetry_Int_Tables_number       1
_symmetry_cell_setting            triclinic
loop_
_symmetry_equiv_pos_as_xyz
  x,y,z
_cell_length_a                    5.2351
_cell_length_b                    18.9281
_cell_length_c                    18.9281
_cell_angle_alpha                 88.9042
_cell_angle_beta                  82.0512
_cell_angle_gamma                 82.0513
loop_
_atom_site_label
_atom_site_type_symbol
_atom_site_fract_x
_atom_site_fract_y
_atom_site_fract_z
_atom_site_U_iso_or_equiv
_atom_site_adp_type
_atom_site_occupancy
Zn1    Zn    0.29866   0.51149   0.05905   0.01267  Uiso   1.00
Zn2    Zn    0.86920   0.48851   0.94095   0.01267  Uiso   1.00
Zn3    Zn    0.64229   0.05905   0.48851   0.01267  Uiso   1.00
Zn4    Zn    0.18985   0.94095   0.51149   0.01267  Uiso   1.00
H5     H     0.95930   0.59710   0.18770   0.01267  Uiso   1.00
H6     H     0.66080   0.63240   0.00760   0.01267  Uiso   1.00
H7     H     0.98970   0.70740   0.95120   0.01267  Uiso   1.00
H8     H     0.14850   0.81560   0.94160   0.01267  Uiso   1.00
H9     H     0.94890   0.91200   0.01460   0.01267  Uiso   1.00
H10    H     0.59440   0.90100   0.09740   0.01267  Uiso   1.00
H11    H     0.28270   0.82650   0.16170   0.01267  Uiso   1.00
H12    H     0.90500   0.63750   0.29890   0.01267  Uiso   1.00
H13    H     0.71690   0.69210   0.40970   0.01267  Uiso   1.00
H14    H     0.62890   0.88240   0.30940   0.01267  Uiso   1.00
H15    H     0.83840   0.82730   0.20230   0.01267  Uiso   1.00
H16    H     0.74410   0.40290   0.81230   0.01267  Uiso   1.00
H17    H     0.30080   0.36760   0.99240   0.01267  Uiso   1.00
H18    H     0.64830   0.29260   0.04880   0.01267  Uiso   1.00
H19    H     0.90570   0.18440   0.05840   0.01267  Uiso   1.00
H20    H     0.87550   0.08800   0.98540   0.01267  Uiso   1.00
H21    H     0.59280   0.09900   0.90260   0.01267  Uiso   1.00
H22    H     0.27090   0.17350   0.83830   0.01267  Uiso   1.00
H23    H     0.84140   0.36250   0.70110   0.01267  Uiso   1.00
H24    H     0.81870   0.30790   0.59030   0.01267  Uiso   1.00
H25    H     0.82070   0.11760   0.69060   0.01267  Uiso   1.00
H26    H     0.86800   0.17270   0.79770   0.01267  Uiso   1.00
H27    H     0.85300   0.18770   0.40290   0.01267  Uiso   1.00
H28    H     0.33160   0.00760   0.36760   0.01267  Uiso   1.00
H29    H     0.05910   0.95120   0.29260   0.01267  Uiso   1.00
H30    H     0.90990   0.94160   0.18440   0.01267  Uiso   1.00
H31    H     0.03650   0.01460   0.08800   0.01267  Uiso   1.00
H32    H     0.30820   0.09740   0.09900   0.01267  Uiso   1.00
H33    H     0.55560   0.16170   0.17350   0.01267  Uiso   1.00
H34    H     0.79610   0.29890   0.36250   0.01267  Uiso   1.00
H35    H     0.87340   0.40970   0.30790   0.01267  Uiso   1.00
H36    H     0.06170   0.30940   0.11760   0.01267  Uiso   1.00
H37    H     0.95930   0.20230   0.17270   0.01267  Uiso   1.00
H38    H     0.44360   0.81230   0.59710   0.01267  Uiso   1.00
H39    H     0.70680   0.99240   0.63240   0.01267  Uiso   1.00
H40    H     0.30290   0.04880   0.70740   0.01267  Uiso   1.00
H41    H     0.03590   0.05840   0.81560   0.01267  Uiso   1.00
H42    H     0.13910   0.98540   0.91200   0.01267  Uiso   1.00
H43    H     0.50460   0.90260   0.90100   0.01267  Uiso   1.00
H44    H     0.89080   0.83830   0.82650   0.01267  Uiso   1.00
H45    H     0.45750   0.70110   0.63750   0.01267  Uiso   1.00
H46    H     0.59100   0.59030   0.69210   0.01267  Uiso   1.00
H47    H     0.48870   0.69060   0.88240   0.01267  Uiso   1.00
H48    H     0.33430   0.79770   0.82730   0.01267  Uiso   1.00
C49    C     0.07534   0.62713   0.16419   0.01267  Uiso   1.00
C50    C     0.38017   0.66560   0.09026   0.01267  Uiso   1.00
C51    C     0.58637   0.67147   0.03799   0.01267  Uiso   1.00
C52    C     0.68300   0.73726   0.03114   0.01267  Uiso   1.00
C53    C     0.90640   0.74607   0.98093   0.01267  Uiso   1.00
C54    C     0.00077   0.81001   0.97545   0.01267  Uiso   1.00
C55    C     0.88149   0.86777   0.01945   0.01267  Uiso   1.00
C56    C     0.67252   0.86126   0.06850   0.01267  Uiso   1.00
C57    C     0.56733   0.79516   0.07738   0.01267  Uiso   1.00
C58    C     0.35934   0.78794   0.13098   0.01267  Uiso   1.00
C59    C     0.27093   0.72293   0.13721   0.01267  Uiso   1.00
C60    C     0.92164   0.72954   0.24558   0.01267  Uiso   1.00
C61    C     0.86220   0.68790   0.30250   0.01267  Uiso   1.00
C62    C     0.73680   0.71930   0.36710   0.01267  Uiso   1.00
C63    C     0.63941   0.79396   0.36622   0.01267  Uiso   1.00
C64    C     0.68600   0.83250   0.30830   0.01267  Uiso   1.00
C65    C     0.81919   0.80037   0.24505   0.01267  Uiso   1.00
C66    C     0.47910   0.83000   0.43180   0.01267  Uiso   1.00
C67    C     0.86666   0.37287   0.83581   0.01267  Uiso   1.00
C68    C     0.13603   0.33440   0.90974   0.01267  Uiso   1.00
C69    C     0.29583   0.32853   0.96201   0.01267  Uiso   1.00
C70    C     0.45140   0.26274   0.96886   0.01267  Uiso   1.00
C71    C     0.63340   0.25393   0.01907   0.01267  Uiso   1.00
C72    C     0.78623   0.18999   0.02455   0.01267  Uiso   1.00
C73    C     0.76871   0.13223   0.98055   0.01267  Uiso   1.00
C74    C     0.60228   0.13874   0.93150   0.01267  Uiso   1.00
C75    C     0.43987   0.20484   0.92262   0.01267  Uiso   1.00
C76    C     0.27826   0.21206   0.86902   0.01267  Uiso   1.00
C77    C     0.13107   0.27707   0.86279   0.01267  Uiso   1.00
C78    C     0.89676   0.27046   0.75442   0.01267  Uiso   1.00
C79    C     0.85260   0.31210   0.69750   0.01267  Uiso   1.00
C80    C     0.82320   0.28070   0.63290   0.01267  Uiso   1.00
C81    C     0.79959   0.20604   0.63378   0.01267  Uiso   1.00
C82    C     0.82680   0.16750   0.69170   0.01267  Uiso   1.00
C83    C     0.86461   0.19963   0.75495   0.01267  Uiso   1.00
C84    C     0.74090   0.17000   0.56820   0.01267  Uiso   1.00
C85    C     0.76047   0.16419   0.37287   0.01267  Uiso   1.00
C86    C     0.52957   0.09026   0.33440   0.01267  Uiso   1.00
C87    C     0.37564   0.03799   0.32853   0.01267  Uiso   1.00
C88    C     0.28586   0.03114   0.26274   0.01267  Uiso   1.00
C89    C     0.11267   0.98093   0.25393   0.01267  Uiso   1.00
C90    C     0.02378   0.97545   0.18999   0.01267  Uiso   1.00
C91    C     0.09906   0.01945   0.13223   0.01267  Uiso   1.00
C92    C     0.25898   0.06850   0.13874   0.01267  Uiso   1.00
C93    C     0.35529   0.07738   0.20484   0.01267  Uiso   1.00
C94    C     0.50968   0.13098   0.21206   0.01267  Uiso   1.00
C95    C     0.59186   0.13721   0.27707   0.01267  Uiso   1.00
C96    C     0.83278   0.24558   0.27046   0.01267  Uiso   1.00
C97    C     0.83530   0.30250   0.31210   0.01267  Uiso   1.00
C98    C     0.89610   0.36710   0.28070   0.01267  Uiso   1.00
C99    C     0.99437   0.36622   0.20604   0.01267  Uiso   1.00
C100   C     0.00570   0.30830   0.16750   0.01267  Uiso   1.00
C101   C     0.93576   0.24505   0.19963   0.01267  Uiso   1.00
C102   C     0.08910   0.43180   0.17000   0.01267  Uiso   1.00
C103   C     0.29753   0.83581   0.62713   0.01267  Uiso   1.00
C104   C     0.95423   0.90974   0.66560   0.01267  Uiso   1.00
C105   C     0.74216   0.96201   0.67147   0.01267  Uiso   1.00
C106   C     0.57974   0.96886   0.73726   0.01267  Uiso   1.00
C107   C     0.34753   0.01907   0.74607   0.01267  Uiso   1.00
C108   C     0.18922   0.02455   0.81001   0.01267  Uiso   1.00
C109   C     0.25074   0.98055   0.86777   0.01267  Uiso   1.00
C110   C     0.46622   0.93150   0.86126   0.01267  Uiso   1.00
C111   C     0.63751   0.92262   0.79516   0.01267  Uiso   1.00
C112   C     0.85272   0.86902   0.78794   0.01267  Uiso   1.00
C113   C     0.00614   0.86279   0.72293   0.01267  Uiso   1.00
C114   C     0.34882   0.75442   0.72954   0.01267  Uiso   1.00
C115   C     0.44990   0.69750   0.68790   0.01267  Uiso   1.00
C116   C     0.54390   0.63290   0.71930   0.01267  Uiso   1.00
C117   C     0.56663   0.63378   0.79396   0.01267  Uiso   1.00
C118   C     0.48150   0.69170   0.83250   0.01267  Uiso   1.00
C119   C     0.38044   0.75495   0.80037   0.01267  Uiso   1.00
C120   C     0.69090   0.56820   0.83000   0.01267  Uiso   1.00
N121   N     0.25016   0.60678   0.10970   0.01267  Uiso   1.00
N122   N     0.07667   0.69613   0.18373   0.01267  Uiso   1.00
N123   N     0.96664   0.39322   0.89030   0.01267  Uiso   1.00
N124   N     0.95653   0.30387   0.81627   0.01267  Uiso   1.00
N125   N     0.64014   0.10970   0.39322   0.01267  Uiso   1.00
N126   N     0.73960   0.18373   0.30387   0.01267  Uiso   1.00
N127   N     0.14306   0.89030   0.60678   0.01267  Uiso   1.00
N128   N     0.22720   0.81627   0.69613   0.01267  Uiso   1.00
O129   O     0.16270   0.52511   0.97009   0.01267  Uiso   1.00
O130   O     0.46113   0.88818   0.44316   0.01267  Uiso   1.00
O131   O     0.46210   0.78180   0.48800   0.01267  Uiso   1.00
O132   O     0.65790   0.47489   0.02991   0.01267  Uiso   1.00
O133   O     0.79247   0.11182   0.55684   0.01267  Uiso   1.00
O134   O     0.73190   0.21820   0.51200   0.01267  Uiso   1.00
O135   O     0.86721   0.97009   0.47489   0.01267  Uiso   1.00
O136   O     0.09571   0.44316   0.11182   0.01267  Uiso   1.00
O137   O     0.04990   0.48800   0.21820   0.01267  Uiso   1.00
O138   O     0.31219   0.02991   0.52511   0.01267  Uiso   1.00
O139   O     0.65069   0.55684   0.88818   0.01267  Uiso   1.00
O140   O     0.75610   0.51200   0.78180   0.01267  Uiso   1.00
H141   H     0.65790   0.42205   0.03092   0.01267  Uiso   1.00
H142   H     0.15642   0.07803   0.53015   0.01267  Uiso   1.00
H143   H     0.16270   0.57795   0.96908   0.01267  Uiso   1.00
H144   H     0.86721   0.91725   0.47590   0.01267  Uiso   1.00
