data_IFENOY_clean
_audit_creation_date              2014-07-02
_audit_creation_method            'Materials Studio'
_symmetry_space_group_name_H-M    'P1'
_symmetry_Int_Tables_number       1
_symmetry_cell_setting            triclinic
loop_
_symmetry_equiv_pos_as_xyz
  x,y,z
_cell_length_a                    5.1462
_cell_length_b                    18.9798
_cell_length_c                    18.9798
_cell_angle_alpha                 88.9469
_cell_angle_beta                  82.2084
_cell_angle_gamma                 82.2083
loop_
_atom_site_label
_atom_site_type_symbol
_atom_site_fract_x
_atom_site_fract_y
_atom_site_fract_z
_atom_site_U_iso_or_equiv
_atom_site_adp_type
_atom_site_occupancy
Zn1    Zn    0.19842   0.94087   0.51214   0.01267  Uiso   1.00
Zn2    Zn    0.65142   0.05913   0.48786   0.01267  Uiso   1.00
Zn3    Zn    0.28945   0.51214   0.05912   0.01267  Uiso   1.00
Zn4    Zn    0.86071   0.48786   0.94088   0.01267  Uiso   1.00
H1     H     0.44630   0.81150   0.59590   0.01267  Uiso   1.00
H2     H     0.18080   0.05960   0.52740   0.01267  Uiso   1.00
H3     H     0.70630   0.99250   0.63250   0.01267  Uiso   1.00
H4     H     0.29950   0.04910   0.70670   0.01267  Uiso   1.00
H5     H     0.02730   0.05970   0.81490   0.01267  Uiso   1.00
H6     H     0.13440   0.98780   0.91180   0.01267  Uiso   1.00
H7     H     0.50400   0.90400   0.90080   0.01267  Uiso   1.00
H8     H     0.89370   0.83880   0.82580   0.01267  Uiso   1.00
H9     H     0.46050   0.70120   0.63740   0.01267  Uiso   1.00
H10    H     0.60750   0.59260   0.69060   0.01267  Uiso   1.00
H11    H     0.47750   0.68950   0.88250   0.01267  Uiso   1.00
H12    H     0.33850   0.79760   0.82700   0.01267  Uiso   1.00
H13    H     0.85370   0.18850   0.40410   0.01267  Uiso   1.00
H14    H     0.76780   0.94040   0.47260   0.01267  Uiso   1.00
H15    H     0.33130   0.00750   0.36750   0.01267  Uiso   1.00
H16    H     0.05530   0.95090   0.29330   0.01267  Uiso   1.00
H17    H     0.90190   0.94030   0.18510   0.01267  Uiso   1.00
H18    H     0.03400   0.01220   0.08820   0.01267  Uiso   1.00
H19    H     0.30880   0.09600   0.09920   0.01267  Uiso   1.00
H20    H     0.55830   0.16120   0.17420   0.01267  Uiso   1.00
H21    H     0.79910   0.29880   0.36260   0.01267  Uiso   1.00
H22    H     0.89070   0.40740   0.30940   0.01267  Uiso   1.00
H23    H     0.04950   0.31050   0.11750   0.01267  Uiso   1.00
H24    H     0.96310   0.20240   0.17300   0.01267  Uiso   1.00
H25    H     0.95780   0.59590   0.18850   0.01267  Uiso   1.00
H26    H     0.29180   0.52740   0.94040   0.01267  Uiso   1.00
H27    H     0.66120   0.63250   0.00750   0.01267  Uiso   1.00
H28    H     0.99380   0.70670   0.95090   0.01267  Uiso   1.00
H29    H     0.15780   0.81490   0.94030   0.01267  Uiso   1.00
H30    H     0.95380   0.91180   0.01220   0.01267  Uiso   1.00
H31    H     0.59520   0.90080   0.09600   0.01267  Uiso   1.00
H32    H     0.28050   0.82580   0.16120   0.01267  Uiso   1.00
H33    H     0.90210   0.63740   0.29880   0.01267  Uiso   1.00
H34    H     0.70190   0.69060   0.40740   0.01267  Uiso   1.00
H35    H     0.64000   0.88250   0.31050   0.01267  Uiso   1.00
H36    H     0.83450   0.82700   0.20240   0.01267  Uiso   1.00
H37    H     0.74220   0.40410   0.81150   0.01267  Uiso   1.00
H38    H     0.75960   0.47260   0.05960   0.01267  Uiso   1.00
H39    H     0.30120   0.36750   0.99250   0.01267  Uiso   1.00
H40    H     0.65140   0.29330   0.04910   0.01267  Uiso   1.00
H41    H     0.91300   0.18510   0.05970   0.01267  Uiso   1.00
H42    H     0.87780   0.08820   0.98780   0.01267  Uiso   1.00
H43    H     0.59200   0.09920   0.90400   0.01267  Uiso   1.00
H44    H     0.26750   0.17420   0.83880   0.01267  Uiso   1.00
H45    H     0.83830   0.36260   0.70120   0.01267  Uiso   1.00
H46    H     0.79990   0.30940   0.59260   0.01267  Uiso   1.00
H47    H     0.83300   0.11750   0.68950   0.01267  Uiso   1.00
H48    H     0.86390   0.17300   0.79760   0.01267  Uiso   1.00
C1     C     0.30106   0.83551   0.62637   0.01267  Uiso   1.00
C2     C     0.95642   0.90980   0.66516   0.01267  Uiso   1.00
C3     C     0.74217   0.96208   0.67138   0.01267  Uiso   1.00
C4     C     0.57783   0.96910   0.73704   0.01267  Uiso   1.00
C5     C     0.34379   0.01970   0.74552   0.01267  Uiso   1.00
C6     C     0.18255   0.02589   0.80961   0.01267  Uiso   1.00
C7     C     0.24628   0.98234   0.86750   0.01267  Uiso   1.00
C8     C     0.46487   0.93275   0.86111   0.01267  Uiso   1.00
C9     C     0.63644   0.92335   0.79517   0.01267  Uiso   1.00
C10    C     0.85486   0.86959   0.78749   0.01267  Uiso   1.00
C11    C     0.00903   0.86342   0.72272   0.01267  Uiso   1.00
C12    C     0.35259   0.75455   0.72867   0.01267  Uiso   1.00
C13    C     0.45560   0.69790   0.68750   0.01267  Uiso   1.00
C14    C     0.55510   0.63450   0.71830   0.01267  Uiso   1.00
C15    C     0.57667   0.63390   0.79316   0.01267  Uiso   1.00
C16    C     0.48032   0.69143   0.83233   0.01267  Uiso   1.00
C17    C     0.38304   0.75490   0.80022   0.01267  Uiso   1.00
C18    C     0.65920   0.56240   0.82580   0.01267  Uiso   1.00
C19    C     0.76294   0.16449   0.37363   0.01267  Uiso   1.00
C20    C     0.53138   0.09020   0.33484   0.01267  Uiso   1.00
C21    C     0.37563   0.03792   0.32862   0.01267  Uiso   1.00
C22    C     0.28397   0.03090   0.26296   0.01267  Uiso   1.00
C23    C     0.10901   0.98030   0.25448   0.01267  Uiso   1.00
C24    C     0.01805   0.97411   0.19039   0.01267  Uiso   1.00
C25    C     0.09612   0.01766   0.13250   0.01267  Uiso   1.00
C26    C     0.25873   0.06725   0.13889   0.01267  Uiso   1.00
C27    C     0.35496   0.07665   0.20483   0.01267  Uiso   1.00
C28    C     0.51194   0.13041   0.21251   0.01267  Uiso   1.00
C29    C     0.59517   0.13658   0.27728   0.01267  Uiso   1.00
C30    C     0.83581   0.24545   0.27133   0.01267  Uiso   1.00
C31    C     0.84100   0.30210   0.31250   0.01267  Uiso   1.00
C32    C     0.90790   0.36550   0.28170   0.01267  Uiso   1.00
C33    C     0.00373   0.36610   0.20684   0.01267  Uiso   1.00
C34    C     0.00408   0.30857   0.16767   0.01267  Uiso   1.00
C35    C     0.93816   0.24510   0.19978   0.01267  Uiso   1.00
C36    C     0.04740   0.43760   0.17420   0.01267  Uiso   1.00
C37    C     0.07257   0.62637   0.16449   0.01267  Uiso   1.00
C38    C     0.37842   0.66516   0.09020   0.01267  Uiso   1.00
C39    C     0.58645   0.67138   0.03792   0.01267  Uiso   1.00
C40    C     0.68513   0.73704   0.03090   0.01267  Uiso   1.00
C41    C     0.91069   0.74552   0.98030   0.01267  Uiso   1.00
C42    C     0.00784   0.80961   0.97411   0.01267  Uiso   1.00
C43    C     0.88622   0.86750   0.01766   0.01267  Uiso   1.00
C44    C     0.67402   0.86111   0.06725   0.01267  Uiso   1.00
C45    C     0.56839   0.79517   0.07665   0.01267  Uiso   1.00
C46    C     0.35765   0.78749   0.13041   0.01267  Uiso   1.00
C47    C     0.26825   0.72272   0.13658   0.01267  Uiso   1.00
C48    C     0.91874   0.72867   0.24545   0.01267  Uiso   1.00
C49    C     0.85690   0.68750   0.30210   0.01267  Uiso   1.00
C50    C     0.72660   0.71830   0.36550   0.01267  Uiso   1.00
C51    C     0.63017   0.79316   0.36610   0.01267  Uiso   1.00
C52    C     0.68735   0.83233   0.30857   0.01267  Uiso   1.00
C53    C     0.81674   0.80022   0.24510   0.01267  Uiso   1.00
C54    C     0.51500   0.82580   0.43760   0.01267  Uiso   1.00
C55    C     0.86343   0.37363   0.83551   0.01267  Uiso   1.00
C56    C     0.13378   0.33484   0.90980   0.01267  Uiso   1.00
C57    C     0.29575   0.32862   0.96208   0.01267  Uiso   1.00
C58    C     0.45307   0.26296   0.96910   0.01267  Uiso   1.00
C59    C     0.63651   0.25448   0.01970   0.01267  Uiso   1.00
C60    C     0.79156   0.19039   0.02589   0.01267  Uiso   1.00
C61    C     0.77138   0.13250   0.98234   0.01267  Uiso   1.00
C62    C     0.60238   0.13889   0.93275   0.01267  Uiso   1.00
C63    C     0.44021   0.20483   0.92335   0.01267  Uiso   1.00
C64    C     0.27555   0.21251   0.86959   0.01267  Uiso   1.00
C65    C     0.12755   0.27728   0.86342   0.01267  Uiso   1.00
C66    C     0.89286   0.27133   0.75455   0.01267  Uiso   1.00
C67    C     0.84650   0.31250   0.69790   0.01267  Uiso   1.00
C68    C     0.81040   0.28170   0.63450   0.01267  Uiso   1.00
C69    C     0.78943   0.20684   0.63390   0.01267  Uiso   1.00
C70    C     0.82825   0.16767   0.69143   0.01267  Uiso   1.00
C71    C     0.86206   0.19978   0.75490   0.01267  Uiso   1.00
C72    C     0.77840   0.17420   0.56240   0.01267  Uiso   1.00
N1     N     0.14779   0.89002   0.60660   0.01267  Uiso   1.00
N2     N     0.23297   0.81608   0.69558   0.01267  Uiso   1.00
N3     N     0.64441   0.10998   0.39340   0.01267  Uiso   1.00
N4     N     0.74463   0.18392   0.30442   0.01267  Uiso   1.00
N5     N     0.24561   0.60660   0.10998   0.01267  Uiso   1.00
N6     N     0.07145   0.69558   0.18392   0.01267  Uiso   1.00
N7     N     0.96219   0.39340   0.89002   0.01267  Uiso   1.00
N8     N     0.95095   0.30442   0.81608   0.01267  Uiso   1.00
O1     O     0.32362   0.02954   0.52882   0.01267  Uiso   1.00
O2     O     0.63515   0.55541   0.88769   0.01267  Uiso   1.00
O3     O     0.77496   0.51193   0.78275   0.01267  Uiso   1.00
O4     O     0.88198   0.97046   0.47118   0.01267  Uiso   1.00
O5     O     0.07825   0.44459   0.11231   0.01267  Uiso   1.00
O6     O     0.06964   0.48807   0.21725   0.01267  Uiso   1.00
O7     O     0.14756   0.52882   0.97046   0.01267  Uiso   1.00
O8     O     0.47716   0.88769   0.44459   0.01267  Uiso   1.00
O9     O     0.44229   0.78275   0.48807   0.01267  Uiso   1.00
O10    O     0.64684   0.47118   0.02954   0.01267  Uiso   1.00
O11    O     0.80944   0.11231   0.55541   0.01267  Uiso   1.00
O12    O     0.71311   0.21725   0.51193   0.01267  Uiso   1.00
