data_IFEPIT_clean
_audit_creation_date              2014-07-02
_audit_creation_method            'Materials Studio'
_symmetry_space_group_name_H-M    'P1'
_symmetry_Int_Tables_number       1
_symmetry_cell_setting            triclinic
loop_
_symmetry_equiv_pos_as_xyz
  x,y,z
_cell_length_a                    9.2420
_cell_length_b                    12.2519
_cell_length_c                    14.4835
_cell_angle_alpha                 94.9530
_cell_angle_beta                  103.2070
_cell_angle_gamma                 97.4620
loop_
_atom_site_label
_atom_site_type_symbol
_atom_site_fract_x
_atom_site_fract_y
_atom_site_fract_z
_atom_site_U_iso_or_equiv
_atom_site_adp_type
_atom_site_occupancy
Gd1    Gd    0.75059   0.25388   0.75686   0.01267  Uiso   1.00
Gd2    Gd    0.24941   0.74612   0.24314   0.01267  Uiso   1.00
Re1    Re    0.50632   0.61380   0.77613   0.01267  Uiso   1.00
Re2    Re    0.35804   0.73143   0.87766   0.01267  Uiso   1.00
Re3    Re    0.20504   0.58568   0.72816   0.01267  Uiso   1.00
Re4    Re    0.36138   0.68651   0.61646   0.01267  Uiso   1.00
Re5    Re    0.51528   0.83215   0.76639   0.01267  Uiso   1.00
Re6    Re    0.21362   0.80420   0.71731   0.01267  Uiso   1.00
Re7    Re    0.49368   0.38620   0.22387   0.01267  Uiso   1.00
Re8    Re    0.64196   0.26857   0.12234   0.01267  Uiso   1.00
Re9    Re    0.79496   0.41432   0.27184   0.01267  Uiso   1.00
Re10   Re    0.63862   0.31349   0.38354   0.01267  Uiso   1.00
Re11   Re    0.48472   0.16785   0.23361   0.01267  Uiso   1.00
Re12   Re    0.78638   0.19580   0.28269   0.01267  Uiso   1.00
Te1    Te    0.35025   0.51276   0.88898   0.01267  Uiso   1.00
Te2    Te    0.66124   0.75979   0.92720   0.01267  Uiso   1.00
Te3    Te    0.05414   0.70402   0.82886   0.01267  Uiso   1.00
Te4    Te    0.35160   0.46760   0.62470   0.01267  Uiso   1.00
Te5    Te    0.66498   0.71430   0.66411   0.01267  Uiso   1.00
Te6    Te    0.36757   0.95083   0.86895   0.01267  Uiso   1.00
Te7    Te    0.05724   0.65600   0.56712   0.01267  Uiso   1.00
Te8    Te    0.37412   0.90564   0.60622   0.01267  Uiso   1.00
Te9    Te    0.64975   0.48724   0.11102   0.01267  Uiso   1.00
Te10   Te    0.33876   0.24021   0.07280   0.01267  Uiso   1.00
Te11   Te    0.94586   0.29598   0.17114   0.01267  Uiso   1.00
Te12   Te    0.64840   0.53240   0.37530   0.01267  Uiso   1.00
Te13   Te    0.33502   0.28570   0.33589   0.01267  Uiso   1.00
Te14   Te    0.63243   0.04917   0.13105   0.01267  Uiso   1.00
Te15   Te    0.94276   0.34400   0.43288   0.01267  Uiso   1.00
Te16   Te    0.62588   0.09436   0.39378   0.01267  Uiso   1.00
C1     C     0.66240   0.50690   0.80880   0.01267  Uiso   1.00
C2     C     0.35220   0.75350   0.02170   0.01267  Uiso   1.00
C3     C     0.04200   0.44710   0.71460   0.01267  Uiso   1.00
C4     C     0.36100   0.67250   0.47290   0.01267  Uiso   1.00
C5     C     0.67380   0.97400   0.78320   0.01267  Uiso   1.00
C6     C     0.05390   0.90970   0.67710   0.01267  Uiso   1.00
C7     C     0.33760   0.49310   0.19120   0.01267  Uiso   1.00
C8     C     0.64780   0.24650   0.97830   0.01267  Uiso   1.00
C9     C     0.95800   0.55290   0.28540   0.01267  Uiso   1.00
C10    C     0.63900   0.32750   0.52710   0.01267  Uiso   1.00
C11    C     0.32620   0.02600   0.21680   0.01267  Uiso   1.00
C12    C     0.94610   0.09030   0.32290   0.01267  Uiso   1.00
N1     N     0.74540   0.44390   0.82410   0.01267  Uiso   1.00
N2     N     0.34300   0.76260   0.09830   0.01267  Uiso   1.00
N3     N     0.95650   0.36990   0.71230   0.01267  Uiso   1.00
N4     N     0.35640   0.67070   0.39140   0.01267  Uiso   1.00
N5     N     0.74810   0.05870   0.79070   0.01267  Uiso   1.00
N6     N     0.96910   0.96870   0.65380   0.01267  Uiso   1.00
N7     N     0.25460   0.55610   0.17590   0.01267  Uiso   1.00
N8     N     0.65700   0.23740   0.90170   0.01267  Uiso   1.00
N9     N     0.04350   0.63010   0.28770   0.01267  Uiso   1.00
N10    N     0.64360   0.32930   0.60860   0.01267  Uiso   1.00
N11    N     0.25190   0.94130   0.20930   0.01267  Uiso   1.00
N12    N     0.03090   0.03130   0.34620   0.01267  Uiso   1.00
