data_IFEQIV_clean
_audit_creation_date              2015-05-12
_audit_creation_method            'Materials Studio'
_symmetry_space_group_name_H-M    'P1'
_symmetry_Int_Tables_number       1
_symmetry_cell_setting            triclinic
loop_
_symmetry_equiv_pos_as_xyz
  x,y,z
_cell_length_a                    5.3960
_cell_length_b                    18.7159
_cell_length_c                    18.7159
_cell_angle_alpha                 88.8093
_cell_angle_beta                  81.7119
_cell_angle_gamma                 81.7116
loop_
_atom_site_label
_atom_site_type_symbol
_atom_site_fract_x
_atom_site_fract_y
_atom_site_fract_z
_atom_site_U_iso_or_equiv
_atom_site_adp_type
_atom_site_occupancy
Zn1    Zn    0.66126   0.94231   0.48865   0.01267  Uiso   1.00
Zn2    Zn    0.09222   0.05769   0.51135   0.01267  Uiso   1.00
Zn3    Zn    0.85009   0.48865   0.05769   0.01267  Uiso   1.00
Zn4    Zn    0.39643   0.51135   0.94231   0.01267  Uiso   1.00
H5     H     0.74470   0.84540   0.16640   0.01267  Uiso   1.00
H6     H     0.42330   0.90530   0.09290   0.01267  Uiso   1.00
H7     H     0.00370   0.04240   0.29380   0.01267  Uiso   1.00
H8     H     0.19580   0.65100   0.12900   0.01267  Uiso   1.00
H9     H     0.65900   0.66750   0.27690   0.01267  Uiso   1.00
H10    H     0.04000   0.81660   0.40120   0.01267  Uiso   1.00
H11    H     0.84560   0.05260   0.18440   0.01267  Uiso   1.00
H12    H     0.32860   0.98770   0.36810   0.01267  Uiso   1.00
H13    H     0.90720   0.74520   0.18440   0.01267  Uiso   1.00
H14    H     0.37990   0.76550   0.33030   0.01267  Uiso   1.00
H15    H     0.06090   0.98470   0.08350   0.01267  Uiso   1.00
H16    H     0.75650   0.15460   0.83360   0.01267  Uiso   1.00
H17    H     0.42150   0.09470   0.90710   0.01267  Uiso   1.00
H18    H     0.33990   0.95760   0.70620   0.01267  Uiso   1.00
H19    H     0.97580   0.34900   0.87100   0.01267  Uiso   1.00
H20    H     0.60340   0.33250   0.72310   0.01267  Uiso   1.00
H21    H     0.25780   0.18340   0.59880   0.01267  Uiso   1.00
H22    H     0.08260   0.94740   0.81560   0.01267  Uiso   1.00
H23    H     0.68440   0.01230   0.63190   0.01267  Uiso   1.00
H24    H     0.83680   0.25480   0.81560   0.01267  Uiso   1.00
H25    H     0.47570   0.23450   0.66970   0.01267  Uiso   1.00
H26    H     0.12910   0.01530   0.91650   0.01267  Uiso   1.00
H27    H     0.08890   0.16640   0.15460   0.01267  Uiso   1.00
H28    H     0.48380   0.09290   0.09470   0.01267  Uiso   1.00
H29    H     0.70250   0.29380   0.95760   0.01267  Uiso   1.00
H30    H     0.67520   0.12900   0.34900   0.01267  Uiso   1.00
H31    H     0.06410   0.27690   0.33250   0.01267  Uiso   1.00
H32    H     0.55880   0.40120   0.18340   0.01267  Uiso   1.00
H33    H     0.97000   0.18440   0.94740   0.01267  Uiso   1.00
H34    H     0.30330   0.36810   0.01230   0.01267  Uiso   1.00
H35    H     0.90840   0.18440   0.25480   0.01267  Uiso   1.00
H36    H     0.28980   0.33030   0.23450   0.01267  Uiso   1.00
H37    H     0.85560   0.08350   0.01530   0.01267  Uiso   1.00
H38    H     0.40990   0.83360   0.84540   0.01267  Uiso   1.00
H39    H     0.67140   0.90710   0.90530   0.01267  Uiso   1.00
H40    H     0.95390   0.70620   0.04240   0.01267  Uiso   1.00
H41    H     0.15320   0.87100   0.65100   0.01267  Uiso   1.00
H42    H     0.67350   0.72310   0.66750   0.01267  Uiso   1.00
H43    H     0.14340   0.59880   0.81660   0.01267  Uiso   1.00
H44    H     0.10180   0.81560   0.05260   0.01267  Uiso   1.00
H45    H     0.68370   0.63190   0.98770   0.01267  Uiso   1.00
H46    H     0.34760   0.81560   0.74520   0.01267  Uiso   1.00
H47    H     0.85460   0.66970   0.76550   0.01267  Uiso   1.00
H48    H     0.95440   0.91650   0.98470   0.01267  Uiso   1.00
C49    C     0.11323   0.76328   0.26406   0.01267  Uiso   1.00
C50    C     0.65840   0.87321   0.20679   0.01267  Uiso   1.00
C51    C     0.63176   0.58523   0.16445   0.01267  Uiso   1.00
C52    C     0.74178   0.86545   0.27279   0.01267  Uiso   1.00
C53    C     0.44181   0.92333   0.20045   0.01267  Uiso   1.00
C54    C     0.33999   0.93242   0.13400   0.01267  Uiso   1.00
C55    C     0.08987   0.01430   0.25356   0.01267  Uiso   1.00
C56    C     0.61923   0.90928   0.33226   0.01267  Uiso   1.00
C57    C     0.31388   0.96615   0.26109   0.01267  Uiso   1.00
C58    C     0.23094   0.67282   0.17110   0.01267  Uiso   1.00
C59    C     0.44974   0.64758   0.19854   0.01267  Uiso   1.00
C60    C     0.50574   0.68312   0.25820   0.01267  Uiso   1.00
C61    C     0.92648   0.83933   0.37051   0.01267  Uiso   1.00
C62    C     0.99637   0.02062   0.18864   0.01267  Uiso   1.00
C63    C     0.40839   0.95896   0.32766   0.01267  Uiso   1.00
C64    C     0.05984   0.72950   0.20342   0.01267  Uiso   1.00
C65    C     0.33888   0.74122   0.29042   0.01267  Uiso   1.00
C66    C     0.12478   0.97951   0.12833   0.01267  Uiso   1.00
C67    C     0.14057   0.23672   0.73594   0.01267  Uiso   1.00
C68    C     0.73840   0.12679   0.79321   0.01267  Uiso   1.00
C69    C     0.38144   0.41477   0.83555   0.01267  Uiso   1.00
C70    C     0.88002   0.13455   0.72721   0.01267  Uiso   1.00
C71    C     0.56559   0.07667   0.79955   0.01267  Uiso   1.00
C72    C     0.40641   0.06758   0.86600   0.01267  Uiso   1.00
C73    C     0.35773   0.98570   0.74644   0.01267  Uiso   1.00
C74    C     0.86077   0.09072   0.66774   0.01267  Uiso   1.00
C75    C     0.54112   0.03385   0.73891   0.01267  Uiso   1.00
C76    C     0.07486   0.32718   0.82890   0.01267  Uiso   1.00
C77    C     0.29586   0.35242   0.80146   0.01267  Uiso   1.00
C78    C     0.44706   0.31688   0.74180   0.01267  Uiso   1.00
C79    C     0.13632   0.16067   0.62949   0.01267  Uiso   1.00
C80    C     0.20563   0.97938   0.81136   0.01267  Uiso   1.00
C81    C     0.69501   0.04104   0.67234   0.01267  Uiso   1.00
C82    C     0.99276   0.27050   0.79658   0.01267  Uiso   1.00
C83    C     0.37052   0.25878   0.70958   0.01267  Uiso   1.00
C84    C     0.23262   0.02049   0.87167   0.01267  Uiso   1.00
C85    C     0.62271   0.26406   0.23672   0.01267  Uiso   1.00
C86    C     0.13481   0.20679   0.12679   0.01267  Uiso   1.00
C87    C     0.20379   0.16445   0.41477   0.01267  Uiso   1.00
C88    C     0.98543   0.27279   0.13455   0.01267  Uiso   1.00
C89    C     0.35774   0.20045   0.07667   0.01267  Uiso   1.00
C90    C     0.52601   0.13400   0.06758   0.01267  Uiso   1.00
C91    C     0.65657   0.25356   0.98570   0.01267  Uiso   1.00
C92    C     0.04851   0.33226   0.09072   0.01267  Uiso   1.00
C93    C     0.42503   0.26109   0.03385   0.01267  Uiso   1.00
C94    C     0.59796   0.17110   0.32718   0.01267  Uiso   1.00
C95    C     0.35172   0.19854   0.35242   0.01267  Uiso   1.00
C96    C     0.23606   0.25820   0.31688   0.01267  Uiso   1.00
C97    C     0.70301   0.37051   0.16067   0.01267  Uiso   1.00
C98    C     0.81499   0.18864   0.97938   0.01267  Uiso   1.00
C99    C     0.26395   0.32766   0.04104   0.01267  Uiso   1.00
C100   C     0.73674   0.20342   0.27050   0.01267  Uiso   1.00
C101   C     0.37070   0.29042   0.25878   0.01267  Uiso   1.00
C102   C     0.74689   0.12833   0.02049   0.01267  Uiso   1.00
C103   C     0.12349   0.73594   0.76328   0.01267  Uiso   1.00
C104   C     0.46839   0.79321   0.87321   0.01267  Uiso   1.00
C105   C     0.78301   0.83555   0.58523   0.01267  Uiso   1.00
C106   C     0.39277   0.72721   0.86545   0.01267  Uiso   1.00
C107   C     0.63486   0.79955   0.92333   0.01267  Uiso   1.00
C108   C     0.72759   0.86600   0.93242   0.01267  Uiso   1.00
C109   C     0.89583   0.74644   0.01430   0.01267  Uiso   1.00
C110   C     0.47149   0.66774   0.90928   0.01267  Uiso   1.00
C111   C     0.71997   0.73891   0.96615   0.01267  Uiso   1.00
C112   C     0.09624   0.82890   0.67282   0.01267  Uiso   1.00
C113   C     0.90268   0.80146   0.64758   0.01267  Uiso   1.00
C114   C     0.81114   0.74180   0.68312   0.01267  Uiso   1.00
C115   C     0.23419   0.62949   0.83933   0.01267  Uiso   1.00
C116   C     0.98301   0.81136   0.02062   0.01267  Uiso   1.00
C117   C     0.63265   0.67234   0.95896   0.01267  Uiso   1.00
C118   C     0.21066   0.79658   0.72950   0.01267  Uiso   1.00
C119   C     0.91990   0.70958   0.74122   0.01267  Uiso   1.00
C120   C     0.89571   0.87167   0.97951   0.01267  Uiso   1.00
N121   N     0.74333   0.89115   0.39199   0.01267  Uiso   1.00
N122   N     0.93944   0.82075   0.29957   0.01267  Uiso   1.00
N123   N     0.02647   0.10885   0.60801   0.01267  Uiso   1.00
N124   N     0.05976   0.17925   0.70043   0.01267  Uiso   1.00
N125   N     0.86468   0.39199   0.10885   0.01267  Uiso   1.00
N126   N     0.76099   0.29957   0.17925   0.01267  Uiso   1.00
N127   N     0.36552   0.60801   0.89115   0.01267  Uiso   1.00
N128   N     0.23981   0.70043   0.82075   0.01267  Uiso   1.00
O129   O     0.30616   0.96558   0.52110   0.01267  Uiso   1.00
O130   O     0.57727   0.55894   0.10772   0.01267  Uiso   1.00
O131   O     0.82538   0.56457   0.19207   0.01267  Uiso   1.00
O132   O     0.79284   0.03442   0.47890   0.01267  Uiso   1.00
O133   O     0.24393   0.44106   0.89228   0.01267  Uiso   1.00
O134   O     0.58202   0.43543   0.80793   0.01267  Uiso   1.00
O135   O     0.17274   0.52110   0.03442   0.01267  Uiso   1.00
O136   O     0.31501   0.10772   0.44106   0.01267  Uiso   1.00
O137   O     0.98255   0.19207   0.43543   0.01267  Uiso   1.00
O138   O     0.72826   0.47890   0.96558   0.01267  Uiso   1.00
O139   O     0.86379   0.89228   0.55894   0.01267  Uiso   1.00
O140   O     0.61005   0.80793   0.56457   0.01267  Uiso   1.00
H141   H     0.72826   0.42546   0.96669   0.01267  Uiso   1.00
H142   H     0.64147   0.08334   0.48417   0.01267  Uiso   1.00
H143   H     0.23047   0.92591   0.52507   0.01267  Uiso   1.00
H144   H     0.17274   0.57454   0.03331   0.01267  Uiso   1.00
