data_IFEQAN_clean
_audit_creation_date              2015-05-15
_audit_creation_method            'Materials Studio'
_symmetry_space_group_name_H-M    'P1'
_symmetry_Int_Tables_number       1
_symmetry_cell_setting            triclinic
loop_
_symmetry_equiv_pos_as_xyz
  x,y,z
_cell_length_a                    26.7130
_cell_length_b                    26.7130
_cell_length_c                    5.0883
_cell_angle_alpha                 90.0000
_cell_angle_beta                  90.0000
_cell_angle_gamma                 90.0000
loop_
_atom_site_label
_atom_site_type_symbol
_atom_site_fract_x
_atom_site_fract_y
_atom_site_fract_z
_atom_site_U_iso_or_equiv
_atom_site_adp_type
_atom_site_occupancy
Zn1    Zn    0.78670   0.77091   0.30051   0.01267  Uiso   1.00
H2     H     0.89290   0.79230   0.05780   0.01267  Uiso   1.00
H3     H     0.82030   0.68800   0.71440   0.01267  Uiso   1.00
H4     H     0.82830   0.62220   0.06150   0.01267  Uiso   1.00
H5     H     0.87650   0.56330   0.28140   0.01267  Uiso   1.00
H6     H     0.96200   0.55340   0.17610   0.01267  Uiso   1.00
H7     H     0.99840   0.59930   0.84680   0.01267  Uiso   1.00
H8     H     0.99390   0.66840   0.52080   0.01267  Uiso   1.00
H9     H     0.96150   0.77810   0.78330   0.01267  Uiso   1.00
H10    H     0.03940   0.79990   0.60200   0.01267  Uiso   1.00
H11    H     0.10700   0.76350   0.28650   0.01267  Uiso   1.00
H12    H     0.02970   0.74430   0.47300   0.01267  Uiso   1.00
C13    C     0.89617   0.76647   0.18500   0.01267  Uiso   1.00
C14    C     0.87799   0.71156   0.48970   0.01267  Uiso   1.00
C15    C     0.85486   0.68367   0.67640   0.01267  Uiso   1.00
C16    C     0.88384   0.64804   0.81170   0.01267  Uiso   1.00
C17    C     0.86257   0.61804   0.01600   0.01267  Uiso   1.00
C18    C     0.89110   0.58330   0.14740   0.01267  Uiso   1.00
C19    C     0.94252   0.57723   0.08280   0.01267  Uiso   1.00
C20    C     0.96429   0.60483   0.89060   0.01267  Uiso   1.00
C21    C     0.93627   0.64228   0.75320   0.01267  Uiso   1.00
C22    C     0.95941   0.67207   0.56150   0.01267  Uiso   1.00
C23    C     0.93002   0.70694   0.43450   0.01267  Uiso   1.00
C24    C     0.98811   0.75749   0.13760   0.01267  Uiso   1.00
C25    C     0.08022   0.78528   0.93910   0.01267  Uiso   1.00
C26    C     0.12966   0.80023   0.82150   0.01267  Uiso   1.00
C27    C     0.99100   0.77510   0.88590   0.01267  Uiso   1.00
C28    C     0.03700   0.78860   0.77870   0.01267  Uiso   1.00
C29    C     0.07730   0.76740   0.18600   0.01267  Uiso   1.00
C30    C     0.03180   0.75470   0.29500   0.01267  Uiso   1.00
N31    N     0.85844   0.74912   0.32460   0.01267  Uiso   1.00
N32    N     0.94012   0.74350   0.24230   0.01267  Uiso   1.00
O33    O     0.74869   0.71902   0.12380   0.01267  Uiso   1.00
O34    O     0.16822   0.78026   0.91670   0.01267  Uiso   1.00
O35    O     0.12980   0.81650   0.58020   0.01267  Uiso   1.00
H36    H     0.25618   0.18907   0.62380   0.01267  Uiso   1.00
Zn37   Zn    0.28670   0.27091   0.80051   0.01267  Uiso   1.00
H38    H     0.39290   0.29230   0.55780   0.01267  Uiso   1.00
H39    H     0.32030   0.18800   0.21440   0.01267  Uiso   1.00
H40    H     0.32830   0.12220   0.56150   0.01267  Uiso   1.00
H41    H     0.37650   0.06330   0.78140   0.01267  Uiso   1.00
H42    H     0.46200   0.05340   0.67610   0.01267  Uiso   1.00
H43    H     0.49840   0.09930   0.34680   0.01267  Uiso   1.00
H44    H     0.49390   0.16840   0.02080   0.01267  Uiso   1.00
H45    H     0.46150   0.27810   0.28330   0.01267  Uiso   1.00
H46    H     0.53940   0.29990   0.10200   0.01267  Uiso   1.00
H47    H     0.60700   0.26350   0.78650   0.01267  Uiso   1.00
H48    H     0.52970   0.24430   0.97300   0.01267  Uiso   1.00
C49    C     0.39617   0.26647   0.68500   0.01267  Uiso   1.00
C50    C     0.37799   0.21156   0.98970   0.01267  Uiso   1.00
C51    C     0.35486   0.18367   0.17640   0.01267  Uiso   1.00
C52    C     0.38384   0.14804   0.31170   0.01267  Uiso   1.00
C53    C     0.36257   0.11804   0.51600   0.01267  Uiso   1.00
C54    C     0.39110   0.08330   0.64740   0.01267  Uiso   1.00
C55    C     0.44252   0.07723   0.58280   0.01267  Uiso   1.00
C56    C     0.46429   0.10483   0.39060   0.01267  Uiso   1.00
C57    C     0.43627   0.14228   0.25320   0.01267  Uiso   1.00
C58    C     0.45941   0.17207   0.06150   0.01267  Uiso   1.00
C59    C     0.43002   0.20694   0.93450   0.01267  Uiso   1.00
C60    C     0.48811   0.25749   0.63760   0.01267  Uiso   1.00
C61    C     0.58022   0.28528   0.43910   0.01267  Uiso   1.00
C62    C     0.62966   0.30023   0.32150   0.01267  Uiso   1.00
C63    C     0.49100   0.27510   0.38590   0.01267  Uiso   1.00
C64    C     0.53700   0.28860   0.27870   0.01267  Uiso   1.00
C65    C     0.57730   0.26740   0.68600   0.01267  Uiso   1.00
C66    C     0.53180   0.25470   0.79500   0.01267  Uiso   1.00
N67    N     0.35844   0.24912   0.82460   0.01267  Uiso   1.00
N68    N     0.44012   0.24350   0.74230   0.01267  Uiso   1.00
O69    O     0.24869   0.21902   0.62380   0.01267  Uiso   1.00
O70    O     0.66822   0.28026   0.41670   0.01267  Uiso   1.00
O71    O     0.62980   0.31650   0.08020   0.01267  Uiso   1.00
H72    H     0.75618   0.68907   0.12380   0.01267  Uiso   1.00
Zn73   Zn    0.21330   0.22909   0.30051   0.01267  Uiso   1.00
H74    H     0.10710   0.20770   0.05780   0.01267  Uiso   1.00
H75    H     0.17970   0.31200   0.71440   0.01267  Uiso   1.00
H76    H     0.17170   0.37780   0.06150   0.01267  Uiso   1.00
H77    H     0.12350   0.43670   0.28140   0.01267  Uiso   1.00
H78    H     0.03800   0.44660   0.17610   0.01267  Uiso   1.00
H79    H     0.00160   0.40070   0.84680   0.01267  Uiso   1.00
H80    H     0.00610   0.33160   0.52080   0.01267  Uiso   1.00
H81    H     0.03850   0.22190   0.78330   0.01267  Uiso   1.00
H82    H     0.96060   0.20010   0.60200   0.01267  Uiso   1.00
H83    H     0.89300   0.23650   0.28650   0.01267  Uiso   1.00
H84    H     0.97030   0.25570   0.47300   0.01267  Uiso   1.00
C85    C     0.10383   0.23353   0.18500   0.01267  Uiso   1.00
C86    C     0.12201   0.28844   0.48970   0.01267  Uiso   1.00
C87    C     0.14514   0.31633   0.67640   0.01267  Uiso   1.00
C88    C     0.11616   0.35196   0.81170   0.01267  Uiso   1.00
C89    C     0.13743   0.38196   0.01600   0.01267  Uiso   1.00
C90    C     0.10890   0.41670   0.14740   0.01267  Uiso   1.00
C91    C     0.05748   0.42277   0.08280   0.01267  Uiso   1.00
C92    C     0.03571   0.39517   0.89060   0.01267  Uiso   1.00
C93    C     0.06373   0.35772   0.75320   0.01267  Uiso   1.00
C94    C     0.04059   0.32793   0.56150   0.01267  Uiso   1.00
C95    C     0.06998   0.29306   0.43450   0.01267  Uiso   1.00
C96    C     0.01189   0.24251   0.13760   0.01267  Uiso   1.00
C97    C     0.91978   0.21472   0.93910   0.01267  Uiso   1.00
C98    C     0.87034   0.19977   0.82150   0.01267  Uiso   1.00
C99    C     0.00900   0.22490   0.88590   0.01267  Uiso   1.00
C100   C     0.96300   0.21140   0.77870   0.01267  Uiso   1.00
C101   C     0.92270   0.23260   0.18600   0.01267  Uiso   1.00
C102   C     0.96820   0.24530   0.29500   0.01267  Uiso   1.00
N103   N     0.14156   0.25088   0.32460   0.01267  Uiso   1.00
N104   N     0.05988   0.25650   0.24230   0.01267  Uiso   1.00
O105   O     0.25131   0.28098   0.12380   0.01267  Uiso   1.00
O106   O     0.83178   0.21974   0.91670   0.01267  Uiso   1.00
O107   O     0.87020   0.18350   0.58020   0.01267  Uiso   1.00
H108   H     0.74382   0.81093   0.62380   0.01267  Uiso   1.00
Zn109  Zn    0.71330   0.72909   0.80051   0.01267  Uiso   1.00
H110   H     0.60710   0.70770   0.55780   0.01267  Uiso   1.00
H111   H     0.67970   0.81200   0.21440   0.01267  Uiso   1.00
H112   H     0.67170   0.87780   0.56150   0.01267  Uiso   1.00
H113   H     0.62350   0.93670   0.78140   0.01267  Uiso   1.00
H114   H     0.53800   0.94660   0.67610   0.01267  Uiso   1.00
H115   H     0.50160   0.90070   0.34680   0.01267  Uiso   1.00
H116   H     0.50610   0.83160   0.02080   0.01267  Uiso   1.00
H117   H     0.53850   0.72190   0.28330   0.01267  Uiso   1.00
H118   H     0.46060   0.70010   0.10200   0.01267  Uiso   1.00
H119   H     0.39300   0.73650   0.78650   0.01267  Uiso   1.00
H120   H     0.47030   0.75570   0.97300   0.01267  Uiso   1.00
C121   C     0.60383   0.73353   0.68500   0.01267  Uiso   1.00
C122   C     0.62201   0.78844   0.98970   0.01267  Uiso   1.00
C123   C     0.64514   0.81633   0.17640   0.01267  Uiso   1.00
C124   C     0.61616   0.85196   0.31170   0.01267  Uiso   1.00
C125   C     0.63743   0.88196   0.51600   0.01267  Uiso   1.00
C126   C     0.60890   0.91670   0.64740   0.01267  Uiso   1.00
C127   C     0.55748   0.92277   0.58280   0.01267  Uiso   1.00
C128   C     0.53571   0.89517   0.39060   0.01267  Uiso   1.00
C129   C     0.56373   0.85772   0.25320   0.01267  Uiso   1.00
C130   C     0.54059   0.82793   0.06150   0.01267  Uiso   1.00
C131   C     0.56998   0.79306   0.93450   0.01267  Uiso   1.00
C132   C     0.51189   0.74251   0.63760   0.01267  Uiso   1.00
C133   C     0.41978   0.71472   0.43910   0.01267  Uiso   1.00
C134   C     0.37034   0.69977   0.32150   0.01267  Uiso   1.00
C135   C     0.50900   0.72490   0.38590   0.01267  Uiso   1.00
C136   C     0.46300   0.71140   0.27870   0.01267  Uiso   1.00
C137   C     0.42270   0.73260   0.68600   0.01267  Uiso   1.00
C138   C     0.46820   0.74530   0.79500   0.01267  Uiso   1.00
N139   N     0.64156   0.75088   0.82460   0.01267  Uiso   1.00
N140   N     0.55988   0.75650   0.74230   0.01267  Uiso   1.00
O141   O     0.75131   0.78098   0.62380   0.01267  Uiso   1.00
O142   O     0.33178   0.71974   0.41670   0.01267  Uiso   1.00
O143   O     0.37020   0.68350   0.08020   0.01267  Uiso   1.00
H144   H     0.24382   0.31093   0.12380   0.01267  Uiso   1.00
Zn145  Zn    0.77091   0.21330   0.69949   0.01267  Uiso   1.00
H146   H     0.79230   0.10710   0.94220   0.01267  Uiso   1.00
H147   H     0.68800   0.17970   0.28560   0.01267  Uiso   1.00
H148   H     0.62220   0.17170   0.93850   0.01267  Uiso   1.00
H149   H     0.56330   0.12350   0.71860   0.01267  Uiso   1.00
H150   H     0.55340   0.03800   0.82390   0.01267  Uiso   1.00
H151   H     0.59930   0.00160   0.15320   0.01267  Uiso   1.00
H152   H     0.66840   0.00610   0.47920   0.01267  Uiso   1.00
H153   H     0.77810   0.03850   0.21670   0.01267  Uiso   1.00
H154   H     0.79990   0.96060   0.39800   0.01267  Uiso   1.00
H155   H     0.76350   0.89300   0.71350   0.01267  Uiso   1.00
H156   H     0.74430   0.97030   0.52700   0.01267  Uiso   1.00
C157   C     0.76647   0.10383   0.81500   0.01267  Uiso   1.00
C158   C     0.71156   0.12201   0.51030   0.01267  Uiso   1.00
C159   C     0.68367   0.14514   0.32360   0.01267  Uiso   1.00
C160   C     0.64804   0.11616   0.18830   0.01267  Uiso   1.00
C161   C     0.61804   0.13743   0.98400   0.01267  Uiso   1.00
C162   C     0.58330   0.10890   0.85260   0.01267  Uiso   1.00
C163   C     0.57723   0.05748   0.91720   0.01267  Uiso   1.00
C164   C     0.60483   0.03571   0.10940   0.01267  Uiso   1.00
C165   C     0.64228   0.06373   0.24680   0.01267  Uiso   1.00
C166   C     0.67207   0.04059   0.43850   0.01267  Uiso   1.00
C167   C     0.70694   0.06998   0.56550   0.01267  Uiso   1.00
C168   C     0.75749   0.01189   0.86240   0.01267  Uiso   1.00
C169   C     0.78528   0.91978   0.06090   0.01267  Uiso   1.00
C170   C     0.80023   0.87034   0.17850   0.01267  Uiso   1.00
C171   C     0.77510   0.00900   0.11410   0.01267  Uiso   1.00
C172   C     0.78860   0.96300   0.22130   0.01267  Uiso   1.00
C173   C     0.76740   0.92270   0.81400   0.01267  Uiso   1.00
C174   C     0.75470   0.96820   0.70500   0.01267  Uiso   1.00
N175   N     0.74912   0.14156   0.67540   0.01267  Uiso   1.00
N176   N     0.74350   0.05988   0.75770   0.01267  Uiso   1.00
O177   O     0.71902   0.25131   0.87620   0.01267  Uiso   1.00
O178   O     0.78026   0.83178   0.08330   0.01267  Uiso   1.00
O179   O     0.81650   0.87020   0.41980   0.01267  Uiso   1.00
H180   H     0.18907   0.74382   0.37620   0.01267  Uiso   1.00
Zn181  Zn    0.27091   0.71330   0.19949   0.01267  Uiso   1.00
H182   H     0.29230   0.60710   0.44220   0.01267  Uiso   1.00
H183   H     0.18800   0.67970   0.78560   0.01267  Uiso   1.00
H184   H     0.12220   0.67170   0.43850   0.01267  Uiso   1.00
H185   H     0.06330   0.62350   0.21860   0.01267  Uiso   1.00
H186   H     0.05340   0.53800   0.32390   0.01267  Uiso   1.00
H187   H     0.09930   0.50160   0.65320   0.01267  Uiso   1.00
H188   H     0.16840   0.50610   0.97920   0.01267  Uiso   1.00
H189   H     0.27810   0.53850   0.71670   0.01267  Uiso   1.00
H190   H     0.29990   0.46060   0.89800   0.01267  Uiso   1.00
H191   H     0.26350   0.39300   0.21350   0.01267  Uiso   1.00
H192   H     0.24430   0.47030   0.02700   0.01267  Uiso   1.00
C193   C     0.26647   0.60383   0.31500   0.01267  Uiso   1.00
C194   C     0.21156   0.62201   0.01030   0.01267  Uiso   1.00
C195   C     0.18367   0.64514   0.82360   0.01267  Uiso   1.00
C196   C     0.14804   0.61616   0.68830   0.01267  Uiso   1.00
C197   C     0.11804   0.63743   0.48400   0.01267  Uiso   1.00
C198   C     0.08330   0.60890   0.35260   0.01267  Uiso   1.00
C199   C     0.07723   0.55748   0.41720   0.01267  Uiso   1.00
C200   C     0.10483   0.53571   0.60940   0.01267  Uiso   1.00
C201   C     0.14228   0.56373   0.74680   0.01267  Uiso   1.00
C202   C     0.17207   0.54059   0.93850   0.01267  Uiso   1.00
C203   C     0.20694   0.56998   0.06550   0.01267  Uiso   1.00
C204   C     0.25749   0.51189   0.36240   0.01267  Uiso   1.00
C205   C     0.28528   0.41978   0.56090   0.01267  Uiso   1.00
C206   C     0.30023   0.37034   0.67850   0.01267  Uiso   1.00
C207   C     0.27510   0.50900   0.61410   0.01267  Uiso   1.00
C208   C     0.28860   0.46300   0.72130   0.01267  Uiso   1.00
C209   C     0.26740   0.42270   0.31400   0.01267  Uiso   1.00
C210   C     0.25470   0.46820   0.20500   0.01267  Uiso   1.00
N211   N     0.24912   0.64156   0.17540   0.01267  Uiso   1.00
N212   N     0.24350   0.55988   0.25770   0.01267  Uiso   1.00
O213   O     0.21902   0.75131   0.37620   0.01267  Uiso   1.00
O214   O     0.28026   0.33178   0.58330   0.01267  Uiso   1.00
O215   O     0.31650   0.37020   0.91980   0.01267  Uiso   1.00
H216   H     0.68907   0.24382   0.87620   0.01267  Uiso   1.00
Zn217  Zn    0.22909   0.78670   0.69949   0.01267  Uiso   1.00
H218   H     0.20770   0.89290   0.94220   0.01267  Uiso   1.00
H219   H     0.31200   0.82030   0.28560   0.01267  Uiso   1.00
H220   H     0.37780   0.82830   0.93850   0.01267  Uiso   1.00
H221   H     0.43670   0.87650   0.71860   0.01267  Uiso   1.00
H222   H     0.44660   0.96200   0.82390   0.01267  Uiso   1.00
H223   H     0.40070   0.99840   0.15320   0.01267  Uiso   1.00
H224   H     0.33160   0.99390   0.47920   0.01267  Uiso   1.00
H225   H     0.22190   0.96150   0.21670   0.01267  Uiso   1.00
H226   H     0.20010   0.03940   0.39800   0.01267  Uiso   1.00
H227   H     0.23650   0.10700   0.71350   0.01267  Uiso   1.00
H228   H     0.25570   0.02970   0.52700   0.01267  Uiso   1.00
C229   C     0.23353   0.89617   0.81500   0.01267  Uiso   1.00
C230   C     0.28844   0.87799   0.51030   0.01267  Uiso   1.00
C231   C     0.31633   0.85486   0.32360   0.01267  Uiso   1.00
C232   C     0.35196   0.88384   0.18830   0.01267  Uiso   1.00
C233   C     0.38196   0.86257   0.98400   0.01267  Uiso   1.00
C234   C     0.41670   0.89110   0.85260   0.01267  Uiso   1.00
C235   C     0.42277   0.94252   0.91720   0.01267  Uiso   1.00
C236   C     0.39517   0.96429   0.10940   0.01267  Uiso   1.00
C237   C     0.35772   0.93627   0.24680   0.01267  Uiso   1.00
C238   C     0.32793   0.95941   0.43850   0.01267  Uiso   1.00
C239   C     0.29306   0.93002   0.56550   0.01267  Uiso   1.00
C240   C     0.24251   0.98811   0.86240   0.01267  Uiso   1.00
C241   C     0.21472   0.08022   0.06090   0.01267  Uiso   1.00
C242   C     0.19977   0.12966   0.17850   0.01267  Uiso   1.00
C243   C     0.22490   0.99100   0.11410   0.01267  Uiso   1.00
C244   C     0.21140   0.03700   0.22130   0.01267  Uiso   1.00
C245   C     0.23260   0.07730   0.81400   0.01267  Uiso   1.00
C246   C     0.24530   0.03180   0.70500   0.01267  Uiso   1.00
N247   N     0.25088   0.85844   0.67540   0.01267  Uiso   1.00
N248   N     0.25650   0.94012   0.75770   0.01267  Uiso   1.00
O249   O     0.28098   0.74869   0.87620   0.01267  Uiso   1.00
O250   O     0.21974   0.16822   0.08330   0.01267  Uiso   1.00
O251   O     0.18350   0.12980   0.41980   0.01267  Uiso   1.00
H252   H     0.81093   0.25618   0.37620   0.01267  Uiso   1.00
Zn253  Zn    0.72909   0.28670   0.19949   0.01267  Uiso   1.00
H254   H     0.70770   0.39290   0.44220   0.01267  Uiso   1.00
H255   H     0.81200   0.32030   0.78560   0.01267  Uiso   1.00
H256   H     0.87780   0.32830   0.43850   0.01267  Uiso   1.00
H257   H     0.93670   0.37650   0.21860   0.01267  Uiso   1.00
H258   H     0.94660   0.46200   0.32390   0.01267  Uiso   1.00
H259   H     0.90070   0.49840   0.65320   0.01267  Uiso   1.00
H260   H     0.83160   0.49390   0.97920   0.01267  Uiso   1.00
H261   H     0.72190   0.46150   0.71670   0.01267  Uiso   1.00
H262   H     0.70010   0.53940   0.89800   0.01267  Uiso   1.00
H263   H     0.73650   0.60700   0.21350   0.01267  Uiso   1.00
H264   H     0.75570   0.52970   0.02700   0.01267  Uiso   1.00
C265   C     0.73353   0.39617   0.31500   0.01267  Uiso   1.00
C266   C     0.78844   0.37799   0.01030   0.01267  Uiso   1.00
C267   C     0.81633   0.35486   0.82360   0.01267  Uiso   1.00
C268   C     0.85196   0.38384   0.68830   0.01267  Uiso   1.00
C269   C     0.88196   0.36257   0.48400   0.01267  Uiso   1.00
C270   C     0.91670   0.39110   0.35260   0.01267  Uiso   1.00
C271   C     0.92277   0.44252   0.41720   0.01267  Uiso   1.00
C272   C     0.89517   0.46429   0.60940   0.01267  Uiso   1.00
C273   C     0.85772   0.43627   0.74680   0.01267  Uiso   1.00
C274   C     0.82793   0.45941   0.93850   0.01267  Uiso   1.00
C275   C     0.79306   0.43002   0.06550   0.01267  Uiso   1.00
C276   C     0.74251   0.48811   0.36240   0.01267  Uiso   1.00
C277   C     0.71472   0.58022   0.56090   0.01267  Uiso   1.00
C278   C     0.69977   0.62966   0.67850   0.01267  Uiso   1.00
C279   C     0.72490   0.49100   0.61410   0.01267  Uiso   1.00
C280   C     0.71140   0.53700   0.72130   0.01267  Uiso   1.00
C281   C     0.73260   0.57730   0.31400   0.01267  Uiso   1.00
C282   C     0.74530   0.53180   0.20500   0.01267  Uiso   1.00
N283   N     0.75088   0.35844   0.17540   0.01267  Uiso   1.00
N284   N     0.75650   0.44012   0.25770   0.01267  Uiso   1.00
O285   O     0.78098   0.24869   0.37620   0.01267  Uiso   1.00
O286   O     0.71974   0.66822   0.58330   0.01267  Uiso   1.00
O287   O     0.68350   0.62980   0.91980   0.01267  Uiso   1.00
H288   H     0.31093   0.75618   0.87620   0.01267  Uiso   1.00
