data_IFEYIB_clean
_audit_creation_date              2014-07-02
_audit_creation_method            'Materials Studio'
_symmetry_space_group_name_H-M    'P1'
_symmetry_Int_Tables_number       1
_symmetry_cell_setting            triclinic
loop_
_symmetry_equiv_pos_as_xyz
  x,y,z
_cell_length_a                    14.8290
_cell_length_b                    16.1465
_cell_length_c                    19.2820
_cell_angle_alpha                 90.0000
_cell_angle_beta                  91.2700
_cell_angle_gamma                 90.0000
loop_
_atom_site_label
_atom_site_type_symbol
_atom_site_fract_x
_atom_site_fract_y
_atom_site_fract_z
_atom_site_U_iso_or_equiv
_atom_site_adp_type
_atom_site_occupancy
Cd1    Cd    0.77057   0.37456   0.43507   0.01267  Uiso   1.00
Cd2    Cd    0.72907   0.63149   0.93937   0.01267  Uiso   1.00
Cd3    Cd    0.22943   0.87456   0.06493   0.01267  Uiso   1.00
Cd4    Cd    0.27093   0.13149   0.56063   0.01267  Uiso   1.00
Cd5    Cd    0.22943   0.62544   0.56493   0.01267  Uiso   1.00
Cd6    Cd    0.27093   0.36851   0.06063   0.01267  Uiso   1.00
Cd7    Cd    0.77057   0.12544   0.93507   0.01267  Uiso   1.00
Cd8    Cd    0.72907   0.86851   0.43937   0.01267  Uiso   1.00
Hg1    Hg    0.63073   0.62228   0.65365   0.01267  Uiso   1.00
Hg2    Hg    0.87973   0.37879   0.15394   0.01267  Uiso   1.00
Hg3    Hg    0.36927   0.12228   0.84635   0.01267  Uiso   1.00
Hg4    Hg    0.12027   0.87879   0.34606   0.01267  Uiso   1.00
Hg5    Hg    0.36927   0.37772   0.34635   0.01267  Uiso   1.00
Hg6    Hg    0.12027   0.62121   0.84606   0.01267  Uiso   1.00
Hg7    Hg    0.63073   0.87772   0.15365   0.01267  Uiso   1.00
Hg8    Hg    0.87973   0.12121   0.65394   0.01267  Uiso   1.00
C1     C     0.76270   0.27370   0.59070   0.01267  Uiso   1.00
C2     C     0.64030   0.52820   0.50900   0.01267  Uiso   1.00
C3     C     0.42270   0.67500   0.65950   0.01267  Uiso   1.00
C4     C     0.79890   0.47210   0.27890   0.01267  Uiso   1.00
C5     C     0.68960   0.52390   0.79000   0.01267  Uiso   1.00
C6     C     0.90940   0.65700   0.83170   0.01267  Uiso   1.00
C7     C     0.86350   0.47910   0.01160   0.01267  Uiso   1.00
C8     C     0.76250   0.75470   0.58500   0.01267  Uiso   1.00
C9     C     0.23730   0.77370   0.90930   0.01267  Uiso   1.00
C10    C     0.35970   0.02820   0.99100   0.01267  Uiso   1.00
C11    C     0.57730   0.17500   0.84050   0.01267  Uiso   1.00
C12    C     0.20110   0.97210   0.22110   0.01267  Uiso   1.00
C13    C     0.31040   0.02390   0.71000   0.01267  Uiso   1.00
C14    C     0.09060   0.15700   0.66830   0.01267  Uiso   1.00
C15    C     0.13650   0.97910   0.48840   0.01267  Uiso   1.00
C16    C     0.23750   0.25470   0.91500   0.01267  Uiso   1.00
C17    C     0.23730   0.72630   0.40930   0.01267  Uiso   1.00
C18    C     0.35970   0.47180   0.49100   0.01267  Uiso   1.00
C19    C     0.57730   0.32500   0.34050   0.01267  Uiso   1.00
C20    C     0.20110   0.52790   0.72110   0.01267  Uiso   1.00
C21    C     0.31040   0.47610   0.21000   0.01267  Uiso   1.00
C22    C     0.09060   0.34300   0.16830   0.01267  Uiso   1.00
C23    C     0.13650   0.52090   0.98840   0.01267  Uiso   1.00
C24    C     0.23750   0.24530   0.41500   0.01267  Uiso   1.00
C25    C     0.76270   0.22630   0.09070   0.01267  Uiso   1.00
C26    C     0.64030   0.97180   0.00900   0.01267  Uiso   1.00
C27    C     0.42270   0.82500   0.15950   0.01267  Uiso   1.00
C28    C     0.79890   0.02790   0.77890   0.01267  Uiso   1.00
C29    C     0.68960   0.97610   0.29000   0.01267  Uiso   1.00
C30    C     0.90940   0.84300   0.33170   0.01267  Uiso   1.00
C31    C     0.86350   0.02090   0.51160   0.01267  Uiso   1.00
C32    C     0.76250   0.74530   0.08500   0.01267  Uiso   1.00
S1     S     0.76450   0.71750   0.66380   0.01267  Uiso   1.00
S2     S     0.68510   0.48770   0.71045   0.01267  Uiso   1.00
S3     S     0.50060   0.68560   0.71987   0.01267  Uiso   1.00
S4     S     0.56630   0.59350   0.53592   0.01267  Uiso   1.00
S5     S     0.93270   0.40310   0.03357   0.01267  Uiso   1.00
S6     S     0.98270   0.64970   0.76905   0.01267  Uiso   1.00
S7     S     0.80430   0.50990   0.20020   0.01267  Uiso   1.00
S8     S     0.77070   0.23940   0.67050   0.01267  Uiso   1.00
S9     S     0.23550   0.21750   0.83620   0.01267  Uiso   1.00
S10    S     0.31490   0.98770   0.78955   0.01267  Uiso   1.00
S11    S     0.49940   0.18560   0.78013   0.01267  Uiso   1.00
S12    S     0.43370   0.09350   0.96408   0.01267  Uiso   1.00
S13    S     0.06730   0.90310   0.46643   0.01267  Uiso   1.00
S14    S     0.01730   0.14970   0.73095   0.01267  Uiso   1.00
S15    S     0.19570   0.00990   0.29980   0.01267  Uiso   1.00
S16    S     0.22930   0.73940   0.82950   0.01267  Uiso   1.00
S17    S     0.23550   0.28250   0.33620   0.01267  Uiso   1.00
S18    S     0.31490   0.51230   0.28955   0.01267  Uiso   1.00
S19    S     0.49940   0.31440   0.28013   0.01267  Uiso   1.00
S20    S     0.43370   0.40650   0.46408   0.01267  Uiso   1.00
S21    S     0.06730   0.59690   0.96643   0.01267  Uiso   1.00
S22    S     0.01730   0.35030   0.23095   0.01267  Uiso   1.00
S23    S     0.19570   0.49010   0.79980   0.01267  Uiso   1.00
S24    S     0.22930   0.76060   0.32950   0.01267  Uiso   1.00
S25    S     0.76450   0.78250   0.16380   0.01267  Uiso   1.00
S26    S     0.68510   0.01230   0.21045   0.01267  Uiso   1.00
S27    S     0.50060   0.81440   0.21987   0.01267  Uiso   1.00
S28    S     0.56630   0.90650   0.03592   0.01267  Uiso   1.00
S29    S     0.93270   0.09690   0.53357   0.01267  Uiso   1.00
S30    S     0.98270   0.85030   0.26905   0.01267  Uiso   1.00
S31    S     0.80430   0.99010   0.70020   0.01267  Uiso   1.00
S32    S     0.77070   0.26060   0.17050   0.01267  Uiso   1.00
N1     N     0.75420   0.29500   0.53470   0.01267  Uiso   1.00
N2     N     0.68830   0.48030   0.48730   0.01267  Uiso   1.00
N3     N     0.36750   0.66490   0.61860   0.01267  Uiso   1.00
N4     N     0.79340   0.44810   0.33440   0.01267  Uiso   1.00
N5     N     0.69020   0.54960   0.84530   0.01267  Uiso   1.00
N6     N     0.85390   0.66190   0.87260   0.01267  Uiso   1.00
N7     N     0.81830   0.53270   0.99290   0.01267  Uiso   1.00
N8     N     0.76130   0.78010   0.53070   0.01267  Uiso   1.00
N9     N     0.24580   0.79500   0.96530   0.01267  Uiso   1.00
N10    N     0.31170   0.98030   0.01270   0.01267  Uiso   1.00
N11    N     0.63250   0.16490   0.88140   0.01267  Uiso   1.00
N12    N     0.20660   0.94810   0.16560   0.01267  Uiso   1.00
N13    N     0.30980   0.04960   0.65470   0.01267  Uiso   1.00
N14    N     0.14610   0.16190   0.62740   0.01267  Uiso   1.00
N15    N     0.18170   0.03270   0.50710   0.01267  Uiso   1.00
N16    N     0.23870   0.28010   0.96930   0.01267  Uiso   1.00
N17    N     0.24580   0.70500   0.46530   0.01267  Uiso   1.00
N18    N     0.31170   0.51970   0.51270   0.01267  Uiso   1.00
N19    N     0.63250   0.33510   0.38140   0.01267  Uiso   1.00
N20    N     0.20660   0.55190   0.66560   0.01267  Uiso   1.00
N21    N     0.30980   0.45040   0.15470   0.01267  Uiso   1.00
N22    N     0.14610   0.33810   0.12740   0.01267  Uiso   1.00
N23    N     0.18170   0.46730   0.00710   0.01267  Uiso   1.00
N24    N     0.23870   0.21990   0.46930   0.01267  Uiso   1.00
N25    N     0.75420   0.20500   0.03470   0.01267  Uiso   1.00
N26    N     0.68830   0.01970   0.98730   0.01267  Uiso   1.00
N27    N     0.36750   0.83510   0.11860   0.01267  Uiso   1.00
N28    N     0.79340   0.05190   0.83440   0.01267  Uiso   1.00
N29    N     0.69020   0.95040   0.34530   0.01267  Uiso   1.00
N30    N     0.85390   0.83810   0.37260   0.01267  Uiso   1.00
N31    N     0.81830   0.96730   0.49290   0.01267  Uiso   1.00
N32    N     0.76130   0.71990   0.03070   0.01267  Uiso   1.00
