data_IFOSIG_clean
_audit_creation_date              2014-07-02
_audit_creation_method            'Materials Studio'
_symmetry_space_group_name_H-M    'P1'
_symmetry_Int_Tables_number       1
_symmetry_cell_setting            triclinic
loop_
_symmetry_equiv_pos_as_xyz
  x,y,z
_cell_length_a                    9.1034
_cell_length_b                    9.1034
_cell_length_c                    25.4708
_cell_angle_alpha                 90.0000
_cell_angle_beta                  90.0000
_cell_angle_gamma                 120.0000
loop_
_atom_site_label
_atom_site_type_symbol
_atom_site_fract_x
_atom_site_fract_y
_atom_site_fract_z
_atom_site_U_iso_or_equiv
_atom_site_adp_type
_atom_site_occupancy
Ce1    Ce    0.50013   0.50013   0.33333   0.01267  Uiso   1.00
Ce2    Ce    0.00000   0.49987   0.66667   0.01267  Uiso   1.00
Ce3    Ce    0.49987   0.00000   0.00000   0.01267  Uiso   1.00
Zr1    Zr    0.99994   0.00000   0.50000   0.01267  Uiso   1.00
Zr2    Zr    0.00006   0.00006   0.83333   0.01267  Uiso   1.00
Zr3    Zr    0.00000   0.99994   0.16667   0.01267  Uiso   1.00
C1     C     0.15440   0.24100   0.40840   0.01267  Uiso   1.00
C2     C     0.30440   0.23550   0.43380   0.01267  Uiso   1.00
C3     C     0.69810   0.76760   0.43340   0.01267  Uiso   1.00
C4     C     0.84480   0.75370   0.40950   0.01267  Uiso   1.00
C5     C     0.08660   0.84560   0.74173   0.01267  Uiso   1.00
C6     C     0.93110   0.69560   0.76713   0.01267  Uiso   1.00
C7     C     0.06950   0.30190   0.76673   0.01267  Uiso   1.00
C8     C     0.90890   0.15520   0.74283   0.01267  Uiso   1.00
C9     C     0.75900   0.91340   0.07507   0.01267  Uiso   1.00
C10    C     0.76450   0.06890   0.10047   0.01267  Uiso   1.00
C11    C     0.23240   0.93050   0.10007   0.01267  Uiso   1.00
C12    C     0.24630   0.09110   0.07617   0.01267  Uiso   1.00
C13    C     0.91340   0.75900   0.59160   0.01267  Uiso   1.00
C14    C     0.06890   0.76450   0.56620   0.01267  Uiso   1.00
C15    C     0.93050   0.23240   0.56660   0.01267  Uiso   1.00
C16    C     0.09110   0.24630   0.59050   0.01267  Uiso   1.00
C17    C     0.24100   0.15440   0.25827   0.01267  Uiso   1.00
C18    C     0.23550   0.30440   0.23287   0.01267  Uiso   1.00
C19    C     0.76760   0.69810   0.23327   0.01267  Uiso   1.00
C20    C     0.75370   0.84480   0.25717   0.01267  Uiso   1.00
C21    C     0.84560   0.08660   0.92493   0.01267  Uiso   1.00
C22    C     0.69560   0.93110   0.89953   0.01267  Uiso   1.00
C23    C     0.30190   0.06950   0.89993   0.01267  Uiso   1.00
C24    C     0.15520   0.90890   0.92383   0.01267  Uiso   1.00
O1     O     0.18830   0.33630   0.36970   0.01267  Uiso   1.00
O2     O     0.44800   0.31700   0.41550   0.01267  Uiso   1.00
O3     O     0.01440   0.16030   0.43190   0.01267  Uiso   1.00
O4     O     0.26430   0.13890   0.47310   0.01267  Uiso   1.00
O5     O     0.73620   0.86070   0.47400   0.01267  Uiso   1.00
O6     O     0.98650   0.83720   0.43230   0.01267  Uiso   1.00
O7     O     0.55380   0.68360   0.41480   0.01267  Uiso   1.00
O8     O     0.81280   0.66630   0.36850   0.01267  Uiso   1.00
O9     O     0.14800   0.81170   0.70303   0.01267  Uiso   1.00
O10    O     0.86900   0.55200   0.74883   0.01267  Uiso   1.00
O11    O     0.14590   0.98560   0.76523   0.01267  Uiso   1.00
O12    O     0.87460   0.73570   0.80643   0.01267  Uiso   1.00
O13    O     0.12450   0.26380   0.80733   0.01267  Uiso   1.00
O14    O     0.85070   0.01350   0.76563   0.01267  Uiso   1.00
O15    O     0.12980   0.44620   0.74813   0.01267  Uiso   1.00
O16    O     0.85350   0.18720   0.70183   0.01267  Uiso   1.00
O17    O     0.66370   0.85200   0.03637   0.01267  Uiso   1.00
O18    O     0.68300   0.13100   0.08217   0.01267  Uiso   1.00
O19    O     0.83970   0.85410   0.09857   0.01267  Uiso   1.00
O20    O     0.86110   0.12540   0.13977   0.01267  Uiso   1.00
O21    O     0.13930   0.87550   0.14067   0.01267  Uiso   1.00
O22    O     0.16280   0.14930   0.09897   0.01267  Uiso   1.00
O23    O     0.31640   0.87020   0.08147   0.01267  Uiso   1.00
O24    O     0.33370   0.14650   0.03517   0.01267  Uiso   1.00
O25    O     0.85200   0.66370   0.63030   0.01267  Uiso   1.00
O26    O     0.13100   0.68300   0.58450   0.01267  Uiso   1.00
O27    O     0.85410   0.83970   0.56810   0.01267  Uiso   1.00
O28    O     0.12540   0.86110   0.52690   0.01267  Uiso   1.00
O29    O     0.87550   0.13930   0.52600   0.01267  Uiso   1.00
O30    O     0.14930   0.16280   0.56770   0.01267  Uiso   1.00
O31    O     0.87020   0.31640   0.58520   0.01267  Uiso   1.00
O32    O     0.14650   0.33370   0.63150   0.01267  Uiso   1.00
O33    O     0.33630   0.18830   0.29697   0.01267  Uiso   1.00
O34    O     0.31700   0.44800   0.25117   0.01267  Uiso   1.00
O35    O     0.16030   0.01440   0.23477   0.01267  Uiso   1.00
O36    O     0.13890   0.26430   0.19357   0.01267  Uiso   1.00
O37    O     0.86070   0.73620   0.19267   0.01267  Uiso   1.00
O38    O     0.83720   0.98650   0.23437   0.01267  Uiso   1.00
O39    O     0.68360   0.55380   0.25187   0.01267  Uiso   1.00
O40    O     0.66630   0.81280   0.29817   0.01267  Uiso   1.00
O41    O     0.81170   0.14800   0.96363   0.01267  Uiso   1.00
O42    O     0.55200   0.86900   0.91783   0.01267  Uiso   1.00
O43    O     0.98560   0.14590   0.90143   0.01267  Uiso   1.00
O44    O     0.73570   0.87460   0.86023   0.01267  Uiso   1.00
O45    O     0.26380   0.12450   0.85933   0.01267  Uiso   1.00
O46    O     0.01350   0.85070   0.90103   0.01267  Uiso   1.00
O47    O     0.44620   0.12980   0.91853   0.01267  Uiso   1.00
O48    O     0.18720   0.85350   0.96483   0.01267  Uiso   1.00
