data_IFUDAO_charged
_audit_creation_date              2014-07-02
_audit_creation_method            'Materials Studio'
_symmetry_space_group_name_H-M    'P1'
_symmetry_Int_Tables_number       1
_symmetry_cell_setting            triclinic
loop_
_symmetry_equiv_pos_as_xyz
  x,y,z
_cell_length_a                    9.0610
_cell_length_b                    9.0610
_cell_length_c                    23.3940
_cell_angle_alpha                 90.0000
_cell_angle_beta                  90.0000
_cell_angle_gamma                 120.0000
loop_
_atom_site_label
_atom_site_type_symbol
_atom_site_fract_x
_atom_site_fract_y
_atom_site_fract_z
_atom_site_U_iso_or_equiv
_atom_site_adp_type
_atom_site_occupancy
Zr1    Zr    0.50000   0.50000   0.50000   0.01267  Uiso   1.00
Zr2    Zr    1.00000   0.50000   0.16667   0.01267  Uiso   1.00
Zr3    Zr    0.50000  -0.00000   0.83333   0.01267  Uiso   1.00
Cd1    Cd    1.00000   0.50000   0.66667   0.01267  Uiso   1.00
Cd2    Cd    0.50000  -0.00000   0.33333   0.01267  Uiso   1.00
Cd3    Cd    0.50000   0.50000   0.00000   0.01267  Uiso   1.00
C1     C     0.20840   0.41930   0.58143   0.01267  Uiso   1.00
C2     C     0.31460   0.61570   0.58237   0.01267  Uiso   1.00
C3     C     0.21090   0.79160   0.24810   0.01267  Uiso   1.00
C4     C     0.30110   0.68540   0.24904   0.01267  Uiso   1.00
C5     C     0.58070   0.78910   0.91476   0.01267  Uiso   1.00
C6     C     0.38430   0.69890   0.91570   0.01267  Uiso   1.00
C7     C     0.79160   0.58070   0.58143   0.01267  Uiso   1.00
C8     C     0.68540   0.38430   0.58237   0.01267  Uiso   1.00
C9     C     0.78910   0.20840   0.24810   0.01267  Uiso   1.00
C10    C     0.69890   0.31460   0.24904   0.01267  Uiso   1.00
C11    C     0.41930   0.21090   0.91476   0.01267  Uiso   1.00
C12    C     0.61570   0.30110   0.91570   0.01267  Uiso   1.00
C13    C     0.78910   0.58070   0.08524   0.01267  Uiso   1.00
C14    C     0.69890   0.38430   0.08430   0.01267  Uiso   1.00
C15    C     0.41930   0.20840   0.41857   0.01267  Uiso   1.00
C16    C     0.61570   0.31460   0.41763   0.01267  Uiso   1.00
C17    C     0.79160   0.21090   0.75190   0.01267  Uiso   1.00
C18    C     0.68540   0.30110   0.75096   0.01267  Uiso   1.00
C19    C     0.21090   0.41930   0.08524   0.01267  Uiso   1.00
C20    C     0.30110   0.61570   0.08430   0.01267  Uiso   1.00
C21    C     0.58070   0.79160   0.41857   0.01267  Uiso   1.00
C22    C     0.38430   0.68540   0.41763   0.01267  Uiso   1.00
C23    C     0.20840   0.78910   0.75190   0.01267  Uiso   1.00
C24    C     0.31460   0.69890   0.75096   0.01267  Uiso   1.00
O1     O     0.08010   0.34300   0.61101   0.01267  Uiso   1.00
O2     O     0.26560   0.34880   0.54784   0.01267  Uiso   1.00
O3     O     0.45390   0.67480   0.55424   0.01267  Uiso   1.00
O4     O     0.26120   0.69660   0.60866   0.01267  Uiso   1.00
O5     O     0.26290   0.91990   0.27768   0.01267  Uiso   1.00
O6     O     0.08320   0.73440   0.21451   0.01267  Uiso   1.00
O7     O     0.22090   0.54610   0.22091   0.01267  Uiso   1.00
O8     O     0.43540   0.73880   0.27533   0.01267  Uiso   1.00
O9     O     0.65700   0.73710   0.94434   0.01267  Uiso   1.00
O10    O     0.65120   0.91680   0.88117   0.01267  Uiso   1.00
O11    O     0.32520   0.77910   0.88757   0.01267  Uiso   1.00
O12    O     0.30340   0.56460   0.94199   0.01267  Uiso   1.00
O13    O     0.91990   0.65700   0.61101   0.01267  Uiso   1.00
O14    O     0.73440   0.65120   0.54784   0.01267  Uiso   1.00
O15    O     0.54610   0.32520   0.55424   0.01267  Uiso   1.00
O16    O     0.73880   0.30340   0.60866   0.01267  Uiso   1.00
O17    O     0.73710   0.08010   0.27768   0.01267  Uiso   1.00
O18    O     0.91680   0.26560   0.21451   0.01267  Uiso   1.00
O19    O     0.77910   0.45390   0.22091   0.01267  Uiso   1.00
O20    O     0.56460   0.26120   0.27533   0.01267  Uiso   1.00
O21    O     0.34300   0.26290   0.94434   0.01267  Uiso   1.00
O22    O     0.34880   0.08320   0.88117   0.01267  Uiso   1.00
O23    O     0.67480   0.22090   0.88757   0.01267  Uiso   1.00
O24    O     0.69660   0.43540   0.94199   0.01267  Uiso   1.00
O25    O     0.73710   0.65700   0.05566   0.01267  Uiso   1.00
O26    O     0.91680   0.65120   0.11883   0.01267  Uiso   1.00
O27    O     0.77910   0.32520   0.11243   0.01267  Uiso   1.00
O28    O     0.56460   0.30340   0.05801   0.01267  Uiso   1.00
O29    O     0.34300   0.08010   0.38899   0.01267  Uiso   1.00
O30    O     0.34880   0.26560   0.45216   0.01267  Uiso   1.00
O31    O     0.67480   0.45390   0.44576   0.01267  Uiso   1.00
O32    O     0.69660   0.26120   0.39134   0.01267  Uiso   1.00
O33    O     0.91990   0.26290   0.72232   0.01267  Uiso   1.00
O34    O     0.73440   0.08320   0.78549   0.01267  Uiso   1.00
O35    O     0.54610   0.22090   0.77909   0.01267  Uiso   1.00
O36    O     0.73880   0.43540   0.72467   0.01267  Uiso   1.00
O37    O     0.26290   0.34300   0.05566   0.01267  Uiso   1.00
O38    O     0.08320   0.34880   0.11883   0.01267  Uiso   1.00
O39    O     0.22090   0.67480   0.11243   0.01267  Uiso   1.00
O40    O     0.43540   0.69660   0.05801   0.01267  Uiso   1.00
O41    O     0.65700   0.91990   0.38899   0.01267  Uiso   1.00
O42    O     0.65120   0.73440   0.45216   0.01267  Uiso   1.00
O43    O     0.32520   0.54610   0.44576   0.01267  Uiso   1.00
O44    O     0.30340   0.73880   0.39134   0.01267  Uiso   1.00
O45    O     0.08010   0.73710   0.72232   0.01267  Uiso   1.00
O46    O     0.26560   0.91680   0.78549   0.01267  Uiso   1.00
O47    O     0.45390   0.77910   0.77909   0.01267  Uiso   1.00
O48    O     0.26120   0.56460   0.72467   0.01267  Uiso   1.00
H1     H     0.92100   0.02100   0.64230   0.01267  Uiso   1.00
H2     H     0.07900   0.97900   0.64230   0.01267  Uiso   1.00
H3     H     0.07900   0.10000   0.69103   0.01267  Uiso   1.00
H4     H     0.92100   0.90000   0.69103   0.01267  Uiso   1.00
N1     N     0.00000   0.00000   0.66667   0.01267  Uiso   1.00
H5     H     0.10020   0.02580   0.52440   0.01267  Uiso   1.00
H6     H     0.89980   0.97420   0.52440   0.01267  Uiso   1.00
H7     H     0.02580   0.10020   0.47560   0.01267  Uiso   1.00
H8     H     0.97420   0.89980   0.47560   0.01267  Uiso   1.00
N2     N     0.00000   0.00000   0.50000   0.01267  Uiso   1.00
H9     H     0.10000   0.07900   0.30897   0.01267  Uiso   1.00
H10    H     0.90000   0.92100   0.30897   0.01267  Uiso   1.00
H11    H     0.02100   0.92100   0.35770   0.01267  Uiso   1.00
H12    H     0.97900   0.07900   0.35770   0.01267  Uiso   1.00
N3     N     0.00000   0.00000   0.33333   0.01267  Uiso   1.00
H13    H     0.92560   0.89980   0.19107   0.01267  Uiso   1.00
H14    H     0.07440   0.10020   0.19107   0.01267  Uiso   1.00
H15    H     0.07440   0.97420   0.14227   0.01267  Uiso   1.00
H16    H     0.92560   0.02580   0.14227   0.01267  Uiso   1.00
N4     N     0.00000   0.00000   0.16667   0.01267  Uiso   1.00
H17    H     0.97900   0.90000   0.97563   0.01267  Uiso   1.00
H18    H     0.02100   0.10000   0.97563   0.01267  Uiso   1.00
H19    H     0.90000   0.97900   0.02437   0.01267  Uiso   1.00
H20    H     0.10000   0.02100   0.02437   0.01267  Uiso   1.00
N5     N     0.00000   0.00000   0.00000   0.01267  Uiso   1.00
H21    H     0.97420   0.07440   0.85773   0.01267  Uiso   1.00
H22    H     0.02580   0.92560   0.85773   0.01267  Uiso   1.00
H23    H     0.89980   0.92560   0.80893   0.01267  Uiso   1.00
H24    H     0.10020   0.07440   0.80893   0.01267  Uiso   1.00
N6     N     0.00000   0.00000   0.83333   0.01267  Uiso   1.00
