data_IFUDES_charged
_audit_creation_date              2014-07-02
_audit_creation_method            'Materials Studio'
_symmetry_space_group_name_H-M    'P1'
_symmetry_Int_Tables_number       1
_symmetry_cell_setting            triclinic
loop_
_symmetry_equiv_pos_as_xyz
  x,y,z
_cell_length_a                    9.1050
_cell_length_b                    9.1050
_cell_length_c                    23.6560
_cell_angle_alpha                 90.0000
_cell_angle_beta                  90.0000
_cell_angle_gamma                 120.0000
loop_
_atom_site_label
_atom_site_type_symbol
_atom_site_fract_x
_atom_site_fract_y
_atom_site_fract_z
_atom_site_U_iso_or_equiv
_atom_site_adp_type
_atom_site_occupancy
Zr1    Zr    0.14872   0.85129   0.83333   0.01267  Uiso   1.00
Zr2    Zr    0.70257   0.85129   0.50000   0.01267  Uiso   1.00
Zr3    Zr    0.14872   0.29744   0.16667   0.01267  Uiso   1.00
Cd1    Cd    0.18669   0.37338   0.66667   0.01267  Uiso   1.00
Cd2    Cd    0.18669   0.81331   0.33333   0.01267  Uiso   1.00
Cd3    Cd    0.62662   0.81331   0.00000   0.01267  Uiso   1.00
C1     C     0.28270   0.68140   0.75191   0.01267  Uiso   1.00
C2     C     0.08910   0.57520   0.74852   0.01267  Uiso   1.00
C3     C     0.91180   0.15000   0.57813   0.01267  Uiso   1.00
C4     C     0.00040   0.04570   0.58278   0.01267  Uiso   1.00
C5     C     0.39870   0.71730   0.41858   0.01267  Uiso   1.00
C6     C     0.48610   0.91090   0.41519   0.01267  Uiso   1.00
C7     C     0.23820   0.08820   0.24480   0.01267  Uiso   1.00
C8     C     0.04530   0.99960   0.24945   0.01267  Uiso   1.00
C9     C     0.31860   0.60130   0.08524   0.01267  Uiso   1.00
C10    C     0.42480   0.51390   0.08185   0.01267  Uiso   1.00
C11    C     0.85000   0.76180   0.91146   0.01267  Uiso   1.00
C12    C     0.95430   0.95470   0.91611   0.01267  Uiso   1.00
C13    C     0.39870   0.68140   0.58142   0.01267  Uiso   1.00
C14    C     0.48610   0.57520   0.58481   0.01267  Uiso   1.00
C15    C     0.23820   0.15000   0.75520   0.01267  Uiso   1.00
C16    C     0.04530   0.04570   0.75055   0.01267  Uiso   1.00
C17    C     0.31860   0.71730   0.91476   0.01267  Uiso   1.00
C18    C     0.42480   0.91090   0.91815   0.01267  Uiso   1.00
C19    C     0.85000   0.08820   0.08854   0.01267  Uiso   1.00
C20    C     0.95430   0.99960   0.08389   0.01267  Uiso   1.00
C21    C     0.28270   0.60130   0.24809   0.01267  Uiso   1.00
C22    C     0.08910   0.51390   0.25148   0.01267  Uiso   1.00
C23    C     0.91180   0.76180   0.42187   0.01267  Uiso   1.00
C24    C     0.00040   0.95470   0.41722   0.01267  Uiso   1.00
O1     O     0.33630   0.81160   0.78271   0.01267  Uiso   1.00
O2     O     0.36690   0.63230   0.72547   0.01267  Uiso   1.00
O3     O     0.31930   0.28030   0.72649   0.01267  Uiso   1.00
O4     O     0.01080   0.62570   0.78096   0.01267  Uiso   1.00
O5     O     0.02120   0.45300   0.71619   0.01267  Uiso   1.00
O6     O     0.92640   0.90590   0.55421   0.01267  Uiso   1.00
O7     O     0.97060   0.09860   0.72093   0.01267  Uiso   1.00
O8     O     0.78770   0.09220   0.54442   0.01267  Uiso   1.00
O9     O     0.47530   0.66370   0.44938   0.01267  Uiso   1.00
O10    O     0.26540   0.63310   0.39214   0.01267  Uiso   1.00
O11    O     0.96100   0.68070   0.39316   0.01267  Uiso   1.00
O12    O     0.61490   0.98920   0.44763   0.01267  Uiso   1.00
O13    O     0.43180   0.97880   0.38286   0.01267  Uiso   1.00
O14    O     0.97950   0.07360   0.22088   0.01267  Uiso   1.00
O15    O     0.12800   0.02940   0.38760   0.01267  Uiso   1.00
O16    O     0.30450   0.21230   0.21109   0.01267  Uiso   1.00
O17    O     0.18840   0.52470   0.11604   0.01267  Uiso   1.00
O18    O     0.36770   0.73460   0.05880   0.01267  Uiso   1.00
O19    O     0.71970   0.03900   0.05982   0.01267  Uiso   1.00
O20    O     0.37430   0.38510   0.11429   0.01267  Uiso   1.00
O21    O     0.54700   0.56820   0.04952   0.01267  Uiso   1.00
O22    O     0.09410   0.02050   0.88754   0.01267  Uiso   1.00
O23    O     0.90140   0.87200   0.05426   0.01267  Uiso   1.00
O24    O     0.90780   0.69550   0.87775   0.01267  Uiso   1.00
O25    O     0.47530   0.81160   0.55062   0.01267  Uiso   1.00
O26    O     0.26540   0.63230   0.60786   0.01267  Uiso   1.00
O27    O     0.96100   0.28030   0.60684   0.01267  Uiso   1.00
O28    O     0.61490   0.62570   0.55237   0.01267  Uiso   1.00
O29    O     0.43180   0.45300   0.61714   0.01267  Uiso   1.00
O30    O     0.97950   0.90590   0.77912   0.01267  Uiso   1.00
O31    O     0.12800   0.09860   0.61240   0.01267  Uiso   1.00
O32    O     0.30450   0.09220   0.78891   0.01267  Uiso   1.00
O33    O     0.18840   0.66370   0.88396   0.01267  Uiso   1.00
O34    O     0.36770   0.63310   0.94120   0.01267  Uiso   1.00
O35    O     0.71970   0.68070   0.94018   0.01267  Uiso   1.00
O36    O     0.37430   0.98920   0.88571   0.01267  Uiso   1.00
O37    O     0.54700   0.97880   0.95048   0.01267  Uiso   1.00
O38    O     0.09410   0.07360   0.11246   0.01267  Uiso   1.00
O39    O     0.90140   0.02940   0.94574   0.01267  Uiso   1.00
O40    O     0.90780   0.21230   0.12225   0.01267  Uiso   1.00
O41    O     0.33630   0.52470   0.21729   0.01267  Uiso   1.00
O42    O     0.36690   0.73460   0.27453   0.01267  Uiso   1.00
O43    O     0.31930   0.03900   0.27351   0.01267  Uiso   1.00
O44    O     0.01080   0.38510   0.21904   0.01267  Uiso   1.00
O45    O     0.02120   0.56820   0.28381   0.01267  Uiso   1.00
O46    O     0.92640   0.02050   0.44579   0.01267  Uiso   1.00
O47    O     0.97060   0.87200   0.27907   0.01267  Uiso   1.00
O48    O     0.78770   0.69550   0.45558   0.01267  Uiso   1.00
H1     H     0.55690   0.08110   0.71430   0.01267  Uiso   1.00
H2     H     0.73980   0.19350   0.68980   0.01267  Uiso   1.00
H3     H     0.54500   0.32840   0.73790   0.01267  Uiso   1.00
H4     H     0.74410   0.44230   0.71550   0.01267  Uiso   1.00
H5     H     0.69920   0.31680   0.77160   0.01267  Uiso   1.00
H6     H     0.52420   0.08110   0.61903   0.01267  Uiso   1.00
H7     H     0.45370   0.19350   0.64353   0.01267  Uiso   1.00
H8     H     0.78340   0.32840   0.59543   0.01267  Uiso   1.00
H9     H     0.69820   0.44230   0.61783   0.01267  Uiso   1.00
H10    H     0.61760   0.31680   0.56173   0.01267  Uiso   1.00
C25    C     0.63140   0.18750   0.69550   0.01267  Uiso   1.00
C26    C     0.55610   0.18750   0.63783   0.01267  Uiso   1.00
N1     N     0.65700   0.33010   0.73310   0.01267  Uiso   1.00
N2     N     0.67310   0.33010   0.60023   0.01267  Uiso   1.00
H11    H     0.52420   0.44310   0.38097   0.01267  Uiso   1.00
H12    H     0.45370   0.26020   0.35647   0.01267  Uiso   1.00
H13    H     0.78340   0.45500   0.40457   0.01267  Uiso   1.00
H14    H     0.69820   0.25590   0.38217   0.01267  Uiso   1.00
H15    H     0.61760   0.30080   0.43827   0.01267  Uiso   1.00
H16    H     0.55690   0.47580   0.28570   0.01267  Uiso   1.00
H17    H     0.73980   0.54630   0.31020   0.01267  Uiso   1.00
H18    H     0.54500   0.21660   0.26210   0.01267  Uiso   1.00
H19    H     0.74410   0.30180   0.28450   0.01267  Uiso   1.00
H20    H     0.69920   0.38240   0.22840   0.01267  Uiso   1.00
C27    C     0.55610   0.36860   0.36217   0.01267  Uiso   1.00
C28    C     0.63140   0.44390   0.30450   0.01267  Uiso   1.00
N3     N     0.67310   0.34300   0.39977   0.01267  Uiso   1.00
N4     N     0.65700   0.32690   0.26690   0.01267  Uiso   1.00
H21    H     0.91890   0.47580   0.04763   0.01267  Uiso   1.00
H22    H     0.80650   0.54630   0.02313   0.01267  Uiso   1.00
H23    H     0.67160   0.21660   0.07123   0.01267  Uiso   1.00
H24    H     0.55770   0.30180   0.04883   0.01267  Uiso   1.00
H25    H     0.68320   0.38240   0.10493   0.01267  Uiso   1.00
H26    H     0.91890   0.44310   0.95237   0.01267  Uiso   1.00
H27    H     0.80650   0.26020   0.97687   0.01267  Uiso   1.00
H28    H     0.67160   0.45500   0.92877   0.01267  Uiso   1.00
H29    H     0.55770   0.25590   0.95117   0.01267  Uiso   1.00
H30    H     0.68320   0.30080   0.89507   0.01267  Uiso   1.00
C29    C     0.81250   0.44390   0.02883   0.01267  Uiso   1.00
C30    C     0.81250   0.36860   0.97117   0.01267  Uiso   1.00
N5     N     0.66990   0.32690   0.06643   0.01267  Uiso   1.00
N6     N     0.66990   0.34300   0.93357   0.01267  Uiso   1.00
