data_IFUNUU_clean
_audit_creation_date              2014-07-02
_audit_creation_method            'Materials Studio'
_symmetry_space_group_name_H-M    'P1'
_symmetry_Int_Tables_number       1
_symmetry_cell_setting            triclinic
loop_
_symmetry_equiv_pos_as_xyz
  x,y,z
_cell_length_a                    12.9653
_cell_length_b                    13.9060
_cell_length_c                    14.6200
_cell_angle_alpha                 95.9483
_cell_angle_beta                  90.0000
_cell_angle_gamma                 117.7860
loop_
_atom_site_label
_atom_site_type_symbol
_atom_site_fract_x
_atom_site_fract_y
_atom_site_fract_z
_atom_site_U_iso_or_equiv
_atom_site_adp_type
_atom_site_occupancy
Tb1    Tb    0.46749   0.34548   0.46790   0.01267  Uiso   1.00
Tb2    Tb    0.12201   0.65452   0.03210   0.01267  Uiso   1.00
Tb3    Tb    0.53251   0.65452   0.53210   0.01267  Uiso   1.00
Tb4    Tb    0.87799   0.34548   0.96790   0.01267  Uiso   1.00
H1     H     0.33060   0.26280   0.72830   0.01267  Uiso   1.00
H2     H     0.31830   0.54360   0.79010   0.01267  Uiso   1.00
H3     H     0.13380   0.28660   0.93150   0.01267  Uiso   1.00
H4     H     0.33750   0.00120   0.89120   0.01267  Uiso   1.00
H5     H     0.04000   0.09200   0.88470   0.01267  Uiso   1.00
H6     H     0.00830   0.92620   0.93510   0.01267  Uiso   1.00
H7     H     0.52300   0.19280   0.40920   0.01267  Uiso   1.00
H8     H     0.06780   0.73720   0.77170   0.01267  Uiso   1.00
H9     H     0.77470   0.45640   0.70990   0.01267  Uiso   1.00
H10    H     0.84720   0.71340   0.56850   0.01267  Uiso   1.00
H11    H     0.33630   0.99880   0.60880   0.01267  Uiso   1.00
H12    H     0.94800   0.90800   0.61530   0.01267  Uiso   1.00
H13    H     0.08210   0.07380   0.56490   0.01267  Uiso   1.00
H14    H     0.33020   0.80720   0.09080   0.01267  Uiso   1.00
H15    H     0.66940   0.73720   0.27170   0.01267  Uiso   1.00
H16    H     0.68170   0.45640   0.20990   0.01267  Uiso   1.00
H17    H     0.86620   0.71340   0.06850   0.01267  Uiso   1.00
H18    H     0.66250   0.99880   0.10880   0.01267  Uiso   1.00
H19    H     0.96000   0.90800   0.11530   0.01267  Uiso   1.00
H20    H     0.99170   0.07380   0.06490   0.01267  Uiso   1.00
H21    H     0.47700   0.80720   0.59080   0.01267  Uiso   1.00
H22    H     0.93220   0.26280   0.22830   0.01267  Uiso   1.00
H23    H     0.22530   0.54360   0.29010   0.01267  Uiso   1.00
H24    H     0.15280   0.28660   0.43150   0.01267  Uiso   1.00
H25    H     0.66370   0.00120   0.39120   0.01267  Uiso   1.00
H26    H     0.05200   0.09200   0.38470   0.01267  Uiso   1.00
H27    H     0.91790   0.92620   0.43510   0.01267  Uiso   1.00
H28    H     0.66980   0.19280   0.90920   0.01267  Uiso   1.00
C1     C     0.23290   0.25680   0.83680   0.01267  Uiso   1.00
C2     C     0.30240   0.30340   0.76470   0.01267  Uiso   1.00
C3     C     0.33080   0.40760   0.74530   0.01267  Uiso   1.00
C4     C     0.29390   0.47140   0.80000   0.01267  Uiso   1.00
C5     C     0.21910   0.42600   0.87090   0.01267  Uiso   1.00
C6     C     0.18670   0.31800   0.88700   0.01267  Uiso   1.00
C7     C     0.21030   0.14780   0.86090   0.01267  Uiso   1.00
C8     C     0.29330   0.11480   0.86080   0.01267  Uiso   1.00
C9     C     0.27650   0.01880   0.89110   0.01267  Uiso   1.00
C10    C     0.10120   0.07480   0.88710   0.01267  Uiso   1.00
C11    C     0.40460   0.45160   0.66450   0.01267  Uiso   1.00
C12    C     0.15190   0.84680   0.96070   0.01267  Uiso   1.00
C13    C     0.17130   0.94920   0.92110   0.01267  Uiso   1.00
C14    C     0.08180   0.97460   0.91760   0.01267  Uiso   1.00
C15    C     0.17760   0.49340   0.92890   0.01267  Uiso   1.00
C16    C     0.97610   0.74320   0.66320   0.01267  Uiso   1.00
C17    C     0.99900   0.69660   0.73530   0.01267  Uiso   1.00
C18    C     0.92320   0.59240   0.75470   0.01267  Uiso   1.00
C19    C     0.82250   0.52860   0.70000   0.01267  Uiso   1.00
C20    C     0.79310   0.57400   0.62910   0.01267  Uiso   1.00
C21    C     0.86870   0.68200   0.61300   0.01267  Uiso   1.00
C22    C     0.06250   0.85220   0.63910   0.01267  Uiso   1.00
C23    C     0.17850   0.88520   0.63920   0.01267  Uiso   1.00
C24    C     0.25770   0.98120   0.60890   0.01267  Uiso   1.00
C25    C     0.02640   0.92520   0.61290   0.01267  Uiso   1.00
C26    C     0.95300   0.54840   0.83550   0.01267  Uiso   1.00
C27    C     0.30510   0.15320   0.53930   0.01267  Uiso   1.00
C28    C     0.22210   0.05080   0.57890   0.01267  Uiso   1.00
C29    C     0.10720   0.02540   0.58240   0.01267  Uiso   1.00
C30    C     0.68420   0.50660   0.57110   0.01267  Uiso   1.00
C31    C     0.76710   0.74320   0.16320   0.01267  Uiso   1.00
C32    C     0.69760   0.69660   0.23530   0.01267  Uiso   1.00
C33    C     0.66920   0.59240   0.25470   0.01267  Uiso   1.00
C34    C     0.70610   0.52860   0.20000   0.01267  Uiso   1.00
C35    C     0.78090   0.57400   0.12910   0.01267  Uiso   1.00
C36    C     0.81330   0.68200   0.11300   0.01267  Uiso   1.00
C37    C     0.78970   0.85220   0.13910   0.01267  Uiso   1.00
C38    C     0.70670   0.88520   0.13920   0.01267  Uiso   1.00
C39    C     0.72350   0.98120   0.10890   0.01267  Uiso   1.00
C40    C     0.89880   0.92520   0.11290   0.01267  Uiso   1.00
C41    C     0.59540   0.54840   0.33550   0.01267  Uiso   1.00
C42    C     0.84810   0.15320   0.03930   0.01267  Uiso   1.00
C43    C     0.82870   0.05080   0.07890   0.01267  Uiso   1.00
C44    C     0.91820   0.02540   0.08240   0.01267  Uiso   1.00
C45    C     0.82240   0.50660   0.07110   0.01267  Uiso   1.00
C46    C     0.02390   0.25680   0.33680   0.01267  Uiso   1.00
C47    C     0.00100   0.30340   0.26470   0.01267  Uiso   1.00
C48    C     0.07680   0.40760   0.24530   0.01267  Uiso   1.00
C49    C     0.17750   0.47140   0.30000   0.01267  Uiso   1.00
C50    C     0.20690   0.42600   0.37090   0.01267  Uiso   1.00
C51    C     0.13130   0.31800   0.38700   0.01267  Uiso   1.00
C52    C     0.93750   0.14780   0.36090   0.01267  Uiso   1.00
C53    C     0.82150   0.11480   0.36080   0.01267  Uiso   1.00
C54    C     0.74230   0.01880   0.39110   0.01267  Uiso   1.00
C55    C     0.97360   0.07480   0.38710   0.01267  Uiso   1.00
C56    C     0.04700   0.45160   0.16450   0.01267  Uiso   1.00
C57    C     0.69490   0.84680   0.46070   0.01267  Uiso   1.00
C58    C     0.77790   0.94920   0.42110   0.01267  Uiso   1.00
C59    C     0.89280   0.97460   0.41760   0.01267  Uiso   1.00
C60    C     0.31580   0.49340   0.42890   0.01267  Uiso   1.00
O1     O     0.42750   0.54540   0.64810   0.01267  Uiso   1.00
O2     O     0.43700   0.38860   0.62100   0.01267  Uiso   1.00
O3     O     0.24430   0.59520   0.94500   0.01267  Uiso   1.00
O4     O     0.07820   0.44900   0.96060   0.01267  Uiso   1.00
O5     O     0.23420   0.82280   0.96280   0.01267  Uiso   1.00
O6     O     0.05910   0.79140   0.99420   0.01267  Uiso   1.00
O7     O     0.56740   0.25360   0.38980   0.01267  Uiso   1.00
O8     O     0.88210   0.45460   0.85190   0.01267  Uiso   1.00
O9     O     0.04840   0.61140   0.87900   0.01267  Uiso   1.00
O10    O     0.64910   0.40480   0.55500   0.01267  Uiso   1.00
O11    O     0.62920   0.55100   0.53940   0.01267  Uiso   1.00
O12    O     0.41140   0.17720   0.53720   0.01267  Uiso   1.00
O13    O     0.26770   0.20860   0.50580   0.01267  Uiso   1.00
O14    O     0.31380   0.74640   0.11020   0.01267  Uiso   1.00
O15    O     0.57250   0.45460   0.35190   0.01267  Uiso   1.00
O16    O     0.56300   0.61140   0.37900   0.01267  Uiso   1.00
O17    O     0.75570   0.40480   0.05500   0.01267  Uiso   1.00
O18    O     0.92180   0.55100   0.03940   0.01267  Uiso   1.00
O19    O     0.76580   0.17720   0.03720   0.01267  Uiso   1.00
O20    O     0.94090   0.20860   0.00580   0.01267  Uiso   1.00
O21    O     0.43260   0.74640   0.61020   0.01267  Uiso   1.00
O22    O     0.11790   0.54540   0.14810   0.01267  Uiso   1.00
O23    O     0.95160   0.38860   0.12100   0.01267  Uiso   1.00
O24    O     0.35090   0.59520   0.44500   0.01267  Uiso   1.00
O25    O     0.37080   0.44900   0.46060   0.01267  Uiso   1.00
O26    O     0.58860   0.82280   0.46280   0.01267  Uiso   1.00
O27    O     0.73230   0.79140   0.49420   0.01267  Uiso   1.00
O28    O     0.68620   0.25360   0.88980   0.01267  Uiso   1.00
F1     F     0.39670   0.17580   0.82760   0.01267  Uiso   1.00
F2     F     0.22090   0.82420   0.67240   0.01267  Uiso   1.00
F3     F     0.60330   0.82420   0.17240   0.01267  Uiso   1.00
F4     F     0.77910   0.17580   0.32760   0.01267  Uiso   1.00
