data_image0
_cell_length_a       25.8546
_cell_length_b       12.3906
_cell_length_c       13.5382
_cell_angle_alpha    90
_cell_angle_beta     116.417
_cell_angle_gamma    90

_symmetry_space_group_name_H-M    "P 1"
_symmetry_int_tables_number       1

loop_
  _symmetry_equiv_pos_as_xyz
  'x, y, z'

loop_
  _atom_site_label
  _atom_site_occupancy
  _atom_site_fract_x
  _atom_site_fract_y
  _atom_site_fract_z
  _atom_site_thermal_displace_type
  _atom_site_B_iso_or_equiv
  _atom_site_type_symbol
  C1       1.0000 0.91210  0.86040  0.49080  Biso   1.000  C
  C2       1.0000 0.81795  0.69940  0.18940  Biso   1.000  C
  C3       1.0000 0.91540  0.09010  0.79490  Biso   1.000  C
  C4       1.0000 0.80600  0.90350  0.18900  Biso   1.000  C
  C5       1.0000 0.79280  0.87130  0.36400  Biso   1.000  C
  C6       1.0000 0.83451  0.67640  0.40590  Biso   1.000  C
  C7       1.0000 0.92623  0.68890  0.35200  Biso   1.000  C
  N1       1.0000 0.94191  0.88850  0.58000  Biso   1.000  N
  N2       1.0000 0.79985  0.63610  0.11850  Biso   1.000  N
  N3       1.0000 0.94553  0.03020  0.78160  Biso   1.000  N
  N4       1.0000 0.77640  0.95380  0.11120  Biso   1.000  N
  N5       1.0000 0.75798  0.90210  0.38930  Biso   1.000  N
  N6       1.0000 0.82203  0.61060  0.45230  Biso   1.000  N
  N7       1.0000 0.95868  0.61840  0.36590  Biso   1.000  N
  Mn1      1.0000 0.78820  0.48351  0.04126  Biso   1.000  Mn
  Mo1      1.0000 0.85785  0.80568  0.32461  Biso   1.000  Mo
  C8       1.0000 0.41210  0.36040  0.49080  Biso   1.000  C
  C9       1.0000 0.31795  0.19940  0.18940  Biso   1.000  C
  C10      1.0000 0.41540  0.59010  0.79490  Biso   1.000  C
  C11      1.0000 0.30600  0.40350  0.18900  Biso   1.000  C
  C12      1.0000 0.29280  0.37130  0.36400  Biso   1.000  C
  C13      1.0000 0.33451  0.17640  0.40590  Biso   1.000  C
  C14      1.0000 0.42623  0.18890  0.35200  Biso   1.000  C
  N8       1.0000 0.44191  0.38850  0.58000  Biso   1.000  N
  N9       1.0000 0.29985  0.13610  0.11850  Biso   1.000  N
  N10      1.0000 0.44553  0.53020  0.78160  Biso   1.000  N
  N11      1.0000 0.27640  0.45380  0.11120  Biso   1.000  N
  N12      1.0000 0.25798  0.40210  0.38930  Biso   1.000  N
  N13      1.0000 0.32203  0.11060  0.45230  Biso   1.000  N
  N14      1.0000 0.45868  0.11840  0.36590  Biso   1.000  N
  Mn2      1.0000 0.28820  0.98351  0.04126  Biso   1.000  Mn
  Mo2      1.0000 0.35785  0.30568  0.32461  Biso   1.000  Mo
  C15      1.0000 0.08790  0.86040  0.00920  Biso   1.000  C
  C16      1.0000 0.18205  0.69940  0.31060  Biso   1.000  C
  C17      1.0000 0.08460  0.09010  0.70510  Biso   1.000  C
  C18      1.0000 0.19400  0.90350  0.31100  Biso   1.000  C
  C19      1.0000 0.20720  0.87130  0.13600  Biso   1.000  C
  C20      1.0000 0.16549  0.67640  0.09410  Biso   1.000  C
  C21      1.0000 0.07377  0.68890  0.14800  Biso   1.000  C
  N15      1.0000 0.05809  0.88850  0.92000  Biso   1.000  N
  N16      1.0000 0.20015  0.63610  0.38150  Biso   1.000  N
  N17      1.0000 0.05447  0.03020  0.71840  Biso   1.000  N
  N18      1.0000 0.22360  0.95380  0.38880  Biso   1.000  N
  N19      1.0000 0.24202  0.90210  0.11070  Biso   1.000  N
  N20      1.0000 0.17797  0.61060  0.04770  Biso   1.000  N
  N21      1.0000 0.04132  0.61840  0.13410  Biso   1.000  N
  Mn3      1.0000 0.21180  0.48351  0.45874  Biso   1.000  Mn
  Mo3      1.0000 0.14215  0.80568  0.17539  Biso   1.000  Mo
  C22      1.0000 0.58790  0.36040  0.00920  Biso   1.000  C
  C23      1.0000 0.68205  0.19940  0.31060  Biso   1.000  C
  C24      1.0000 0.58460  0.59010  0.70510  Biso   1.000  C
  C25      1.0000 0.69400  0.40350  0.31100  Biso   1.000  C
  C26      1.0000 0.70720  0.37130  0.13600  Biso   1.000  C
  C27      1.0000 0.66549  0.17640  0.09410  Biso   1.000  C
  C28      1.0000 0.57377  0.18890  0.14800  Biso   1.000  C
  N22      1.0000 0.55809  0.38850  0.92000  Biso   1.000  N
  N23      1.0000 0.70015  0.13610  0.38150  Biso   1.000  N
  N24      1.0000 0.55447  0.53020  0.71840  Biso   1.000  N
  N25      1.0000 0.72360  0.45380  0.38880  Biso   1.000  N
  N26      1.0000 0.74202  0.40210  0.11070  Biso   1.000  N
  N27      1.0000 0.67797  0.11060  0.04770  Biso   1.000  N
  N28      1.0000 0.54132  0.11840  0.13410  Biso   1.000  N
  Mn4      1.0000 0.71180  0.98351  0.45874  Biso   1.000  Mn
  Mo4      1.0000 0.64215  0.30568  0.17539  Biso   1.000  Mo
  C29      1.0000 0.08790  0.13960  0.50920  Biso   1.000  C
  C30      1.0000 0.18205  0.30060  0.81060  Biso   1.000  C
  C31      1.0000 0.08460  0.90990  0.20510  Biso   1.000  C
  C32      1.0000 0.19400  0.09650  0.81100  Biso   1.000  C
  C33      1.0000 0.20720  0.12870  0.63600  Biso   1.000  C
  C34      1.0000 0.16549  0.32360  0.59410  Biso   1.000  C
  C35      1.0000 0.07377  0.31110  0.64800  Biso   1.000  C
  N29      1.0000 0.05809  0.11150  0.42000  Biso   1.000  N
  N30      1.0000 0.20015  0.36390  0.88150  Biso   1.000  N
  N31      1.0000 0.05447  0.96980  0.21840  Biso   1.000  N
  N32      1.0000 0.22360  0.04620  0.88880  Biso   1.000  N
  N33      1.0000 0.24202  0.09790  0.61070  Biso   1.000  N
  N34      1.0000 0.17797  0.38940  0.54770  Biso   1.000  N
  N35      1.0000 0.04132  0.38160  0.63410  Biso   1.000  N
  Mn5      1.0000 0.21180  0.51649  0.95874  Biso   1.000  Mn
  Mo5      1.0000 0.14215  0.19432  0.67539  Biso   1.000  Mo
  C36      1.0000 0.58790  0.63960  0.50920  Biso   1.000  C
  C37      1.0000 0.68205  0.80060  0.81060  Biso   1.000  C
  C38      1.0000 0.58460  0.40990  0.20510  Biso   1.000  C
  C39      1.0000 0.69400  0.59650  0.81100  Biso   1.000  C
  C40      1.0000 0.70720  0.62870  0.63600  Biso   1.000  C
  C41      1.0000 0.66549  0.82360  0.59410  Biso   1.000  C
  C42      1.0000 0.57377  0.81110  0.64800  Biso   1.000  C
  N36      1.0000 0.55809  0.61150  0.42000  Biso   1.000  N
  N37      1.0000 0.70015  0.86390  0.88150  Biso   1.000  N
  N38      1.0000 0.55447  0.46980  0.21840  Biso   1.000  N
  N39      1.0000 0.72360  0.54620  0.88880  Biso   1.000  N
  N40      1.0000 0.74202  0.59790  0.61070  Biso   1.000  N
  N41      1.0000 0.67797  0.88940  0.54770  Biso   1.000  N
  N42      1.0000 0.54132  0.88160  0.63410  Biso   1.000  N
  Mn6      1.0000 0.71180  0.01649  0.95874  Biso   1.000  Mn
  Mo6      1.0000 0.64215  0.69432  0.67539  Biso   1.000  Mo
  C43      1.0000 0.91210  0.13960  0.99080  Biso   1.000  C
  C44      1.0000 0.81795  0.30060  0.68940  Biso   1.000  C
  C45      1.0000 0.91540  0.90990  0.29490  Biso   1.000  C
  C46      1.0000 0.80600  0.09650  0.68900  Biso   1.000  C
  C47      1.0000 0.79280  0.12870  0.86400  Biso   1.000  C
  C48      1.0000 0.83451  0.32360  0.90590  Biso   1.000  C
  C49      1.0000 0.92623  0.31110  0.85200  Biso   1.000  C
  N43      1.0000 0.94191  0.11150  0.08000  Biso   1.000  N
  N44      1.0000 0.79985  0.36390  0.61850  Biso   1.000  N
  N45      1.0000 0.94553  0.96980  0.28160  Biso   1.000  N
  N46      1.0000 0.77640  0.04620  0.61120  Biso   1.000  N
  N47      1.0000 0.75798  0.09790  0.88930  Biso   1.000  N
  N48      1.0000 0.82203  0.38940  0.95230  Biso   1.000  N
  N49      1.0000 0.95868  0.38160  0.86590  Biso   1.000  N
  Mn7      1.0000 0.78820  0.51649  0.54126  Biso   1.000  Mn
  Mo7      1.0000 0.85785  0.19432  0.82461  Biso   1.000  Mo
  C50      1.0000 0.41210  0.63960  0.99080  Biso   1.000  C
  C51      1.0000 0.31795  0.80060  0.68940  Biso   1.000  C
  C52      1.0000 0.41540  0.40990  0.29490  Biso   1.000  C
  C53      1.0000 0.30600  0.59650  0.68900  Biso   1.000  C
  C54      1.0000 0.29280  0.62870  0.86400  Biso   1.000  C
  C55      1.0000 0.33451  0.82360  0.90590  Biso   1.000  C
  C56      1.0000 0.42623  0.81110  0.85200  Biso   1.000  C
  N50      1.0000 0.44191  0.61150  0.08000  Biso   1.000  N
  N51      1.0000 0.29985  0.86390  0.61850  Biso   1.000  N
  N52      1.0000 0.44553  0.46980  0.28160  Biso   1.000  N
  N53      1.0000 0.27640  0.54620  0.61120  Biso   1.000  N
  N54      1.0000 0.25798  0.59790  0.88930  Biso   1.000  N
  N55      1.0000 0.32203  0.88940  0.95230  Biso   1.000  N
  N56      1.0000 0.45868  0.88160  0.86590  Biso   1.000  N
  Mn8      1.0000 0.28820  0.01649  0.54126  Biso   1.000  Mn
  Mo8      1.0000 0.35785  0.69432  0.82461  Biso   1.000  Mo
  Mn9      1.0000 0.00000  0.92221  0.75000  Biso   1.000  Mn
  Mn10     1.0000 0.50000  0.42221  0.75000  Biso   1.000  Mn
  Mn11     1.0000 0.00000  0.07779  0.25000  Biso   1.000  Mn
  Mn12     1.0000 0.50000  0.57779  0.25000  Biso   1.000  Mn
