data_image0
_cell_length_a       15.6139
_cell_length_b       18.3439
_cell_length_c       34.336
_cell_angle_alpha    90
_cell_angle_beta     90
_cell_angle_gamma    90

_symmetry_space_group_name_H-M    "P 1"
_symmetry_int_tables_number       1

loop_
  _symmetry_equiv_pos_as_xyz
  'x, y, z'

loop_
  _atom_site_label
  _atom_site_occupancy
  _atom_site_fract_x
  _atom_site_fract_y
  _atom_site_fract_z
  _atom_site_thermal_displace_type
  _atom_site_B_iso_or_equiv
  _atom_site_type_symbol
  Co1      1.0000 0.50379  0.61040  0.48158  Biso   1.000  Co
  N1       1.0000 0.67600  0.55680  0.50860  Biso   1.000  N
  O1       1.0000 0.83230  0.58920  0.52589  Biso   1.000  O
  C1       1.0000 0.72010  0.50550  0.52759  Biso   1.000  C
  C2       1.0000 0.80930  0.52720  0.53810  Biso   1.000  C
  O2       1.0000 0.74070  0.34830  0.56220  Biso   1.000  O
  O3       1.0000 0.60020  0.34160  0.55570  Biso   1.000  O
  N2       1.0000 0.58800  0.46920  0.52115  Biso   1.000  N
  O4       1.0000 0.85430  0.48730  0.55976  Biso   1.000  O
  C3       1.0000 0.67000  0.37380  0.55281  Biso   1.000  C
  N3       1.0000 0.59570  0.53480  0.50529  Biso   1.000  N
  C4       1.0000 0.66450  0.44880  0.53534  Biso   1.000  C
  N4       1.0000 0.83100  0.38020  0.68250  Biso   1.000  N
  C5       1.0000 0.80930  0.38340  0.64594  Biso   1.000  C
  H1       1.0000 0.75310  0.39090  0.63780  Biso   1.000  H
  Co2      1.0000 0.50379  0.11040  0.98158  Biso   1.000  Co
  N5       1.0000 0.67600  0.05680  0.00860  Biso   1.000  N
  O5       1.0000 0.83230  0.08920  0.02589  Biso   1.000  O
  C6       1.0000 0.72010  0.00550  0.02759  Biso   1.000  C
  C7       1.0000 0.80930  0.02720  0.03810  Biso   1.000  C
  O6       1.0000 0.74070  0.84830  0.06220  Biso   1.000  O
  O7       1.0000 0.60020  0.84160  0.05570  Biso   1.000  O
  N6       1.0000 0.58800  0.96920  0.02115  Biso   1.000  N
  O8       1.0000 0.85430  0.98730  0.05976  Biso   1.000  O
  C8       1.0000 0.67000  0.87380  0.05281  Biso   1.000  C
  N7       1.0000 0.59570  0.03480  0.00529  Biso   1.000  N
  C9       1.0000 0.66450  0.94880  0.03534  Biso   1.000  C
  N8       1.0000 0.83100  0.88020  0.18250  Biso   1.000  N
  C10      1.0000 0.80930  0.88340  0.14594  Biso   1.000  C
  H2       1.0000 0.75310  0.89090  0.13780  Biso   1.000  H
  Co3      1.0000 0.00379  0.61040  0.98158  Biso   1.000  Co
  N9       1.0000 0.17600  0.55680  0.00860  Biso   1.000  N
  O9       1.0000 0.33230  0.58920  0.02589  Biso   1.000  O
  C11      1.0000 0.22010  0.50550  0.02759  Biso   1.000  C
  C12      1.0000 0.30930  0.52720  0.03810  Biso   1.000  C
  O10      1.0000 0.24070  0.34830  0.06220  Biso   1.000  O
  O11      1.0000 0.10020  0.34160  0.05570  Biso   1.000  O
  N10      1.0000 0.08800  0.46920  0.02115  Biso   1.000  N
  O12      1.0000 0.35430  0.48730  0.05976  Biso   1.000  O
  C13      1.0000 0.17000  0.37380  0.05281  Biso   1.000  C
  N11      1.0000 0.09570  0.53480  0.00529  Biso   1.000  N
  C14      1.0000 0.16450  0.44880  0.03534  Biso   1.000  C
  N12      1.0000 0.33100  0.38020  0.18250  Biso   1.000  N
  C15      1.0000 0.30930  0.38340  0.14594  Biso   1.000  C
  H3       1.0000 0.25310  0.39090  0.13780  Biso   1.000  H
  Co4      1.0000 0.00379  0.11040  0.48158  Biso   1.000  Co
  N13      1.0000 0.17600  0.05680  0.50860  Biso   1.000  N
  O13      1.0000 0.33230  0.08920  0.52589  Biso   1.000  O
  C16      1.0000 0.22010  0.00550  0.52759  Biso   1.000  C
  C17      1.0000 0.30930  0.02720  0.53810  Biso   1.000  C
  O14      1.0000 0.24070  0.84830  0.56220  Biso   1.000  O
  O15      1.0000 0.10020  0.84160  0.55570  Biso   1.000  O
  N14      1.0000 0.08800  0.96920  0.52115  Biso   1.000  N
  O16      1.0000 0.35430  0.98730  0.55976  Biso   1.000  O
  C18      1.0000 0.17000  0.87380  0.55281  Biso   1.000  C
  N15      1.0000 0.09570  0.03480  0.50529  Biso   1.000  N
  C19      1.0000 0.16450  0.94880  0.53534  Biso   1.000  C
  N16      1.0000 0.33100  0.88020  0.68250  Biso   1.000  N
  C20      1.0000 0.30930  0.88340  0.64594  Biso   1.000  C
  H4       1.0000 0.25310  0.89090  0.63780  Biso   1.000  H
  Co5      1.0000 0.24621  0.13960  0.48158  Biso   1.000  Co
  N17      1.0000 0.07400  0.19320  0.50860  Biso   1.000  N
  O17      1.0000 0.91770  0.16080  0.52589  Biso   1.000  O
  C21      1.0000 0.02990  0.24450  0.52759  Biso   1.000  C
  C22      1.0000 0.94070  0.22280  0.53810  Biso   1.000  C
  O18      1.0000 0.00930  0.40170  0.56220  Biso   1.000  O
  O19      1.0000 0.14980  0.40840  0.55570  Biso   1.000  O
  N18      1.0000 0.16200  0.28080  0.52115  Biso   1.000  N
  O20      1.0000 0.89570  0.26270  0.55976  Biso   1.000  O
  C23      1.0000 0.08000  0.37620  0.55281  Biso   1.000  C
  N19      1.0000 0.15430  0.21520  0.50529  Biso   1.000  N
  C24      1.0000 0.08550  0.30120  0.53534  Biso   1.000  C
  N20      1.0000 0.91900  0.36980  0.68250  Biso   1.000  N
  C25      1.0000 0.94070  0.36660  0.64594  Biso   1.000  C
  H5       1.0000 0.99690  0.35910  0.63780  Biso   1.000  H
  Co6      1.0000 0.24621  0.63960  0.98158  Biso   1.000  Co
  N21      1.0000 0.07400  0.69320  0.00860  Biso   1.000  N
  O21      1.0000 0.91770  0.66080  0.02589  Biso   1.000  O
  C26      1.0000 0.02990  0.74450  0.02759  Biso   1.000  C
  C27      1.0000 0.94070  0.72280  0.03810  Biso   1.000  C
  O22      1.0000 0.00930  0.90170  0.06220  Biso   1.000  O
  O23      1.0000 0.14980  0.90840  0.05570  Biso   1.000  O
  N22      1.0000 0.16200  0.78080  0.02115  Biso   1.000  N
  O24      1.0000 0.89570  0.76270  0.05976  Biso   1.000  O
  C28      1.0000 0.08000  0.87620  0.05281  Biso   1.000  C
  N23      1.0000 0.15430  0.71520  0.00529  Biso   1.000  N
  C29      1.0000 0.08550  0.80120  0.03534  Biso   1.000  C
  N24      1.0000 0.91900  0.86980  0.18250  Biso   1.000  N
  C30      1.0000 0.94070  0.86660  0.14594  Biso   1.000  C
  H6       1.0000 0.99690  0.85910  0.13780  Biso   1.000  H
  Co7      1.0000 0.74621  0.13960  0.98158  Biso   1.000  Co
  N25      1.0000 0.57400  0.19320  0.00860  Biso   1.000  N
  O25      1.0000 0.41770  0.16080  0.02589  Biso   1.000  O
  C31      1.0000 0.52990  0.24450  0.02759  Biso   1.000  C
  C32      1.0000 0.44070  0.22280  0.03810  Biso   1.000  C
  O26      1.0000 0.50930  0.40170  0.06220  Biso   1.000  O
  O27      1.0000 0.64980  0.40840  0.05570  Biso   1.000  O
  N26      1.0000 0.66200  0.28080  0.02115  Biso   1.000  N
  O28      1.0000 0.39570  0.26270  0.05976  Biso   1.000  O
  C33      1.0000 0.58000  0.37620  0.05281  Biso   1.000  C
  N27      1.0000 0.65430  0.21520  0.00529  Biso   1.000  N
  C34      1.0000 0.58550  0.30120  0.03534  Biso   1.000  C
  N28      1.0000 0.41900  0.36980  0.18250  Biso   1.000  N
  C35      1.0000 0.44070  0.36660  0.14594  Biso   1.000  C
  H7       1.0000 0.49690  0.35910  0.13780  Biso   1.000  H
  Co8      1.0000 0.74621  0.63960  0.48158  Biso   1.000  Co
  N29      1.0000 0.57400  0.69320  0.50860  Biso   1.000  N
  O29      1.0000 0.41770  0.66080  0.52589  Biso   1.000  O
  C36      1.0000 0.52990  0.74450  0.52759  Biso   1.000  C
  C37      1.0000 0.44070  0.72280  0.53810  Biso   1.000  C
  O30      1.0000 0.50930  0.90170  0.56220  Biso   1.000  O
  O31      1.0000 0.64980  0.90840  0.55570  Biso   1.000  O
  N30      1.0000 0.66200  0.78080  0.52115  Biso   1.000  N
  O32      1.0000 0.39570  0.76270  0.55976  Biso   1.000  O
  C38      1.0000 0.58000  0.87620  0.55281  Biso   1.000  C
  N31      1.0000 0.65430  0.71520  0.50529  Biso   1.000  N
  C39      1.0000 0.58550  0.80120  0.53534  Biso   1.000  C
  N32      1.0000 0.41900  0.86980  0.68250  Biso   1.000  N
  C40      1.0000 0.44070  0.86660  0.64594  Biso   1.000  C
  H8       1.0000 0.49690  0.85910  0.63780  Biso   1.000  H
  Co9      1.0000 0.24621  0.61040  0.26842  Biso   1.000  Co
  N33      1.0000 0.07400  0.55680  0.24140  Biso   1.000  N
  O33      1.0000 0.91770  0.58920  0.22411  Biso   1.000  O
  C41      1.0000 0.02990  0.50550  0.22241  Biso   1.000  C
  C42      1.0000 0.94070  0.52720  0.21190  Biso   1.000  C
  O34      1.0000 0.00930  0.34830  0.18780  Biso   1.000  O
  O35      1.0000 0.14980  0.34160  0.19430  Biso   1.000  O
  N34      1.0000 0.16200  0.46920  0.22885  Biso   1.000  N
  O36      1.0000 0.89570  0.48730  0.19024  Biso   1.000  O
  C43      1.0000 0.08000  0.37380  0.19719  Biso   1.000  C
  N35      1.0000 0.15430  0.53480  0.24471  Biso   1.000  N
  C44      1.0000 0.08550  0.44880  0.21466  Biso   1.000  C
  N36      1.0000 0.91900  0.38020  0.06750  Biso   1.000  N
  C45      1.0000 0.94070  0.38340  0.10406  Biso   1.000  C
  H9       1.0000 0.99690  0.39090  0.11220  Biso   1.000  H
  Co10     1.0000 0.24621  0.11040  0.76842  Biso   1.000  Co
  N37      1.0000 0.07400  0.05680  0.74140  Biso   1.000  N
  O37      1.0000 0.91770  0.08920  0.72411  Biso   1.000  O
  C46      1.0000 0.02990  0.00550  0.72241  Biso   1.000  C
  C47      1.0000 0.94070  0.02720  0.71190  Biso   1.000  C
  O38      1.0000 0.00930  0.84830  0.68780  Biso   1.000  O
  O39      1.0000 0.14980  0.84160  0.69430  Biso   1.000  O
  N38      1.0000 0.16200  0.96920  0.72885  Biso   1.000  N
  O40      1.0000 0.89570  0.98730  0.69024  Biso   1.000  O
  C48      1.0000 0.08000  0.87380  0.69719  Biso   1.000  C
  N39      1.0000 0.15430  0.03480  0.74471  Biso   1.000  N
  C49      1.0000 0.08550  0.94880  0.71466  Biso   1.000  C
  N40      1.0000 0.91900  0.88020  0.56750  Biso   1.000  N
  C50      1.0000 0.94070  0.88340  0.60406  Biso   1.000  C
  H10      1.0000 0.99690  0.89090  0.61220  Biso   1.000  H
  Co11     1.0000 0.74621  0.61040  0.76842  Biso   1.000  Co
  N41      1.0000 0.57400  0.55680  0.74140  Biso   1.000  N
  O41      1.0000 0.41770  0.58920  0.72411  Biso   1.000  O
  C51      1.0000 0.52990  0.50550  0.72241  Biso   1.000  C
  C52      1.0000 0.44070  0.52720  0.71190  Biso   1.000  C
  O42      1.0000 0.50930  0.34830  0.68780  Biso   1.000  O
  O43      1.0000 0.64980  0.34160  0.69430  Biso   1.000  O
  N42      1.0000 0.66200  0.46920  0.72885  Biso   1.000  N
  O44      1.0000 0.39570  0.48730  0.69024  Biso   1.000  O
  C53      1.0000 0.58000  0.37380  0.69719  Biso   1.000  C
  N43      1.0000 0.65430  0.53480  0.74471  Biso   1.000  N
  C54      1.0000 0.58550  0.44880  0.71466  Biso   1.000  C
  N44      1.0000 0.41900  0.38020  0.56750  Biso   1.000  N
  C55      1.0000 0.44070  0.38340  0.60406  Biso   1.000  C
  H11      1.0000 0.49690  0.39090  0.61220  Biso   1.000  H
  Co12     1.0000 0.74621  0.11040  0.26842  Biso   1.000  Co
  N45      1.0000 0.57400  0.05680  0.24140  Biso   1.000  N
  O45      1.0000 0.41770  0.08920  0.22411  Biso   1.000  O
  C56      1.0000 0.52990  0.00550  0.22241  Biso   1.000  C
  C57      1.0000 0.44070  0.02720  0.21190  Biso   1.000  C
  O46      1.0000 0.50930  0.84830  0.18780  Biso   1.000  O
  O47      1.0000 0.64980  0.84160  0.19430  Biso   1.000  O
  N46      1.0000 0.66200  0.96920  0.22885  Biso   1.000  N
  O48      1.0000 0.39570  0.98730  0.19024  Biso   1.000  O
  C58      1.0000 0.58000  0.87380  0.19719  Biso   1.000  C
  N47      1.0000 0.65430  0.03480  0.24471  Biso   1.000  N
  C59      1.0000 0.58550  0.94880  0.21466  Biso   1.000  C
  N48      1.0000 0.41900  0.88020  0.06750  Biso   1.000  N
  C60      1.0000 0.44070  0.88340  0.10406  Biso   1.000  C
  H12      1.0000 0.49690  0.89090  0.11220  Biso   1.000  H
  Co13     1.0000 0.50379  0.13960  0.26842  Biso   1.000  Co
  N49      1.0000 0.67600  0.19320  0.24140  Biso   1.000  N
  O49      1.0000 0.83230  0.16080  0.22411  Biso   1.000  O
  C61      1.0000 0.72010  0.24450  0.22241  Biso   1.000  C
  C62      1.0000 0.80930  0.22280  0.21190  Biso   1.000  C
  O50      1.0000 0.74070  0.40170  0.18780  Biso   1.000  O
  O51      1.0000 0.60020  0.40840  0.19430  Biso   1.000  O
  N50      1.0000 0.58800  0.28080  0.22885  Biso   1.000  N
  O52      1.0000 0.85430  0.26270  0.19024  Biso   1.000  O
  C63      1.0000 0.67000  0.37620  0.19719  Biso   1.000  C
  N51      1.0000 0.59570  0.21520  0.24471  Biso   1.000  N
  C64      1.0000 0.66450  0.30120  0.21466  Biso   1.000  C
  N52      1.0000 0.83100  0.36980  0.06750  Biso   1.000  N
  C65      1.0000 0.80930  0.36660  0.10406  Biso   1.000  C
  H13      1.0000 0.75310  0.35910  0.11220  Biso   1.000  H
  Co14     1.0000 0.50379  0.63960  0.76842  Biso   1.000  Co
  N53      1.0000 0.67600  0.69320  0.74140  Biso   1.000  N
  O53      1.0000 0.83230  0.66080  0.72411  Biso   1.000  O
  C66      1.0000 0.72010  0.74450  0.72241  Biso   1.000  C
  C67      1.0000 0.80930  0.72280  0.71190  Biso   1.000  C
  O54      1.0000 0.74070  0.90170  0.68780  Biso   1.000  O
  O55      1.0000 0.60020  0.90840  0.69430  Biso   1.000  O
  N54      1.0000 0.58800  0.78080  0.72885  Biso   1.000  N
  O56      1.0000 0.85430  0.76270  0.69024  Biso   1.000  O
  C68      1.0000 0.67000  0.87620  0.69719  Biso   1.000  C
  N55      1.0000 0.59570  0.71520  0.74471  Biso   1.000  N
  C69      1.0000 0.66450  0.80120  0.71466  Biso   1.000  C
  N56      1.0000 0.83100  0.86980  0.56750  Biso   1.000  N
  C70      1.0000 0.80930  0.86660  0.60406  Biso   1.000  C
  H14      1.0000 0.75310  0.85910  0.61220  Biso   1.000  H
  Co15     1.0000 0.00379  0.13960  0.76842  Biso   1.000  Co
  N57      1.0000 0.17600  0.19320  0.74140  Biso   1.000  N
  O57      1.0000 0.33230  0.16080  0.72411  Biso   1.000  O
  C71      1.0000 0.22010  0.24450  0.72241  Biso   1.000  C
  C72      1.0000 0.30930  0.22280  0.71190  Biso   1.000  C
  O58      1.0000 0.24070  0.40170  0.68780  Biso   1.000  O
  O59      1.0000 0.10020  0.40840  0.69430  Biso   1.000  O
  N58      1.0000 0.08800  0.28080  0.72885  Biso   1.000  N
  O60      1.0000 0.35430  0.26270  0.69024  Biso   1.000  O
  C73      1.0000 0.17000  0.37620  0.69719  Biso   1.000  C
  N59      1.0000 0.09570  0.21520  0.74471  Biso   1.000  N
  C74      1.0000 0.16450  0.30120  0.71466  Biso   1.000  C
  N60      1.0000 0.33100  0.36980  0.56750  Biso   1.000  N
  C75      1.0000 0.30930  0.36660  0.60406  Biso   1.000  C
  H15      1.0000 0.25310  0.35910  0.61220  Biso   1.000  H
  Co16     1.0000 0.00379  0.63960  0.26842  Biso   1.000  Co
  N61      1.0000 0.17600  0.69320  0.24140  Biso   1.000  N
  O61      1.0000 0.33230  0.66080  0.22411  Biso   1.000  O
  C76      1.0000 0.22010  0.74450  0.22241  Biso   1.000  C
  C77      1.0000 0.30930  0.72280  0.21190  Biso   1.000  C
  O62      1.0000 0.24070  0.90170  0.18780  Biso   1.000  O
  O63      1.0000 0.10020  0.90840  0.19430  Biso   1.000  O
  N62      1.0000 0.08800  0.78080  0.22885  Biso   1.000  N
  O64      1.0000 0.35430  0.76270  0.19024  Biso   1.000  O
  C78      1.0000 0.17000  0.87620  0.19719  Biso   1.000  C
  N63      1.0000 0.09570  0.71520  0.24471  Biso   1.000  N
  C79      1.0000 0.16450  0.80120  0.21466  Biso   1.000  C
  N64      1.0000 0.33100  0.86980  0.06750  Biso   1.000  N
  C80      1.0000 0.30930  0.86660  0.10406  Biso   1.000  C
  H16      1.0000 0.25310  0.85910  0.11220  Biso   1.000  H
  Co17     1.0000 0.49621  0.38960  0.51842  Biso   1.000  Co
  N65      1.0000 0.32400  0.44320  0.49140  Biso   1.000  N
  O65      1.0000 0.16770  0.41080  0.47411  Biso   1.000  O
  C81      1.0000 0.27990  0.49450  0.47241  Biso   1.000  C
  C82      1.0000 0.19070  0.47280  0.46190  Biso   1.000  C
  O66      1.0000 0.25930  0.65170  0.43780  Biso   1.000  O
  O67      1.0000 0.39980  0.65840  0.44430  Biso   1.000  O
  N66      1.0000 0.41200  0.53080  0.47885  Biso   1.000  N
  O68      1.0000 0.14570  0.51270  0.44024  Biso   1.000  O
  C83      1.0000 0.33000  0.62620  0.44719  Biso   1.000  C
  N67      1.0000 0.40430  0.46520  0.49471  Biso   1.000  N
  C84      1.0000 0.33550  0.55120  0.46466  Biso   1.000  C
  N68      1.0000 0.16900  0.61980  0.31750  Biso   1.000  N
  C85      1.0000 0.19070  0.61660  0.35406  Biso   1.000  C
  H17      1.0000 0.24690  0.60910  0.36220  Biso   1.000  H
  Co18     1.0000 0.49621  0.88960  0.01842  Biso   1.000  Co
  N69      1.0000 0.32400  0.94320  0.99140  Biso   1.000  N
  O69      1.0000 0.16770  0.91080  0.97411  Biso   1.000  O
  C86      1.0000 0.27990  0.99450  0.97241  Biso   1.000  C
  C87      1.0000 0.19070  0.97280  0.96190  Biso   1.000  C
  O70      1.0000 0.25930  0.15170  0.93780  Biso   1.000  O
  O71      1.0000 0.39980  0.15840  0.94430  Biso   1.000  O
  N70      1.0000 0.41200  0.03080  0.97885  Biso   1.000  N
  O72      1.0000 0.14570  0.01270  0.94024  Biso   1.000  O
  C88      1.0000 0.33000  0.12620  0.94719  Biso   1.000  C
  N71      1.0000 0.40430  0.96520  0.99471  Biso   1.000  N
  C89      1.0000 0.33550  0.05120  0.96466  Biso   1.000  C
  N72      1.0000 0.16900  0.11980  0.81750  Biso   1.000  N
  C90      1.0000 0.19070  0.11660  0.85406  Biso   1.000  C
  H18      1.0000 0.24690  0.10910  0.86220  Biso   1.000  H
  Co19     1.0000 0.99621  0.38960  0.01842  Biso   1.000  Co
  N73      1.0000 0.82400  0.44320  0.99140  Biso   1.000  N
  O73      1.0000 0.66770  0.41080  0.97411  Biso   1.000  O
  C91      1.0000 0.77990  0.49450  0.97241  Biso   1.000  C
  C92      1.0000 0.69070  0.47280  0.96190  Biso   1.000  C
  O74      1.0000 0.75930  0.65170  0.93780  Biso   1.000  O
  O75      1.0000 0.89980  0.65840  0.94430  Biso   1.000  O
  N74      1.0000 0.91200  0.53080  0.97885  Biso   1.000  N
  O76      1.0000 0.64570  0.51270  0.94024  Biso   1.000  O
  C93      1.0000 0.83000  0.62620  0.94719  Biso   1.000  C
  N75      1.0000 0.90430  0.46520  0.99471  Biso   1.000  N
  C94      1.0000 0.83550  0.55120  0.96466  Biso   1.000  C
  N76      1.0000 0.66900  0.61980  0.81750  Biso   1.000  N
  C95      1.0000 0.69070  0.61660  0.85406  Biso   1.000  C
  H19      1.0000 0.74690  0.60910  0.86220  Biso   1.000  H
  Co20     1.0000 0.99621  0.88960  0.51842  Biso   1.000  Co
  N77      1.0000 0.82400  0.94320  0.49140  Biso   1.000  N
  O77      1.0000 0.66770  0.91080  0.47411  Biso   1.000  O
  C96      1.0000 0.77990  0.99450  0.47241  Biso   1.000  C
  C97      1.0000 0.69070  0.97280  0.46190  Biso   1.000  C
  O78      1.0000 0.75930  0.15170  0.43780  Biso   1.000  O
  O79      1.0000 0.89980  0.15840  0.44430  Biso   1.000  O
  N78      1.0000 0.91200  0.03080  0.47885  Biso   1.000  N
  O80      1.0000 0.64570  0.01270  0.44024  Biso   1.000  O
  C98      1.0000 0.83000  0.12620  0.44719  Biso   1.000  C
  N79      1.0000 0.90430  0.96520  0.49471  Biso   1.000  N
  C99      1.0000 0.83550  0.05120  0.46466  Biso   1.000  C
  N80      1.0000 0.66900  0.11980  0.31750  Biso   1.000  N
  C100     1.0000 0.69070  0.11660  0.35406  Biso   1.000  C
  H20      1.0000 0.74690  0.10910  0.36220  Biso   1.000  H
  Co21     1.0000 0.75379  0.86040  0.51842  Biso   1.000  Co
  N81      1.0000 0.92600  0.80680  0.49140  Biso   1.000  N
  O81      1.0000 0.08230  0.83920  0.47411  Biso   1.000  O
  C101     1.0000 0.97010  0.75550  0.47241  Biso   1.000  C
  C102     1.0000 0.05930  0.77720  0.46190  Biso   1.000  C
  O82      1.0000 0.99070  0.59830  0.43780  Biso   1.000  O
  O83      1.0000 0.85020  0.59160  0.44430  Biso   1.000  O
  N82      1.0000 0.83800  0.71920  0.47885  Biso   1.000  N
  O84      1.0000 0.10430  0.73730  0.44024  Biso   1.000  O
  C103     1.0000 0.92000  0.62380  0.44719  Biso   1.000  C
  N83      1.0000 0.84570  0.78480  0.49471  Biso   1.000  N
  C104     1.0000 0.91450  0.69880  0.46466  Biso   1.000  C
  N84      1.0000 0.08100  0.63020  0.31750  Biso   1.000  N
  C105     1.0000 0.05930  0.63340  0.35406  Biso   1.000  C
  H21      1.0000 0.00310  0.64090  0.36220  Biso   1.000  H
  Co22     1.0000 0.75379  0.36040  0.01842  Biso   1.000  Co
  N85      1.0000 0.92600  0.30680  0.99140  Biso   1.000  N
  O85      1.0000 0.08230  0.33920  0.97411  Biso   1.000  O
  C106     1.0000 0.97010  0.25550  0.97241  Biso   1.000  C
  C107     1.0000 0.05930  0.27720  0.96190  Biso   1.000  C
  O86      1.0000 0.99070  0.09830  0.93780  Biso   1.000  O
  O87      1.0000 0.85020  0.09160  0.94430  Biso   1.000  O
  N86      1.0000 0.83800  0.21920  0.97885  Biso   1.000  N
  O88      1.0000 0.10430  0.23730  0.94024  Biso   1.000  O
  C108     1.0000 0.92000  0.12380  0.94719  Biso   1.000  C
  N87      1.0000 0.84570  0.28480  0.99471  Biso   1.000  N
  C109     1.0000 0.91450  0.19880  0.96466  Biso   1.000  C
  N88      1.0000 0.08100  0.13020  0.81750  Biso   1.000  N
  C110     1.0000 0.05930  0.13340  0.85406  Biso   1.000  C
  H22      1.0000 0.00310  0.14090  0.86220  Biso   1.000  H
  Co23     1.0000 0.25379  0.86040  0.01842  Biso   1.000  Co
  N89      1.0000 0.42600  0.80680  0.99140  Biso   1.000  N
  O89      1.0000 0.58230  0.83920  0.97411  Biso   1.000  O
  C111     1.0000 0.47010  0.75550  0.97241  Biso   1.000  C
  C112     1.0000 0.55930  0.77720  0.96190  Biso   1.000  C
  O90      1.0000 0.49070  0.59830  0.93780  Biso   1.000  O
  O91      1.0000 0.35020  0.59160  0.94430  Biso   1.000  O
  N90      1.0000 0.33800  0.71920  0.97885  Biso   1.000  N
  O92      1.0000 0.60430  0.73730  0.94024  Biso   1.000  O
  C113     1.0000 0.42000  0.62380  0.94719  Biso   1.000  C
  N91      1.0000 0.34570  0.78480  0.99471  Biso   1.000  N
  C114     1.0000 0.41450  0.69880  0.96466  Biso   1.000  C
  N92      1.0000 0.58100  0.63020  0.81750  Biso   1.000  N
  C115     1.0000 0.55930  0.63340  0.85406  Biso   1.000  C
  H23      1.0000 0.50310  0.64090  0.86220  Biso   1.000  H
  Co24     1.0000 0.25379  0.36040  0.51842  Biso   1.000  Co
  N93      1.0000 0.42600  0.30680  0.49140  Biso   1.000  N
  O93      1.0000 0.58230  0.33920  0.47411  Biso   1.000  O
  C116     1.0000 0.47010  0.25550  0.47241  Biso   1.000  C
  C117     1.0000 0.55930  0.27720  0.46190  Biso   1.000  C
  O94      1.0000 0.49070  0.09830  0.43780  Biso   1.000  O
  O95      1.0000 0.35020  0.09160  0.44430  Biso   1.000  O
  N94      1.0000 0.33800  0.21920  0.47885  Biso   1.000  N
  O96      1.0000 0.60430  0.23730  0.44024  Biso   1.000  O
  C118     1.0000 0.42000  0.12380  0.44719  Biso   1.000  C
  N95      1.0000 0.34570  0.28480  0.49471  Biso   1.000  N
  C119     1.0000 0.41450  0.19880  0.46466  Biso   1.000  C
  N96      1.0000 0.58100  0.13020  0.31750  Biso   1.000  N
  C120     1.0000 0.55930  0.13340  0.35406  Biso   1.000  C
  H24      1.0000 0.50310  0.14090  0.36220  Biso   1.000  H
  Co25     1.0000 0.75379  0.38960  0.73158  Biso   1.000  Co
  N97      1.0000 0.92600  0.44320  0.75860  Biso   1.000  N
  O97      1.0000 0.08230  0.41080  0.77589  Biso   1.000  O
  C121     1.0000 0.97010  0.49450  0.77759  Biso   1.000  C
  C122     1.0000 0.05930  0.47280  0.78810  Biso   1.000  C
  O98      1.0000 0.99070  0.65170  0.81220  Biso   1.000  O
  O99      1.0000 0.85020  0.65840  0.80570  Biso   1.000  O
  N98      1.0000 0.83800  0.53080  0.77115  Biso   1.000  N
  O100     1.0000 0.10430  0.51270  0.80976  Biso   1.000  O
  C123     1.0000 0.92000  0.62620  0.80281  Biso   1.000  C
  N99      1.0000 0.84570  0.46520  0.75529  Biso   1.000  N
  C124     1.0000 0.91450  0.55120  0.78534  Biso   1.000  C
  N100     1.0000 0.08100  0.61980  0.93250  Biso   1.000  N
  C125     1.0000 0.05930  0.61660  0.89594  Biso   1.000  C
  H25      1.0000 0.00310  0.60910  0.88780  Biso   1.000  H
  Co26     1.0000 0.75379  0.88960  0.23158  Biso   1.000  Co
  N101     1.0000 0.92600  0.94320  0.25860  Biso   1.000  N
  O101     1.0000 0.08230  0.91080  0.27589  Biso   1.000  O
  C126     1.0000 0.97010  0.99450  0.27759  Biso   1.000  C
  C127     1.0000 0.05930  0.97280  0.28810  Biso   1.000  C
  O102     1.0000 0.99070  0.15170  0.31220  Biso   1.000  O
  O103     1.0000 0.85020  0.15840  0.30570  Biso   1.000  O
  N102     1.0000 0.83800  0.03080  0.27115  Biso   1.000  N
  O104     1.0000 0.10430  0.01270  0.30976  Biso   1.000  O
  C128     1.0000 0.92000  0.12620  0.30281  Biso   1.000  C
  N103     1.0000 0.84570  0.96520  0.25529  Biso   1.000  N
  C129     1.0000 0.91450  0.05120  0.28534  Biso   1.000  C
  N104     1.0000 0.08100  0.11980  0.43250  Biso   1.000  N
  C130     1.0000 0.05930  0.11660  0.39594  Biso   1.000  C
  H26      1.0000 0.00310  0.10910  0.38780  Biso   1.000  H
  Co27     1.0000 0.25379  0.38960  0.23158  Biso   1.000  Co
  N105     1.0000 0.42600  0.44320  0.25860  Biso   1.000  N
  O105     1.0000 0.58230  0.41080  0.27589  Biso   1.000  O
  C131     1.0000 0.47010  0.49450  0.27759  Biso   1.000  C
  C132     1.0000 0.55930  0.47280  0.28810  Biso   1.000  C
  O106     1.0000 0.49070  0.65170  0.31220  Biso   1.000  O
  O107     1.0000 0.35020  0.65840  0.30570  Biso   1.000  O
  N106     1.0000 0.33800  0.53080  0.27115  Biso   1.000  N
  O108     1.0000 0.60430  0.51270  0.30976  Biso   1.000  O
  C133     1.0000 0.42000  0.62620  0.30281  Biso   1.000  C
  N107     1.0000 0.34570  0.46520  0.25529  Biso   1.000  N
  C134     1.0000 0.41450  0.55120  0.28534  Biso   1.000  C
  N108     1.0000 0.58100  0.61980  0.43250  Biso   1.000  N
  C135     1.0000 0.55930  0.61660  0.39594  Biso   1.000  C
  H27      1.0000 0.50310  0.60910  0.38780  Biso   1.000  H
  Co28     1.0000 0.25379  0.88960  0.73158  Biso   1.000  Co
  N109     1.0000 0.42600  0.94320  0.75860  Biso   1.000  N
  O109     1.0000 0.58230  0.91080  0.77589  Biso   1.000  O
  C136     1.0000 0.47010  0.99450  0.77759  Biso   1.000  C
  C137     1.0000 0.55930  0.97280  0.78810  Biso   1.000  C
  O110     1.0000 0.49070  0.15170  0.81220  Biso   1.000  O
  O111     1.0000 0.35020  0.15840  0.80570  Biso   1.000  O
  N110     1.0000 0.33800  0.03080  0.77115  Biso   1.000  N
  O112     1.0000 0.60430  0.01270  0.80976  Biso   1.000  O
  C138     1.0000 0.42000  0.12620  0.80281  Biso   1.000  C
  N111     1.0000 0.34570  0.96520  0.75529  Biso   1.000  N
  C139     1.0000 0.41450  0.05120  0.78534  Biso   1.000  C
  N112     1.0000 0.58100  0.11980  0.93250  Biso   1.000  N
  C140     1.0000 0.55930  0.11660  0.89594  Biso   1.000  C
  H28      1.0000 0.50310  0.10910  0.88780  Biso   1.000  H
  Co29     1.0000 0.49621  0.86040  0.73158  Biso   1.000  Co
  N113     1.0000 0.32400  0.80680  0.75860  Biso   1.000  N
  O113     1.0000 0.16770  0.83920  0.77589  Biso   1.000  O
  C141     1.0000 0.27990  0.75550  0.77759  Biso   1.000  C
  C142     1.0000 0.19070  0.77720  0.78810  Biso   1.000  C
  O114     1.0000 0.25930  0.59830  0.81220  Biso   1.000  O
  O115     1.0000 0.39980  0.59160  0.80570  Biso   1.000  O
  N114     1.0000 0.41200  0.71920  0.77115  Biso   1.000  N
  O116     1.0000 0.14570  0.73730  0.80976  Biso   1.000  O
  C143     1.0000 0.33000  0.62380  0.80281  Biso   1.000  C
  N115     1.0000 0.40430  0.78480  0.75529  Biso   1.000  N
  C144     1.0000 0.33550  0.69880  0.78534  Biso   1.000  C
  N116     1.0000 0.16900  0.63020  0.93250  Biso   1.000  N
  C145     1.0000 0.19070  0.63340  0.89594  Biso   1.000  C
  H29      1.0000 0.24690  0.64090  0.88780  Biso   1.000  H
  Co30     1.0000 0.49621  0.36040  0.23158  Biso   1.000  Co
  N117     1.0000 0.32400  0.30680  0.25860  Biso   1.000  N
  O117     1.0000 0.16770  0.33920  0.27589  Biso   1.000  O
  C146     1.0000 0.27990  0.25550  0.27759  Biso   1.000  C
  C147     1.0000 0.19070  0.27720  0.28810  Biso   1.000  C
  O118     1.0000 0.25930  0.09830  0.31220  Biso   1.000  O
  O119     1.0000 0.39980  0.09160  0.30570  Biso   1.000  O
  N118     1.0000 0.41200  0.21920  0.27115  Biso   1.000  N
  O120     1.0000 0.14570  0.23730  0.30976  Biso   1.000  O
  C148     1.0000 0.33000  0.12380  0.30281  Biso   1.000  C
  N119     1.0000 0.40430  0.28480  0.25529  Biso   1.000  N
  C149     1.0000 0.33550  0.19880  0.28534  Biso   1.000  C
  N120     1.0000 0.16900  0.13020  0.43250  Biso   1.000  N
  C150     1.0000 0.19070  0.13340  0.39594  Biso   1.000  C
  H30      1.0000 0.24690  0.14090  0.38780  Biso   1.000  H
  Co31     1.0000 0.99621  0.86040  0.23158  Biso   1.000  Co
  N121     1.0000 0.82400  0.80680  0.25860  Biso   1.000  N
  O121     1.0000 0.66770  0.83920  0.27589  Biso   1.000  O
  C151     1.0000 0.77990  0.75550  0.27759  Biso   1.000  C
  C152     1.0000 0.69070  0.77720  0.28810  Biso   1.000  C
  O122     1.0000 0.75930  0.59830  0.31220  Biso   1.000  O
  O123     1.0000 0.89980  0.59160  0.30570  Biso   1.000  O
  N122     1.0000 0.91200  0.71920  0.27115  Biso   1.000  N
  O124     1.0000 0.64570  0.73730  0.30976  Biso   1.000  O
  C153     1.0000 0.83000  0.62380  0.30281  Biso   1.000  C
  N123     1.0000 0.90430  0.78480  0.25529  Biso   1.000  N
  C154     1.0000 0.83550  0.69880  0.28534  Biso   1.000  C
  N124     1.0000 0.66900  0.63020  0.43250  Biso   1.000  N
  C155     1.0000 0.69070  0.63340  0.39594  Biso   1.000  C
  H31      1.0000 0.74690  0.64090  0.38780  Biso   1.000  H
  Co32     1.0000 0.99621  0.36040  0.73158  Biso   1.000  Co
  N125     1.0000 0.82400  0.30680  0.75860  Biso   1.000  N
  O125     1.0000 0.66770  0.33920  0.77589  Biso   1.000  O
  C156     1.0000 0.77990  0.25550  0.77759  Biso   1.000  C
  C157     1.0000 0.69070  0.27720  0.78810  Biso   1.000  C
  O126     1.0000 0.75930  0.09830  0.81220  Biso   1.000  O
  O127     1.0000 0.89980  0.09160  0.80570  Biso   1.000  O
  N126     1.0000 0.91200  0.21920  0.77115  Biso   1.000  N
  O128     1.0000 0.64570  0.23730  0.80976  Biso   1.000  O
  C158     1.0000 0.83000  0.12380  0.80281  Biso   1.000  C
  N127     1.0000 0.90430  0.28480  0.75529  Biso   1.000  N
  C159     1.0000 0.83550  0.19880  0.78534  Biso   1.000  C
  N128     1.0000 0.66900  0.13020  0.93250  Biso   1.000  N
  C160     1.0000 0.69070  0.13340  0.89594  Biso   1.000  C
  H32      1.0000 0.74690  0.14090  0.88780  Biso   1.000  H
  Co33     1.0000 0.87500  0.37500  0.56079  Biso   1.000  Co
  N129     1.0000 0.87500  0.37500  0.62090  Biso   1.000  N
  Co34     1.0000 0.87500  0.87500  0.06079  Biso   1.000  Co
  N130     1.0000 0.87500  0.87500  0.12090  Biso   1.000  N
  Co35     1.0000 0.37500  0.37500  0.06079  Biso   1.000  Co
  N131     1.0000 0.37500  0.37500  0.12090  Biso   1.000  N
  Co36     1.0000 0.37500  0.87500  0.56079  Biso   1.000  Co
  N132     1.0000 0.37500  0.87500  0.62090  Biso   1.000  N
  Co37     1.0000 0.87500  0.37500  0.18921  Biso   1.000  Co
  N133     1.0000 0.87500  0.37500  0.12910  Biso   1.000  N
  Co38     1.0000 0.87500  0.87500  0.68921  Biso   1.000  Co
  N134     1.0000 0.87500  0.87500  0.62910  Biso   1.000  N
  Co39     1.0000 0.37500  0.37500  0.68921  Biso   1.000  Co
  N135     1.0000 0.37500  0.37500  0.62910  Biso   1.000  N
  Co40     1.0000 0.37500  0.87500  0.18921  Biso   1.000  Co
  N136     1.0000 0.37500  0.87500  0.12910  Biso   1.000  N
  Co41     1.0000 0.12500  0.62500  0.43921  Biso   1.000  Co
  N137     1.0000 0.12500  0.62500  0.37910  Biso   1.000  N
  Co42     1.0000 0.12500  0.12500  0.93921  Biso   1.000  Co
  N138     1.0000 0.12500  0.12500  0.87910  Biso   1.000  N
  Co43     1.0000 0.62500  0.62500  0.93921  Biso   1.000  Co
  N139     1.0000 0.62500  0.62500  0.87910  Biso   1.000  N
  Co44     1.0000 0.62500  0.12500  0.43921  Biso   1.000  Co
  N140     1.0000 0.62500  0.12500  0.37910  Biso   1.000  N
  Co45     1.0000 0.12500  0.62500  0.81079  Biso   1.000  Co
  N141     1.0000 0.12500  0.62500  0.87090  Biso   1.000  N
  Co46     1.0000 0.12500  0.12500  0.31079  Biso   1.000  Co
  N142     1.0000 0.12500  0.12500  0.37090  Biso   1.000  N
  Co47     1.0000 0.62500  0.62500  0.31079  Biso   1.000  Co
  N143     1.0000 0.62500  0.62500  0.37090  Biso   1.000  N
  Co48     1.0000 0.62500  0.12500  0.81079  Biso   1.000  Co
  N144     1.0000 0.62500  0.12500  0.87090  Biso   1.000  N
