data_IGAHAB_clean
_audit_creation_date              2014-07-02
_audit_creation_method            'Materials Studio'
_symmetry_space_group_name_H-M    'P1'
_symmetry_Int_Tables_number       1
_symmetry_cell_setting            triclinic
loop_
_symmetry_equiv_pos_as_xyz
  x,y,z
_cell_length_a                    13.4690
_cell_length_b                    13.4690
_cell_length_c                    27.5100
_cell_angle_alpha                 90.0000
_cell_angle_beta                  90.0000
_cell_angle_gamma                 120.0000
loop_
_atom_site_label
_atom_site_type_symbol
_atom_site_fract_x
_atom_site_fract_y
_atom_site_fract_z
_atom_site_U_iso_or_equiv
_atom_site_adp_type
_atom_site_occupancy
Cr1    Cr    0.48550   0.79020   0.75000   0.01267  Uiso   1.00
Cr2    Cr    0.30470   0.51450   0.75000   0.01267  Uiso   1.00
Cr3    Cr    0.20980   0.69530   0.75000   0.01267  Uiso   1.00
Cr4    Cr    0.30470   0.79020   0.25000   0.01267  Uiso   1.00
Cr5    Cr    0.20980   0.51450   0.25000   0.01267  Uiso   1.00
Cr6    Cr    0.48550   0.69530   0.25000   0.01267  Uiso   1.00
Cu1    Cu    0.77780   0.88890   0.00000   0.01267  Uiso   1.00
Cu2    Cu    0.11110   0.22220   0.00000   0.01267  Uiso   1.00
Cu3    Cu    0.11110   0.88890   0.00000   0.01267  Uiso   1.00
Cu4    Cu    0.77780   0.88890   0.50000   0.01267  Uiso   1.00
Cu5    Cu    0.11110   0.22220   0.50000   0.01267  Uiso   1.00
Cu6    Cu    0.11110   0.88890   0.50000   0.01267  Uiso   1.00
H1     H     0.83710   0.85030   0.92060   0.01267  Uiso   1.00
H2     H     0.84660   0.77490   0.95620   0.01267  Uiso   1.00
H3     H     0.54520   0.42470   0.93950   0.01267  Uiso   1.00
H4     H     0.70160   0.58800   0.97170   0.01267  Uiso   1.00
H5     H     0.66630   0.78160   0.86880   0.01267  Uiso   1.00
H6     H     0.44930   0.43990   0.87200   0.01267  Uiso   1.00
H7     H     0.01320   0.16290   0.92060   0.01267  Uiso   1.00
H8     H     0.92830   0.15340   0.95620   0.01267  Uiso   1.00
H9     H     0.87950   0.45480   0.93950   0.01267  Uiso   1.00
H10    H     0.88640   0.29840   0.97170   0.01267  Uiso   1.00
H11    H     0.11530   0.33370   0.86880   0.01267  Uiso   1.00
H12    H     0.99060   0.55070   0.87200   0.01267  Uiso   1.00
H13    H     0.14970   0.98680   0.92060   0.01267  Uiso   1.00
H14    H     0.22510   0.07170   0.95620   0.01267  Uiso   1.00
H15    H     0.57530   0.12050   0.93950   0.01267  Uiso   1.00
H16    H     0.41200   0.11360   0.97170   0.01267  Uiso   1.00
H17    H     0.21840   0.88470   0.86880   0.01267  Uiso   1.00
H18    H     0.56010   0.00940   0.87200   0.01267  Uiso   1.00
H19    H     0.83710   0.85030   0.57940   0.01267  Uiso   1.00
H20    H     0.84660   0.77490   0.54380   0.01267  Uiso   1.00
H21    H     0.54520   0.42470   0.56050   0.01267  Uiso   1.00
H22    H     0.70160   0.58800   0.52830   0.01267  Uiso   1.00
H23    H     0.66630   0.78160   0.63120   0.01267  Uiso   1.00
H24    H     0.44930   0.43990   0.62800   0.01267  Uiso   1.00
H25    H     0.01320   0.16290   0.57940   0.01267  Uiso   1.00
H26    H     0.92830   0.15340   0.54380   0.01267  Uiso   1.00
H27    H     0.87950   0.45480   0.56050   0.01267  Uiso   1.00
H28    H     0.88640   0.29840   0.52830   0.01267  Uiso   1.00
H29    H     0.11530   0.33370   0.63120   0.01267  Uiso   1.00
H30    H     0.99060   0.55070   0.62800   0.01267  Uiso   1.00
H31    H     0.14970   0.98680   0.57940   0.01267  Uiso   1.00
H32    H     0.22510   0.07170   0.54380   0.01267  Uiso   1.00
H33    H     0.57530   0.12050   0.56050   0.01267  Uiso   1.00
H34    H     0.41200   0.11360   0.52830   0.01267  Uiso   1.00
H35    H     0.21840   0.88470   0.63120   0.01267  Uiso   1.00
H36    H     0.56010   0.00940   0.62800   0.01267  Uiso   1.00
H37    H     0.01320   0.85030   0.42060   0.01267  Uiso   1.00
H38    H     0.92830   0.77490   0.45620   0.01267  Uiso   1.00
H39    H     0.87950   0.42470   0.43950   0.01267  Uiso   1.00
H40    H     0.88640   0.58800   0.47170   0.01267  Uiso   1.00
H41    H     0.11530   0.78160   0.36880   0.01267  Uiso   1.00
H42    H     0.99060   0.43990   0.37200   0.01267  Uiso   1.00
H43    H     0.14970   0.16290   0.42060   0.01267  Uiso   1.00
H44    H     0.22510   0.15340   0.45620   0.01267  Uiso   1.00
H45    H     0.57530   0.45480   0.43950   0.01267  Uiso   1.00
H46    H     0.41200   0.29840   0.47170   0.01267  Uiso   1.00
H47    H     0.21840   0.33370   0.36880   0.01267  Uiso   1.00
H48    H     0.56010   0.55070   0.37200   0.01267  Uiso   1.00
H49    H     0.83710   0.98680   0.42060   0.01267  Uiso   1.00
H50    H     0.84660   0.07170   0.45620   0.01267  Uiso   1.00
H51    H     0.54520   0.12050   0.43950   0.01267  Uiso   1.00
H52    H     0.70160   0.11360   0.47170   0.01267  Uiso   1.00
H53    H     0.66630   0.88470   0.36880   0.01267  Uiso   1.00
H54    H     0.44930   0.00940   0.37200   0.01267  Uiso   1.00
H55    H     0.01320   0.85030   0.07940   0.01267  Uiso   1.00
H56    H     0.92830   0.77490   0.04380   0.01267  Uiso   1.00
H57    H     0.87950   0.42470   0.06050   0.01267  Uiso   1.00
H58    H     0.88640   0.58800   0.02830   0.01267  Uiso   1.00
H59    H     0.11530   0.78160   0.13120   0.01267  Uiso   1.00
H60    H     0.99060   0.43990   0.12800   0.01267  Uiso   1.00
H61    H     0.14970   0.16290   0.07940   0.01267  Uiso   1.00
H62    H     0.22510   0.15340   0.04380   0.01267  Uiso   1.00
H63    H     0.57530   0.45480   0.06050   0.01267  Uiso   1.00
H64    H     0.41200   0.29840   0.02830   0.01267  Uiso   1.00
H65    H     0.21840   0.33370   0.13120   0.01267  Uiso   1.00
H66    H     0.56010   0.55070   0.12800   0.01267  Uiso   1.00
H67    H     0.83710   0.98680   0.07940   0.01267  Uiso   1.00
H68    H     0.84660   0.07170   0.04380   0.01267  Uiso   1.00
H69    H     0.54520   0.12050   0.06050   0.01267  Uiso   1.00
H70    H     0.70160   0.11360   0.02830   0.01267  Uiso   1.00
H71    H     0.66630   0.88470   0.13120   0.01267  Uiso   1.00
H72    H     0.44930   0.00940   0.12800   0.01267  Uiso   1.00
C1     C     0.56960   0.49670   0.92530   0.01267  Uiso   1.00
C2     C     0.66300   0.59420   0.94450   0.01267  Uiso   1.00
C3     C     0.69910   0.70060   0.92340   0.01267  Uiso   1.00
C4     C     0.64190   0.70960   0.88310   0.01267  Uiso   1.00
C5     C     0.54860   0.61230   0.86390   0.01267  Uiso   1.00
C6     C     0.51240   0.50570   0.88500   0.01267  Uiso   1.00
C7     C     0.49570   0.62880   0.81920   0.01267  Uiso   1.00
C8     C     0.92710   0.43040   0.92530   0.01267  Uiso   1.00
C9     C     0.93120   0.33700   0.94450   0.01267  Uiso   1.00
C10    C     0.00150   0.30090   0.92340   0.01267  Uiso   1.00
C11    C     0.06770   0.35810   0.88310   0.01267  Uiso   1.00
C12    C     0.06370   0.45140   0.86390   0.01267  Uiso   1.00
C13    C     0.99330   0.48760   0.88500   0.01267  Uiso   1.00
C14    C     0.13310   0.50430   0.81920   0.01267  Uiso   1.00
C15    C     0.50330   0.07290   0.92530   0.01267  Uiso   1.00
C16    C     0.40580   0.06880   0.94450   0.01267  Uiso   1.00
C17    C     0.29940   0.99850   0.92340   0.01267  Uiso   1.00
C18    C     0.29040   0.93230   0.88310   0.01267  Uiso   1.00
C19    C     0.38770   0.93630   0.86390   0.01267  Uiso   1.00
C20    C     0.49430   0.00670   0.88500   0.01267  Uiso   1.00
C21    C     0.37120   0.86690   0.81920   0.01267  Uiso   1.00
C22    C     0.56960   0.49670   0.57470   0.01267  Uiso   1.00
C23    C     0.66300   0.59420   0.55550   0.01267  Uiso   1.00
C24    C     0.69910   0.70060   0.57660   0.01267  Uiso   1.00
C25    C     0.64190   0.70960   0.61690   0.01267  Uiso   1.00
C26    C     0.54860   0.61230   0.63610   0.01267  Uiso   1.00
C27    C     0.51240   0.50570   0.61500   0.01267  Uiso   1.00
C28    C     0.49570   0.62880   0.68080   0.01267  Uiso   1.00
C29    C     0.92710   0.43040   0.57470   0.01267  Uiso   1.00
C30    C     0.93120   0.33700   0.55550   0.01267  Uiso   1.00
C31    C     0.00150   0.30090   0.57660   0.01267  Uiso   1.00
C32    C     0.06770   0.35810   0.61690   0.01267  Uiso   1.00
C33    C     0.06370   0.45140   0.63610   0.01267  Uiso   1.00
C34    C     0.99330   0.48760   0.61500   0.01267  Uiso   1.00
C35    C     0.13310   0.50430   0.68080   0.01267  Uiso   1.00
C36    C     0.50330   0.07290   0.57470   0.01267  Uiso   1.00
C37    C     0.40580   0.06880   0.55550   0.01267  Uiso   1.00
C38    C     0.29940   0.99850   0.57660   0.01267  Uiso   1.00
C39    C     0.29040   0.93230   0.61690   0.01267  Uiso   1.00
C40    C     0.38770   0.93630   0.63610   0.01267  Uiso   1.00
C41    C     0.49430   0.00670   0.61500   0.01267  Uiso   1.00
C42    C     0.37120   0.86690   0.68080   0.01267  Uiso   1.00
C43    C     0.92710   0.49670   0.42530   0.01267  Uiso   1.00
C44    C     0.93120   0.59420   0.44450   0.01267  Uiso   1.00
C45    C     0.00150   0.70060   0.42340   0.01267  Uiso   1.00
C46    C     0.06770   0.70960   0.38310   0.01267  Uiso   1.00
C47    C     0.06370   0.61230   0.36390   0.01267  Uiso   1.00
C48    C     0.99330   0.50570   0.38500   0.01267  Uiso   1.00
C49    C     0.13310   0.62880   0.31920   0.01267  Uiso   1.00
C50    C     0.50330   0.43040   0.42530   0.01267  Uiso   1.00
C51    C     0.40580   0.33700   0.44450   0.01267  Uiso   1.00
C52    C     0.29940   0.30090   0.42340   0.01267  Uiso   1.00
C53    C     0.29040   0.35810   0.38310   0.01267  Uiso   1.00
C54    C     0.38770   0.45140   0.36390   0.01267  Uiso   1.00
C55    C     0.49430   0.48760   0.38500   0.01267  Uiso   1.00
C56    C     0.37120   0.50430   0.31920   0.01267  Uiso   1.00
C57    C     0.56960   0.07290   0.42530   0.01267  Uiso   1.00
C58    C     0.66300   0.06880   0.44450   0.01267  Uiso   1.00
C59    C     0.69910   0.99850   0.42340   0.01267  Uiso   1.00
C60    C     0.64190   0.93230   0.38310   0.01267  Uiso   1.00
C61    C     0.54860   0.93630   0.36390   0.01267  Uiso   1.00
C62    C     0.51240   0.00670   0.38500   0.01267  Uiso   1.00
C63    C     0.49570   0.86690   0.31920   0.01267  Uiso   1.00
C64    C     0.92710   0.49670   0.07470   0.01267  Uiso   1.00
C65    C     0.93120   0.59420   0.05550   0.01267  Uiso   1.00
C66    C     0.00150   0.70060   0.07660   0.01267  Uiso   1.00
C67    C     0.06770   0.70960   0.11690   0.01267  Uiso   1.00
C68    C     0.06370   0.61230   0.13610   0.01267  Uiso   1.00
C69    C     0.99330   0.50570   0.11500   0.01267  Uiso   1.00
C70    C     0.13310   0.62880   0.18080   0.01267  Uiso   1.00
C71    C     0.50330   0.43040   0.07470   0.01267  Uiso   1.00
C72    C     0.40580   0.33700   0.05550   0.01267  Uiso   1.00
C73    C     0.29940   0.30090   0.07660   0.01267  Uiso   1.00
C74    C     0.29040   0.35810   0.11690   0.01267  Uiso   1.00
C75    C     0.38770   0.45140   0.13610   0.01267  Uiso   1.00
C76    C     0.49430   0.48760   0.11500   0.01267  Uiso   1.00
C77    C     0.37120   0.50430   0.18080   0.01267  Uiso   1.00
C78    C     0.56960   0.07290   0.07470   0.01267  Uiso   1.00
C79    C     0.66300   0.06880   0.05550   0.01267  Uiso   1.00
C80    C     0.69910   0.99850   0.07660   0.01267  Uiso   1.00
C81    C     0.64190   0.93230   0.11690   0.01267  Uiso   1.00
C82    C     0.54860   0.93630   0.13610   0.01267  Uiso   1.00
C83    C     0.51240   0.00670   0.11500   0.01267  Uiso   1.00
C84    C     0.49570   0.86690   0.18080   0.01267  Uiso   1.00
N1     N     0.79920   0.79970   0.94500   0.01267  Uiso   1.00
N2     N     0.00050   0.20080   0.94500   0.01267  Uiso   1.00
N3     N     0.20030   0.99950   0.94500   0.01267  Uiso   1.00
N4     N     0.79920   0.79970   0.55500   0.01267  Uiso   1.00
N5     N     0.00050   0.20080   0.55500   0.01267  Uiso   1.00
N6     N     0.20030   0.99950   0.55500   0.01267  Uiso   1.00
N7     N     0.00050   0.79970   0.44500   0.01267  Uiso   1.00
N8     N     0.20030   0.20080   0.44500   0.01267  Uiso   1.00
N9     N     0.79920   0.99950   0.44500   0.01267  Uiso   1.00
N10    N     0.00050   0.79970   0.05500   0.01267  Uiso   1.00
N11    N     0.20030   0.20080   0.05500   0.01267  Uiso   1.00
N12    N     0.79920   0.99950   0.05500   0.01267  Uiso   1.00
Cl1    Cl    0.74000   0.74140   0.05315   0.01267  Uiso   1.00
Cl2    Cl    0.00140   0.26000   0.05315   0.01267  Uiso   1.00
Cl3    Cl    0.25860   0.99860   0.05315   0.01267  Uiso   1.00
Cl4    Cl    0.74000   0.74140   0.44685   0.01267  Uiso   1.00
Cl5    Cl    0.00140   0.26000   0.44685   0.01267  Uiso   1.00
Cl6    Cl    0.25860   0.99860   0.44685   0.01267  Uiso   1.00
Cl7    Cl    0.00140   0.74140   0.55315   0.01267  Uiso   1.00
Cl8    Cl    0.25860   0.26000   0.55315   0.01267  Uiso   1.00
Cl9    Cl    0.74000   0.99860   0.55315   0.01267  Uiso   1.00
Cl10   Cl    0.00140   0.74140   0.94685   0.01267  Uiso   1.00
Cl11   Cl    0.25860   0.26000   0.94685   0.01267  Uiso   1.00
Cl12   Cl    0.74000   0.99860   0.94685   0.01267  Uiso   1.00
Cl13   Cl    0.00000   0.00000   0.00000   0.01267  Uiso   1.00
Cl14   Cl    0.00000   0.00000   0.50000   0.01267  Uiso   1.00
O1     O     0.53400   0.72550   0.80310   0.01267  Uiso   1.00
O2     O     0.41710   0.54270   0.80360   0.01267  Uiso   1.00
O3     O     0.19150   0.46600   0.80310   0.01267  Uiso   1.00
O4     O     0.12560   0.58290   0.80360   0.01267  Uiso   1.00
O5     O     0.27450   0.80850   0.80310   0.01267  Uiso   1.00
O6     O     0.45730   0.87440   0.80360   0.01267  Uiso   1.00
O7     O     0.53400   0.72550   0.69690   0.01267  Uiso   1.00
O8     O     0.41710   0.54270   0.69640   0.01267  Uiso   1.00
O9     O     0.19150   0.46600   0.69690   0.01267  Uiso   1.00
O10    O     0.12560   0.58290   0.69640   0.01267  Uiso   1.00
O11    O     0.27450   0.80850   0.69690   0.01267  Uiso   1.00
O12    O     0.45730   0.87440   0.69640   0.01267  Uiso   1.00
O13    O     0.19150   0.72550   0.30310   0.01267  Uiso   1.00
O14    O     0.12560   0.54270   0.30360   0.01267  Uiso   1.00
O15    O     0.27450   0.46600   0.30310   0.01267  Uiso   1.00
O16    O     0.45730   0.58290   0.30360   0.01267  Uiso   1.00
O17    O     0.53400   0.80850   0.30310   0.01267  Uiso   1.00
O18    O     0.41710   0.87440   0.30360   0.01267  Uiso   1.00
O19    O     0.19150   0.72550   0.19690   0.01267  Uiso   1.00
O20    O     0.12560   0.54270   0.19640   0.01267  Uiso   1.00
O21    O     0.27450   0.46600   0.19690   0.01267  Uiso   1.00
O22    O     0.45730   0.58290   0.19640   0.01267  Uiso   1.00
O23    O     0.53400   0.80850   0.19690   0.01267  Uiso   1.00
O24    O     0.41710   0.87440   0.19640   0.01267  Uiso   1.00
O25    O     0.33333   0.66666   0.75000   0.01267  Uiso   1.00
O26    O     0.33333   0.66666   0.25000   0.01267  Uiso   1.00
