data_IGAHED_clean
_audit_creation_date              2014-07-02
_audit_creation_method            'Materials Studio'
_symmetry_space_group_name_H-M    'P1'
_symmetry_Int_Tables_number       1
_symmetry_cell_setting            triclinic
loop_
_symmetry_equiv_pos_as_xyz
  x,y,z
_cell_length_a                    6.9575
_cell_length_b                    7.4383
_cell_length_c                    8.2578
_cell_angle_alpha                 90.3665
_cell_angle_beta                  109.8030
_cell_angle_gamma                 93.2398
loop_
_atom_site_label
_atom_site_type_symbol
_atom_site_fract_x
_atom_site_fract_y
_atom_site_fract_z
_atom_site_U_iso_or_equiv
_atom_site_adp_type
_atom_site_occupancy
Co1    Co    0.49749   0.50050   0.00040   0.01267  Uiso   1.00
Co2    Co    0.00000   0.00000   0.00000   0.01267  Uiso   1.00
H1     H     0.41906   0.29548   0.54038   0.01267  Uiso   1.00
H2     H     0.57101   0.70531   0.45781   0.01267  Uiso   1.00
C1     C     0.45988   0.93370   0.33472   0.01267  Uiso   1.00
C2     C     0.44993   0.17539   0.52409   0.01267  Uiso   1.00
C3     C     0.41483   0.10799   0.35901   0.01267  Uiso   1.00
C4     C     0.34895   0.24118   0.21653   0.01267  Uiso   1.00
C5     C     0.41952   0.84379   0.15953   0.01267  Uiso   1.00
C6     C     0.53228   0.06910   0.66758   0.01267  Uiso   1.00
C7     C     0.57952   0.89091   0.64229   0.01267  Uiso   1.00
C8     C     0.54174   0.82571   0.47511   0.01267  Uiso   1.00
C9     C     0.64479   0.75922   0.78577   0.01267  Uiso   1.00
C10    C     0.57194   0.15771   0.83946   0.01267  Uiso   1.00
O1     O     0.50863   0.64285   0.78782   0.01267  Uiso   1.00
O2     O     0.48222   0.36185   0.21458   0.01267  Uiso   1.00
O3     O     0.44084   0.26165   0.85102   0.01267  Uiso   1.00
O4     O     0.55281   0.74135   0.14938   0.01267  Uiso   1.00
O5     O     0.73193   0.12825   0.96428   0.01267  Uiso   1.00
O6     O     0.82647   0.76866   0.89049   0.01267  Uiso   1.00
O7     O     0.16518   0.23344   0.11291   0.01267  Uiso   1.00
O8     O     0.25763   0.86865   0.03902   0.01267  Uiso   1.00
