data_IGAHED01_clean
_audit_creation_date              2014-07-02
_audit_creation_method            'Materials Studio'
_symmetry_space_group_name_H-M    'P1'
_symmetry_Int_Tables_number       1
_symmetry_cell_setting            triclinic
loop_
_symmetry_equiv_pos_as_xyz
  x,y,z
_cell_length_a                    6.9362
_cell_length_b                    7.4559
_cell_length_c                    8.2797
_cell_angle_alpha                 90.3420
_cell_angle_beta                  109.8480
_cell_angle_gamma                 93.1610
loop_
_atom_site_label
_atom_site_type_symbol
_atom_site_fract_x
_atom_site_fract_y
_atom_site_fract_z
_atom_site_U_iso_or_equiv
_atom_site_adp_type
_atom_site_occupancy
Co1    Co    0.00000   0.00000   0.50000   0.01267  Uiso   1.00
Co2    Co    0.50000   0.50000   0.50000   0.01267  Uiso   1.00
H1     H     0.57590   0.70880   0.96010   0.01267  Uiso   1.00
H2     H     0.42410   0.29120   0.03990   0.01267  Uiso   1.00
C1     C     0.64770   0.75890   0.28450   0.01267  Uiso   1.00
C2     C     0.58070   0.89190   0.14260   0.01267  Uiso   1.00
C3     C     0.53600   0.06770   0.16670   0.01267  Uiso   1.00
C4     C     0.57540   0.15630   0.34040   0.01267  Uiso   1.00
C5     C     0.54510   0.82590   0.97620   0.01267  Uiso   1.00
C6     C     0.35230   0.24110   0.71550   0.01267  Uiso   1.00
C7     C     0.41930   0.10810   0.85740   0.01267  Uiso   1.00
C8     C     0.46400   0.93230   0.83330   0.01267  Uiso   1.00
C9     C     0.42460   0.84370   0.65960   0.01267  Uiso   1.00
C10    C     0.45490   0.17410   0.02380   0.01267  Uiso   1.00
O1     O     0.83060   0.76750   0.38810   0.01267  Uiso   1.00
O2     O     0.51250   0.64240   0.28770   0.01267  Uiso   1.00
O3     O     0.73550   0.12830   0.46220   0.01267  Uiso   1.00
O4     O     0.44300   0.26200   0.35010   0.01267  Uiso   1.00
O5     O     0.16940   0.23250   0.61190   0.01267  Uiso   1.00
O6     O     0.48750   0.35760   0.71230   0.01267  Uiso   1.00
O7     O     0.26450   0.87170   0.53780   0.01267  Uiso   1.00
O8     O     0.55700   0.73800   0.64990   0.01267  Uiso   1.00
