data_image0
_cell_length_a       10.8511
_cell_length_b       28.8803
_cell_length_c       19.155
_cell_angle_alpha    90
_cell_angle_beta     123.902
_cell_angle_gamma    90

_symmetry_space_group_name_H-M    "P 1"
_symmetry_int_tables_number       1

loop_
  _symmetry_equiv_pos_as_xyz
  'x, y, z'

loop_
  _atom_site_label
  _atom_site_occupancy
  _atom_site_fract_x
  _atom_site_fract_y
  _atom_site_fract_z
  _atom_site_thermal_displace_type
  _atom_site_B_iso_or_equiv
  _atom_site_type_symbol
  Eu1      1.0000 0.21901  0.23008  0.28564  Biso   1.000  Eu
  O1       1.0000 0.10570  0.16910  0.18240  Biso   1.000  O
  O2       1.0000 0.92010  0.21180  0.16180  Biso   1.000  O
  O3       1.0000 0.41520  0.78660  0.76220  Biso   1.000  O
  O4       1.0000 0.29080  0.27630  0.11310  Biso   1.000  O
  O5       1.0000 0.16240  0.26810  0.16770  Biso   1.000  O
  O6       1.0000 0.37590  0.63530  0.70580  Biso   1.000  O
  O7       1.0000 0.39870  0.25550  0.42630  Biso   1.000  O
  O8       1.0000 0.41770  0.29530  0.33900  Biso   1.000  O
  O9       1.0000 0.87730  0.70110  0.70510  Biso   1.000  O
  C1       1.0000 0.68470  0.10680  0.90510  Biso   1.000  C
  C2       1.0000 0.83030  0.08930  0.96660  Biso   1.000  C
  H1       1.0000 0.86320  0.06170  0.95740  Biso   1.000  H
  C3       1.0000 0.92100  0.11440  0.03990  Biso   1.000  C
  H2       1.0000 0.01790  0.10460  0.07840  Biso   1.000  H
  C4       1.0000 0.86910  0.15410  0.05640  Biso   1.000  C
  C5       1.0000 0.72720  0.17060  0.99770  Biso   1.000  C
  H3       1.0000 0.69340  0.19730  0.00910  Biso   1.000  H
  C6       1.0000 0.63690  0.14770  0.92330  Biso   1.000  C
  H4       1.0000 0.54280  0.15930  0.88400  Biso   1.000  H
  C7       1.0000 0.59120  0.08170  0.82430  Biso   1.000  C
  C8       1.0000 0.96800  0.18030  0.13860  Biso   1.000  C
  C9       1.0000 0.63110  0.93180  0.79900  Biso   1.000  C
  H5       1.0000 0.72000  0.94760  0.83360  Biso   1.000  H
  C10      1.0000 0.59160  0.03290  0.82410  Biso   1.000  C
  H6       1.0000 0.65380  0.01680  0.87400  Biso   1.000  H
  C11      1.0000 0.63230  0.88460  0.79730  Biso   1.000  C
  H7       1.0000 0.72120  0.86830  0.82760  Biso   1.000  H
  C12      1.0000 0.76420  0.31890  0.87940  Biso   1.000  C
  C13      1.0000 0.90100  0.32400  0.89100  Biso   1.000  C
  H8       1.0000 0.90380  0.33800  0.84810  Biso   1.000  H
  C14      1.0000 0.03110  0.31020  0.96040  Biso   1.000  C
  H9       1.0000 0.12020  0.31590  0.96560  Biso   1.000  H
  C15      1.0000 0.03040  0.28750  0.02330  Biso   1.000  C
  C16      1.0000 0.89570  0.28040  0.01490  Biso   1.000  C
  H10      1.0000 0.89200  0.26710  0.05790  Biso   1.000  H
  C17      1.0000 0.76650  0.29400  0.93930  Biso   1.000  C
  H11      1.0000 0.67590  0.28530  0.92990  Biso   1.000  H
  C18      1.0000 0.62590  0.34180  0.80960  Biso   1.000  C
  C19      1.0000 0.16900  0.27720  0.10480  Biso   1.000  C
  C20      1.0000 0.36540  0.49080  0.71390  Biso   1.000  C
  H12      1.0000 0.27580  0.47490  0.68890  Biso   1.000  H
  C21      1.0000 0.62640  0.38870  0.80610  Biso   1.000  C
  H13      1.0000 0.71450  0.40450  0.84260  Biso   1.000  H
  C22      1.0000 0.36670  0.53810  0.71570  Biso   1.000  C
  H14      1.0000 0.27800  0.55410  0.69380  Biso   1.000  H
  C23      1.0000 0.75800  0.38000  0.61240  Biso   1.000  C
  C24      1.0000 0.69900  0.39130  0.52990  Biso   1.000  C
  H15      1.0000 0.72830  0.41860  0.51730  Biso   1.000  H
  C25      1.0000 0.59490  0.36220  0.46370  Biso   1.000  C
  H16      1.0000 0.55440  0.37110  0.40830  Biso   1.000  H
  C26      1.0000 0.55340  0.32210  0.47920  Biso   1.000  C
  C27      1.0000 0.61100  0.31070  0.56310  Biso   1.000  C
  H17      1.0000 0.57930  0.28360  0.57470  Biso   1.000  H
  C28      1.0000 0.71160  0.33790  0.62780  Biso   1.000  C
  H18      1.0000 0.75040  0.32870  0.68290  Biso   1.000  H
  C29      1.0000 0.88200  0.40660  0.68270  Biso   1.000  C
  C30      1.0000 0.44660  0.28830  0.41130  Biso   1.000  C
  C31      1.0000 0.13310  0.55640  0.78310  Biso   1.000  C
  H19      1.0000 0.22230  0.54070  0.80530  Biso   1.000  H
  C32      1.0000 0.88200  0.45520  0.68400  Biso   1.000  C
  H20      1.0000 0.80230  0.47150  0.64010  Biso   1.000  H
  C33      1.0000 0.13240  0.60230  0.78290  Biso   1.000  C
  H21      1.0000 0.22200  0.61780  0.80510  Biso   1.000  H
  Eu2      1.0000 0.78099  0.23008  0.21436  Biso   1.000  Eu
  O10      1.0000 0.89430  0.16910  0.31760  Biso   1.000  O
  O11      1.0000 0.07990  0.21180  0.33820  Biso   1.000  O
  O12      1.0000 0.58480  0.78660  0.73780  Biso   1.000  O
  O13      1.0000 0.70920  0.27630  0.38690  Biso   1.000  O
  O14      1.0000 0.83760  0.26810  0.33230  Biso   1.000  O
  O15      1.0000 0.62410  0.63530  0.79420  Biso   1.000  O
  O16      1.0000 0.60130  0.25550  0.07370  Biso   1.000  O
  O17      1.0000 0.58230  0.29530  0.16100  Biso   1.000  O
  O18      1.0000 0.12270  0.70110  0.79490  Biso   1.000  O
  C34      1.0000 0.31530  0.10680  0.59490  Biso   1.000  C
  C35      1.0000 0.16970  0.08930  0.53340  Biso   1.000  C
  H22      1.0000 0.13680  0.06170  0.54260  Biso   1.000  H
  C36      1.0000 0.07900  0.11440  0.46010  Biso   1.000  C
  H23      1.0000 0.98210  0.10460  0.42160  Biso   1.000  H
  C37      1.0000 0.13090  0.15410  0.44360  Biso   1.000  C
  C38      1.0000 0.27280  0.17060  0.50230  Biso   1.000  C
  H24      1.0000 0.30660  0.19730  0.49090  Biso   1.000  H
  C39      1.0000 0.36310  0.14770  0.57670  Biso   1.000  C
  H25      1.0000 0.45720  0.15930  0.61600  Biso   1.000  H
  C40      1.0000 0.40880  0.08170  0.67570  Biso   1.000  C
  C41      1.0000 0.03200  0.18030  0.36140  Biso   1.000  C
  C42      1.0000 0.36890  0.93180  0.70100  Biso   1.000  C
  H26      1.0000 0.28000  0.94760  0.66640  Biso   1.000  H
  C43      1.0000 0.40840  0.03290  0.67590  Biso   1.000  C
  H27      1.0000 0.34620  0.01680  0.62600  Biso   1.000  H
  C44      1.0000 0.36770  0.88460  0.70270  Biso   1.000  C
  H28      1.0000 0.27880  0.86830  0.67240  Biso   1.000  H
  C45      1.0000 0.23580  0.31890  0.62060  Biso   1.000  C
  C46      1.0000 0.09900  0.32400  0.60900  Biso   1.000  C
  H29      1.0000 0.09620  0.33800  0.65190  Biso   1.000  H
  C47      1.0000 0.96890  0.31020  0.53960  Biso   1.000  C
  H30      1.0000 0.87980  0.31590  0.53440  Biso   1.000  H
  C48      1.0000 0.96960  0.28750  0.47670  Biso   1.000  C
  C49      1.0000 0.10430  0.28040  0.48510  Biso   1.000  C
  H31      1.0000 0.10800  0.26710  0.44210  Biso   1.000  H
  C50      1.0000 0.23350  0.29400  0.56070  Biso   1.000  C
  H32      1.0000 0.32410  0.28530  0.57010  Biso   1.000  H
  C51      1.0000 0.37410  0.34180  0.69040  Biso   1.000  C
  C52      1.0000 0.83100  0.27720  0.39520  Biso   1.000  C
  C53      1.0000 0.63460  0.49080  0.78610  Biso   1.000  C
  H33      1.0000 0.72420  0.47490  0.81110  Biso   1.000  H
  C54      1.0000 0.37360  0.38870  0.69390  Biso   1.000  C
  H34      1.0000 0.28550  0.40450  0.65740  Biso   1.000  H
  C55      1.0000 0.63330  0.53810  0.78430  Biso   1.000  C
  H35      1.0000 0.72200  0.55410  0.80620  Biso   1.000  H
  C56      1.0000 0.24200  0.38000  0.88760  Biso   1.000  C
  C57      1.0000 0.30100  0.39130  0.97010  Biso   1.000  C
  H36      1.0000 0.27170  0.41860  0.98270  Biso   1.000  H
  C58      1.0000 0.40510  0.36220  0.03630  Biso   1.000  C
  H37      1.0000 0.44560  0.37110  0.09170  Biso   1.000  H
  C59      1.0000 0.44660  0.32210  0.02080  Biso   1.000  C
  C60      1.0000 0.38900  0.31070  0.93690  Biso   1.000  C
  H38      1.0000 0.42070  0.28360  0.92530  Biso   1.000  H
  C61      1.0000 0.28840  0.33790  0.87220  Biso   1.000  C
  H39      1.0000 0.24960  0.32870  0.81710  Biso   1.000  H
  C62      1.0000 0.11800  0.40660  0.81730  Biso   1.000  C
  C63      1.0000 0.55340  0.28830  0.08870  Biso   1.000  C
  C64      1.0000 0.86690  0.55640  0.71690  Biso   1.000  C
  H40      1.0000 0.77770  0.54070  0.69470  Biso   1.000  H
  C65      1.0000 0.11800  0.45520  0.81600  Biso   1.000  C
  H41      1.0000 0.19770  0.47150  0.85990  Biso   1.000  H
  C66      1.0000 0.86760  0.60230  0.71710  Biso   1.000  C
  H42      1.0000 0.77800  0.61780  0.69490  Biso   1.000  H
  Eu3      1.0000 0.78099  0.76992  0.71436  Biso   1.000  Eu
  O19      1.0000 0.89430  0.83090  0.81760  Biso   1.000  O
  O20      1.0000 0.07990  0.78820  0.83820  Biso   1.000  O
  O21      1.0000 0.58480  0.21340  0.23780  Biso   1.000  O
  O22      1.0000 0.70920  0.72370  0.88690  Biso   1.000  O
  O23      1.0000 0.83760  0.73190  0.83230  Biso   1.000  O
  O24      1.0000 0.62410  0.36470  0.29420  Biso   1.000  O
  O25      1.0000 0.60130  0.74450  0.57370  Biso   1.000  O
  O26      1.0000 0.58230  0.70470  0.66100  Biso   1.000  O
  O27      1.0000 0.12270  0.29890  0.29490  Biso   1.000  O
  C67      1.0000 0.31530  0.89320  0.09490  Biso   1.000  C
  C68      1.0000 0.16970  0.91070  0.03340  Biso   1.000  C
  H43      1.0000 0.13680  0.93830  0.04260  Biso   1.000  H
  C69      1.0000 0.07900  0.88560  0.96010  Biso   1.000  C
  H44      1.0000 0.98210  0.89540  0.92160  Biso   1.000  H
  C70      1.0000 0.13090  0.84590  0.94360  Biso   1.000  C
  C71      1.0000 0.27280  0.82940  0.00230  Biso   1.000  C
  H45      1.0000 0.30660  0.80270  0.99090  Biso   1.000  H
  C72      1.0000 0.36310  0.85230  0.07670  Biso   1.000  C
  H46      1.0000 0.45720  0.84070  0.11600  Biso   1.000  H
  C73      1.0000 0.40880  0.91830  0.17570  Biso   1.000  C
  C74      1.0000 0.03200  0.81970  0.86140  Biso   1.000  C
  C75      1.0000 0.36890  0.06820  0.20100  Biso   1.000  C
  H47      1.0000 0.28000  0.05240  0.16640  Biso   1.000  H
  C76      1.0000 0.40840  0.96710  0.17590  Biso   1.000  C
  H48      1.0000 0.34620  0.98320  0.12600  Biso   1.000  H
  C77      1.0000 0.36770  0.11540  0.20270  Biso   1.000  C
  H49      1.0000 0.27880  0.13170  0.17240  Biso   1.000  H
  C78      1.0000 0.23580  0.68110  0.12060  Biso   1.000  C
  C79      1.0000 0.09900  0.67600  0.10900  Biso   1.000  C
  H50      1.0000 0.09620  0.66200  0.15190  Biso   1.000  H
  C80      1.0000 0.96890  0.68980  0.03960  Biso   1.000  C
  H51      1.0000 0.87980  0.68410  0.03440  Biso   1.000  H
  C81      1.0000 0.96960  0.71250  0.97670  Biso   1.000  C
  C82      1.0000 0.10430  0.71960  0.98510  Biso   1.000  C
  H52      1.0000 0.10800  0.73290  0.94210  Biso   1.000  H
  C83      1.0000 0.23350  0.70600  0.06070  Biso   1.000  C
  H53      1.0000 0.32410  0.71470  0.07010  Biso   1.000  H
  C84      1.0000 0.37410  0.65820  0.19040  Biso   1.000  C
  C85      1.0000 0.83100  0.72280  0.89520  Biso   1.000  C
  C86      1.0000 0.63460  0.50920  0.28610  Biso   1.000  C
  H54      1.0000 0.72420  0.52510  0.31110  Biso   1.000  H
  C87      1.0000 0.37360  0.61130  0.19390  Biso   1.000  C
  H55      1.0000 0.28550  0.59550  0.15740  Biso   1.000  H
  C88      1.0000 0.63330  0.46190  0.28430  Biso   1.000  C
  H56      1.0000 0.72200  0.44590  0.30620  Biso   1.000  H
  C89      1.0000 0.24200  0.62000  0.38760  Biso   1.000  C
  C90      1.0000 0.30100  0.60870  0.47010  Biso   1.000  C
  H57      1.0000 0.27170  0.58140  0.48270  Biso   1.000  H
  C91      1.0000 0.40510  0.63780  0.53630  Biso   1.000  C
  H58      1.0000 0.44560  0.62890  0.59170  Biso   1.000  H
  C92      1.0000 0.44660  0.67790  0.52080  Biso   1.000  C
  C93      1.0000 0.38900  0.68930  0.43690  Biso   1.000  C
  H59      1.0000 0.42070  0.71640  0.42530  Biso   1.000  H
  C94      1.0000 0.28840  0.66210  0.37220  Biso   1.000  C
  H60      1.0000 0.24960  0.67130  0.31710  Biso   1.000  H
  C95      1.0000 0.11800  0.59340  0.31730  Biso   1.000  C
  C96      1.0000 0.55340  0.71170  0.58870  Biso   1.000  C
  C97      1.0000 0.86690  0.44360  0.21690  Biso   1.000  C
  H61      1.0000 0.77770  0.45930  0.19470  Biso   1.000  H
  C98      1.0000 0.11800  0.54480  0.31600  Biso   1.000  C
  H62      1.0000 0.19770  0.52850  0.35990  Biso   1.000  H
  C99      1.0000 0.86760  0.39770  0.21710  Biso   1.000  C
  H63      1.0000 0.77800  0.38220  0.19490  Biso   1.000  H
  Eu4      1.0000 0.21901  0.76992  0.78564  Biso   1.000  Eu
  O28      1.0000 0.10570  0.83090  0.68240  Biso   1.000  O
  O29      1.0000 0.92010  0.78820  0.66180  Biso   1.000  O
  O30      1.0000 0.41520  0.21340  0.26220  Biso   1.000  O
  O31      1.0000 0.29080  0.72370  0.61310  Biso   1.000  O
  O32      1.0000 0.16240  0.73190  0.66770  Biso   1.000  O
  O33      1.0000 0.37590  0.36470  0.20580  Biso   1.000  O
  O34      1.0000 0.39870  0.74450  0.92630  Biso   1.000  O
  O35      1.0000 0.41770  0.70470  0.83900  Biso   1.000  O
  O36      1.0000 0.87730  0.29890  0.20510  Biso   1.000  O
  C100     1.0000 0.68470  0.89320  0.40510  Biso   1.000  C
  C101     1.0000 0.83030  0.91070  0.46660  Biso   1.000  C
  H64      1.0000 0.86320  0.93830  0.45740  Biso   1.000  H
  C102     1.0000 0.92100  0.88560  0.53990  Biso   1.000  C
  H65      1.0000 0.01790  0.89540  0.57840  Biso   1.000  H
  C103     1.0000 0.86910  0.84590  0.55640  Biso   1.000  C
  C104     1.0000 0.72720  0.82940  0.49770  Biso   1.000  C
  H66      1.0000 0.69340  0.80270  0.50910  Biso   1.000  H
  C105     1.0000 0.63690  0.85230  0.42330  Biso   1.000  C
  H67      1.0000 0.54280  0.84070  0.38400  Biso   1.000  H
  C106     1.0000 0.59120  0.91830  0.32430  Biso   1.000  C
  C107     1.0000 0.96800  0.81970  0.63860  Biso   1.000  C
  C108     1.0000 0.63110  0.06820  0.29900  Biso   1.000  C
  H68      1.0000 0.72000  0.05240  0.33360  Biso   1.000  H
  C109     1.0000 0.59160  0.96710  0.32410  Biso   1.000  C
  H69      1.0000 0.65380  0.98320  0.37400  Biso   1.000  H
  C110     1.0000 0.63230  0.11540  0.29730  Biso   1.000  C
  H70      1.0000 0.72120  0.13170  0.32760  Biso   1.000  H
  C111     1.0000 0.76420  0.68110  0.37940  Biso   1.000  C
  C112     1.0000 0.90100  0.67600  0.39100  Biso   1.000  C
  H71      1.0000 0.90380  0.66200  0.34810  Biso   1.000  H
  C113     1.0000 0.03110  0.68980  0.46040  Biso   1.000  C
  H72      1.0000 0.12020  0.68410  0.46560  Biso   1.000  H
  C114     1.0000 0.03040  0.71250  0.52330  Biso   1.000  C
  C115     1.0000 0.89570  0.71960  0.51490  Biso   1.000  C
  H73      1.0000 0.89200  0.73290  0.55790  Biso   1.000  H
  C116     1.0000 0.76650  0.70600  0.43930  Biso   1.000  C
  H74      1.0000 0.67590  0.71470  0.42990  Biso   1.000  H
  C117     1.0000 0.62590  0.65820  0.30960  Biso   1.000  C
  C118     1.0000 0.16900  0.72280  0.60480  Biso   1.000  C
  C119     1.0000 0.36540  0.50920  0.21390  Biso   1.000  C
  H75      1.0000 0.27580  0.52510  0.18890  Biso   1.000  H
  C120     1.0000 0.62640  0.61130  0.30610  Biso   1.000  C
  H76      1.0000 0.71450  0.59550  0.34260  Biso   1.000  H
  C121     1.0000 0.36670  0.46190  0.21570  Biso   1.000  C
  H77      1.0000 0.27800  0.44590  0.19380  Biso   1.000  H
  C122     1.0000 0.75800  0.62000  0.11240  Biso   1.000  C
  C123     1.0000 0.69900  0.60870  0.02990  Biso   1.000  C
  H78      1.0000 0.72830  0.58140  0.01730  Biso   1.000  H
  C124     1.0000 0.59490  0.63780  0.96370  Biso   1.000  C
  H79      1.0000 0.55440  0.62890  0.90830  Biso   1.000  H
  C125     1.0000 0.55340  0.67790  0.97920  Biso   1.000  C
  C126     1.0000 0.61100  0.68930  0.06310  Biso   1.000  C
  H80      1.0000 0.57930  0.71640  0.07470  Biso   1.000  H
  C127     1.0000 0.71160  0.66210  0.12780  Biso   1.000  C
  H81      1.0000 0.75040  0.67130  0.18290  Biso   1.000  H
  C128     1.0000 0.88200  0.59340  0.18270  Biso   1.000  C
  C129     1.0000 0.44660  0.71170  0.91130  Biso   1.000  C
  C130     1.0000 0.13310  0.44360  0.28310  Biso   1.000  C
  H82      1.0000 0.22230  0.45930  0.30530  Biso   1.000  H
  C131     1.0000 0.88200  0.54480  0.18400  Biso   1.000  C
  H83      1.0000 0.80230  0.52850  0.14010  Biso   1.000  H
  C132     1.0000 0.13240  0.39770  0.28290  Biso   1.000  C
  H84      1.0000 0.22200  0.38220  0.30510  Biso   1.000  H
  Eu5      1.0000 0.50000  0.70868  0.75000  Biso   1.000  Eu
  C133     1.0000 0.50000  0.10510  0.75000  Biso   1.000  C
  H85      1.0000 0.50000  0.13730  0.75000  Biso   1.000  H
  C134     1.0000 0.50000  0.00870  0.75000  Biso   1.000  C
  C135     1.0000 0.50000  0.95700  0.75000  Biso   1.000  C
  C136     1.0000 0.50000  0.86190  0.75000  Biso   1.000  C
  C137     1.0000 0.50000  0.81000  0.75000  Biso   1.000  C
  C138     1.0000 0.50000  0.31620  0.75000  Biso   1.000  C
  H86      1.0000 0.50000  0.28400  0.75000  Biso   1.000  H
  C139     1.0000 0.50000  0.41400  0.75000  Biso   1.000  C
  C140     1.0000 0.50000  0.46590  0.75000  Biso   1.000  C
  C141     1.0000 0.50000  0.56320  0.75000  Biso   1.000  C
  C142     1.0000 0.50000  0.61340  0.75000  Biso   1.000  C
  Eu6      1.0000 0.50000  0.29132  0.25000  Biso   1.000  Eu
  C143     1.0000 0.50000  0.89490  0.25000  Biso   1.000  C
  H87      1.0000 0.50000  0.86270  0.25000  Biso   1.000  H
  C144     1.0000 0.50000  0.99130  0.25000  Biso   1.000  C
  C145     1.0000 0.50000  0.04300  0.25000  Biso   1.000  C
  C146     1.0000 0.50000  0.13810  0.25000  Biso   1.000  C
  C147     1.0000 0.50000  0.19000  0.25000  Biso   1.000  C
  C148     1.0000 0.50000  0.68380  0.25000  Biso   1.000  C
  H88      1.0000 0.50000  0.71600  0.25000  Biso   1.000  H
  C149     1.0000 0.50000  0.58600  0.25000  Biso   1.000  C
  C150     1.0000 0.50000  0.53410  0.25000  Biso   1.000  C
  C151     1.0000 0.50000  0.43680  0.25000  Biso   1.000  C
  C152     1.0000 0.50000  0.38660  0.25000  Biso   1.000  C
  C153     1.0000 0.00000  0.38350  0.75000  Biso   1.000  C
  H89      1.0000 0.00000  0.35130  0.75000  Biso   1.000  H
  C154     1.0000 0.00000  0.47890  0.75000  Biso   1.000  C
  C155     1.0000 0.00000  0.53090  0.75000  Biso   1.000  C
  C156     1.0000 0.00000  0.62910  0.75000  Biso   1.000  C
  C157     1.0000 0.00000  0.68000  0.75000  Biso   1.000  C
  C158     1.0000 0.00000  0.61650  0.25000  Biso   1.000  C
  H90      1.0000 0.00000  0.64870  0.25000  Biso   1.000  H
  C159     1.0000 0.00000  0.52110  0.25000  Biso   1.000  C
  C160     1.0000 0.00000  0.46910  0.25000  Biso   1.000  C
  C161     1.0000 0.00000  0.37090  0.25000  Biso   1.000  C
  C162     1.0000 0.00000  0.32000  0.25000  Biso   1.000  C
