data_image0
_cell_length_a       9.976
_cell_length_b       10.359
_cell_length_c       12.98
_cell_angle_alpha    90
_cell_angle_beta     90
_cell_angle_gamma    90

_symmetry_space_group_name_H-M    "P 1"
_symmetry_int_tables_number       1

loop_
  _symmetry_equiv_pos_as_xyz
  'x, y, z'

loop_
  _atom_site_label
  _atom_site_occupancy
  _atom_site_fract_x
  _atom_site_fract_y
  _atom_site_fract_z
  _atom_site_thermal_displace_type
  _atom_site_B_iso_or_equiv
  _atom_site_type_symbol
  Zn1      1.0000 0.97150  0.20190  0.63520  Biso   1.000  Zn
  P1       1.0000 0.22640  0.21470  0.49650  Biso   1.000  P
  P2       1.0000 0.88950  0.43990  0.78590  Biso   1.000  P
  O1       1.0000 0.93570  0.30980  0.75190  Biso   1.000  O
  O2       1.0000 0.12200  0.27590  0.56570  Biso   1.000  O
  O3       1.0000 0.99900  0.52590  0.82170  Biso   1.000  O
  O4       1.0000 0.31220  0.32110  0.44940  Biso   1.000  O
  O5       1.0000 0.78470  0.41750  0.86980  Biso   1.000  O
  O6       1.0000 0.81990  0.51370  0.69640  Biso   1.000  O
  O7       1.0000 0.31070  0.11370  0.54790  Biso   1.000  O
  O8       1.0000 0.15090  0.14210  0.40620  Biso   1.000  O
  Zn2      1.0000 0.52850  0.79810  0.13520  Biso   1.000  Zn
  P3       1.0000 0.27360  0.78530  0.99650  Biso   1.000  P
  P4       1.0000 0.61050  0.56010  0.28590  Biso   1.000  P
  O9       1.0000 0.56430  0.69020  0.25190  Biso   1.000  O
  O10      1.0000 0.37800  0.72410  0.06570  Biso   1.000  O
  O11      1.0000 0.50100  0.47410  0.32170  Biso   1.000  O
  O12      1.0000 0.18780  0.67890  0.94940  Biso   1.000  O
  O13      1.0000 0.71530  0.58250  0.36980  Biso   1.000  O
  O14      1.0000 0.68010  0.48630  0.19640  Biso   1.000  O
  O15      1.0000 0.18930  0.88630  0.04790  Biso   1.000  O
  O16      1.0000 0.34910  0.85790  0.90620  Biso   1.000  O
  Zn3      1.0000 0.02850  0.70190  0.86480  Biso   1.000  Zn
  P5       1.0000 0.77360  0.71470  0.00350  Biso   1.000  P
  P6       1.0000 0.11050  0.93990  0.71410  Biso   1.000  P
  O17      1.0000 0.06430  0.80980  0.74810  Biso   1.000  O
  O18      1.0000 0.87800  0.77590  0.93430  Biso   1.000  O
  O19      1.0000 0.00100  0.02590  0.67830  Biso   1.000  O
  O20      1.0000 0.68780  0.82110  0.05060  Biso   1.000  O
  O21      1.0000 0.21530  0.91750  0.63020  Biso   1.000  O
  O22      1.0000 0.18010  0.01370  0.80360  Biso   1.000  O
  O23      1.0000 0.68930  0.61370  0.95210  Biso   1.000  O
  O24      1.0000 0.84910  0.64210  0.09380  Biso   1.000  O
  Zn4      1.0000 0.47150  0.29810  0.36480  Biso   1.000  Zn
  P7       1.0000 0.72640  0.28530  0.50350  Biso   1.000  P
  P8       1.0000 0.38950  0.06010  0.21410  Biso   1.000  P
  O25      1.0000 0.43570  0.19020  0.24810  Biso   1.000  O
  O26      1.0000 0.62200  0.22410  0.43430  Biso   1.000  O
  O27      1.0000 0.49900  0.97410  0.17830  Biso   1.000  O
  O28      1.0000 0.81220  0.17890  0.55060  Biso   1.000  O
  O29      1.0000 0.28470  0.08250  0.13020  Biso   1.000  O
  O30      1.0000 0.31990  0.98630  0.30360  Biso   1.000  O
  O31      1.0000 0.81070  0.38630  0.45210  Biso   1.000  O
  O32      1.0000 0.65090  0.35790  0.59380  Biso   1.000  O
