data_image0
_cell_length_a       14.0003
_cell_length_b       12.1692
_cell_length_c       14.6711
_cell_angle_alpha    90
_cell_angle_beta     105.867
_cell_angle_gamma    90

_symmetry_space_group_name_H-M    "P 1"
_symmetry_int_tables_number       1

loop_
  _symmetry_equiv_pos_as_xyz
  'x, y, z'

loop_
  _atom_site_label
  _atom_site_occupancy
  _atom_site_fract_x
  _atom_site_fract_y
  _atom_site_fract_z
  _atom_site_thermal_displace_type
  _atom_site_B_iso_or_equiv
  _atom_site_type_symbol
  Zn1      1.0000 0.35037  0.52140  0.65771  Biso   1.000  Zn
  Zn2      1.0000 0.19539  0.74271  0.57481  Biso   1.000  Zn
  O1       1.0000 0.20978  0.56795  0.59683  Biso   1.000  O
  O2       1.0000 0.17537  0.41115  0.51503  Biso   1.000  O
  O3       1.0000 0.82363  0.71376  0.17490  Biso   1.000  O
  O4       1.0000 0.89639  0.86364  0.25475  Biso   1.000  O
  O5       1.0000 0.32892  0.40174  0.75069  Biso   1.000  O
  O6       1.0000 0.39140  0.24611  0.82697  Biso   1.000  O
  O7       1.0000 0.71226  0.26643  0.52288  Biso   1.000  O
  O8       1.0000 0.61254  0.40680  0.45719  Biso   1.000  O
  N1       1.0000 0.07964  0.67905  0.46227  Biso   1.000  N
  N2       1.0000 0.46331  0.40750  0.65702  Biso   1.000  N
  C1       1.0000 0.08040  0.56910  0.45302  Biso   1.000  C
  C2       1.0000 0.01470  0.51410  0.37900  Biso   1.000  C
  H1       1.0000 0.01490  0.43620  0.37560  Biso   1.000  H
  C3       1.0000 0.94850  0.57560  0.31010  Biso   1.000  C
  H2       1.0000 0.90250  0.54010  0.25890  Biso   1.000  H
  C4       1.0000 0.95020  0.68920  0.31682  Biso   1.000  C
  C5       1.0000 0.01640  0.73760  0.39546  Biso   1.000  C
  H3       1.0000 0.01640  0.81530  0.40160  Biso   1.000  H
  C6       1.0000 0.16030  0.50830  0.52620  Biso   1.000  C
  C7       1.0000 0.88350  0.76100  0.24260  Biso   1.000  C
  C8       1.0000 0.46220  0.31660  0.70909  Biso   1.000  C
  C9       1.0000 0.52320  0.22760  0.70700  Biso   1.000  C
  H4       1.0000 0.52310  0.16540  0.74600  Biso   1.000  H
  C10      1.0000 0.58510  0.23060  0.64640  Biso   1.000  C
  H5       1.0000 0.62680  0.16990  0.64320  Biso   1.000  H
  C11      1.0000 0.58480  0.32310  0.59130  Biso   1.000  C
  C12      1.0000 0.52510  0.41100  0.60180  Biso   1.000  C
  H6       1.0000 0.52840  0.47690  0.56800  Biso   1.000  H
  C13      1.0000 0.38800  0.32140  0.76761  Biso   1.000  C
  C14      1.0000 0.64320  0.33190  0.51820  Biso   1.000  C
  Zn3      1.0000 0.14963  0.02140  0.84229  Biso   1.000  Zn
  Zn4      1.0000 0.30461  0.24271  0.92519  Biso   1.000  Zn
  O9       1.0000 0.29022  0.06795  0.90317  Biso   1.000  O
  O10      1.0000 0.32463  0.91115  0.98497  Biso   1.000  O
  O11      1.0000 0.67637  0.21376  0.32510  Biso   1.000  O
  O12      1.0000 0.60361  0.36364  0.24525  Biso   1.000  O
  O13      1.0000 0.17108  0.90174  0.74931  Biso   1.000  O
  O14      1.0000 0.10860  0.74611  0.67303  Biso   1.000  O
  O15      1.0000 0.78774  0.76643  0.97712  Biso   1.000  O
  O16      1.0000 0.88746  0.90680  0.04281  Biso   1.000  O
  N3       1.0000 0.42036  0.17905  0.03773  Biso   1.000  N
  N4       1.0000 0.03669  0.90750  0.84298  Biso   1.000  N
  C15      1.0000 0.41960  0.06910  0.04698  Biso   1.000  C
  C16      1.0000 0.48530  0.01410  0.12100  Biso   1.000  C
  H7       1.0000 0.48510  0.93620  0.12440  Biso   1.000  H
  C17      1.0000 0.55150  0.07560  0.18990  Biso   1.000  C
  H8       1.0000 0.59750  0.04010  0.24110  Biso   1.000  H
  C18      1.0000 0.54980  0.18920  0.18318  Biso   1.000  C
  C19      1.0000 0.48360  0.23760  0.10454  Biso   1.000  C
  H9       1.0000 0.48360  0.31530  0.09840  Biso   1.000  H
  C20      1.0000 0.33970  0.00830  0.97380  Biso   1.000  C
  C21      1.0000 0.61650  0.26100  0.25740  Biso   1.000  C
  C22      1.0000 0.03780  0.81660  0.79091  Biso   1.000  C
  C23      1.0000 0.97680  0.72760  0.79300  Biso   1.000  C
  H10      1.0000 0.97690  0.66540  0.75400  Biso   1.000  H
  C24      1.0000 0.91490  0.73060  0.85360  Biso   1.000  C
  H11      1.0000 0.87320  0.66990  0.85680  Biso   1.000  H
  C25      1.0000 0.91520  0.82310  0.90870  Biso   1.000  C
  C26      1.0000 0.97490  0.91100  0.89820  Biso   1.000  C
  H12      1.0000 0.97160  0.97690  0.93200  Biso   1.000  H
  C27      1.0000 0.11200  0.82140  0.73239  Biso   1.000  C
  C28      1.0000 0.85680  0.83190  0.98180  Biso   1.000  C
  Zn5      1.0000 0.64963  0.47860  0.34229  Biso   1.000  Zn
  Zn6      1.0000 0.80461  0.25729  0.42519  Biso   1.000  Zn
  O17      1.0000 0.79022  0.43205  0.40317  Biso   1.000  O
  O18      1.0000 0.82463  0.58885  0.48497  Biso   1.000  O
  O19      1.0000 0.17637  0.28624  0.82510  Biso   1.000  O
  O20      1.0000 0.10361  0.13636  0.74525  Biso   1.000  O
  O21      1.0000 0.67108  0.59826  0.24931  Biso   1.000  O
  O22      1.0000 0.60860  0.75389  0.17303  Biso   1.000  O
  O23      1.0000 0.28774  0.73357  0.47712  Biso   1.000  O
  O24      1.0000 0.38746  0.59320  0.54281  Biso   1.000  O
  N5       1.0000 0.92036  0.32095  0.53773  Biso   1.000  N
  N6       1.0000 0.53669  0.59250  0.34298  Biso   1.000  N
  C29      1.0000 0.91960  0.43090  0.54698  Biso   1.000  C
  C30      1.0000 0.98530  0.48590  0.62100  Biso   1.000  C
  H13      1.0000 0.98510  0.56380  0.62440  Biso   1.000  H
  C31      1.0000 0.05150  0.42440  0.68990  Biso   1.000  C
  H14      1.0000 0.09750  0.45990  0.74110  Biso   1.000  H
  C32      1.0000 0.04980  0.31080  0.68318  Biso   1.000  C
  C33      1.0000 0.98360  0.26240  0.60454  Biso   1.000  C
  H15      1.0000 0.98360  0.18470  0.59840  Biso   1.000  H
  C34      1.0000 0.83970  0.49170  0.47380  Biso   1.000  C
  C35      1.0000 0.11650  0.23900  0.75740  Biso   1.000  C
  C36      1.0000 0.53780  0.68340  0.29091  Biso   1.000  C
  C37      1.0000 0.47680  0.77240  0.29300  Biso   1.000  C
  H16      1.0000 0.47690  0.83460  0.25400  Biso   1.000  H
  C38      1.0000 0.41490  0.76940  0.35360  Biso   1.000  C
  H17      1.0000 0.37320  0.83010  0.35680  Biso   1.000  H
  C39      1.0000 0.41520  0.67690  0.40870  Biso   1.000  C
  C40      1.0000 0.47490  0.58900  0.39820  Biso   1.000  C
  H18      1.0000 0.47160  0.52310  0.43200  Biso   1.000  H
  C41      1.0000 0.61200  0.67860  0.23239  Biso   1.000  C
  C42      1.0000 0.35680  0.66810  0.48180  Biso   1.000  C
  Zn7      1.0000 0.85037  0.97860  0.15771  Biso   1.000  Zn
  Zn8      1.0000 0.69539  0.75729  0.07481  Biso   1.000  Zn
  O25      1.0000 0.70978  0.93205  0.09683  Biso   1.000  O
  O26      1.0000 0.67537  0.08885  0.01503  Biso   1.000  O
  O27      1.0000 0.32363  0.78624  0.67490  Biso   1.000  O
  O28      1.0000 0.39639  0.63636  0.75475  Biso   1.000  O
  O29      1.0000 0.82892  0.09826  0.25069  Biso   1.000  O
  O30      1.0000 0.89140  0.25389  0.32697  Biso   1.000  O
  O31      1.0000 0.21226  0.23357  0.02288  Biso   1.000  O
  O32      1.0000 0.11254  0.09320  0.95719  Biso   1.000  O
  N7       1.0000 0.57964  0.82095  0.96227  Biso   1.000  N
  N8       1.0000 0.96331  0.09250  0.15702  Biso   1.000  N
  C43      1.0000 0.58040  0.93090  0.95302  Biso   1.000  C
  C44      1.0000 0.51470  0.98590  0.87900  Biso   1.000  C
  H19      1.0000 0.51490  0.06380  0.87560  Biso   1.000  H
  C45      1.0000 0.44850  0.92440  0.81010  Biso   1.000  C
  H20      1.0000 0.40250  0.95990  0.75890  Biso   1.000  H
  C46      1.0000 0.45020  0.81080  0.81682  Biso   1.000  C
  C47      1.0000 0.51640  0.76240  0.89546  Biso   1.000  C
  H21      1.0000 0.51640  0.68470  0.90160  Biso   1.000  H
  C48      1.0000 0.66030  0.99170  0.02620  Biso   1.000  C
  C49      1.0000 0.38350  0.73900  0.74260  Biso   1.000  C
  C50      1.0000 0.96220  0.18340  0.20909  Biso   1.000  C
  C51      1.0000 0.02320  0.27240  0.20700  Biso   1.000  C
  H22      1.0000 0.02310  0.33460  0.24600  Biso   1.000  H
  C52      1.0000 0.08510  0.26940  0.14640  Biso   1.000  C
  H23      1.0000 0.12680  0.33010  0.14320  Biso   1.000  H
  C53      1.0000 0.08480  0.17690  0.09130  Biso   1.000  C
  C54      1.0000 0.02510  0.08900  0.10180  Biso   1.000  C
  H24      1.0000 0.02840  0.02310  0.06800  Biso   1.000  H
  C55      1.0000 0.88800  0.17860  0.26761  Biso   1.000  C
  C56      1.0000 0.14320  0.16810  0.01820  Biso   1.000  C
