data_image0
_cell_length_a       14.0907
_cell_length_b       12.1434
_cell_length_c       14.6345
_cell_angle_alpha    90
_cell_angle_beta     106.053
_cell_angle_gamma    90

_symmetry_space_group_name_H-M    "P 1"
_symmetry_int_tables_number       1

loop_
  _symmetry_equiv_pos_as_xyz
  'x, y, z'

loop_
  _atom_site_label
  _atom_site_occupancy
  _atom_site_fract_x
  _atom_site_fract_y
  _atom_site_fract_z
  _atom_site_thermal_displace_type
  _atom_site_B_iso_or_equiv
  _atom_site_type_symbol
  Zn1      1.0000 0.19631  0.24317  0.07426  Biso   1.000  Zn
  Zn2      1.0000 0.35012  0.02137  0.15646  Biso   1.000  Zn
  O1       1.0000 0.28840  0.23311  0.97612  Biso   1.000  O
  O2       1.0000 0.38673  0.09203  0.04120  Biso   1.000  O
  O3       1.0000 0.60858  0.25342  0.67239  Biso   1.000  O
  O4       1.0000 0.67070  0.09833  0.75010  Biso   1.000  O
  O5       1.0000 0.32297  0.28772  0.17506  Biso   1.000  O
  O6       1.0000 0.39655  0.13683  0.25312  Biso   1.000  O
  O7       1.0000 0.67459  0.58896  0.51545  Biso   1.000  O
  O8       1.0000 0.71046  0.43113  0.59632  Biso   1.000  O
  N1       1.0000 0.53813  0.09302  0.84421  Biso   1.000  N
  N2       1.0000 0.58102  0.32033  0.46120  Biso   1.000  N
  C1       1.0000 0.47592  0.08881  0.89872  Biso   1.000  C
  H1       1.0000 0.47280  0.02290  0.93270  Biso   1.000  H
  C2       1.0000 0.41548  0.17655  0.90803  Biso   1.000  C
  C3       1.0000 0.41340  0.26795  0.85094  Biso   1.000  C
  H2       1.0000 0.37090  0.32810  0.85290  Biso   1.000  H
  C4       1.0000 0.47474  0.27077  0.79023  Biso   1.000  C
  H3       1.0000 0.47310  0.33210  0.74950  Biso   1.000  H
  C5       1.0000 0.53791  0.18318  0.79021  Biso   1.000  C
  C6       1.0000 0.35720  0.16796  0.98103  Biso   1.000  C
  C7       1.0000 0.61179  0.17848  0.73240  Biso   1.000  C
  C8       1.0000 0.51730  0.26199  0.39423  Biso   1.000  C
  H4       1.0000 0.51760  0.18400  0.39970  Biso   1.000  H
  C9       1.0000 0.45038  0.31102  0.31667  Biso   1.000  C
  C10      1.0000 0.44759  0.42538  0.31073  Biso   1.000  C
  H5       1.0000 0.40070  0.46120  0.26020  Biso   1.000  H
  C11      1.0000 0.51440  0.48656  0.37990  Biso   1.000  C
  H6       1.0000 0.51450  0.56470  0.37720  Biso   1.000  H
  C12      1.0000 0.58095  0.43064  0.45286  Biso   1.000  C
  C13      1.0000 0.38361  0.23977  0.24173  Biso   1.000  C
  C14      1.0000 0.66055  0.49132  0.52639  Biso   1.000  C
  Zn3      1.0000 0.30369  0.74317  0.42574  Biso   1.000  Zn
  Zn4      1.0000 0.14988  0.52137  0.34354  Biso   1.000  Zn
  O9       1.0000 0.21160  0.73311  0.52388  Biso   1.000  O
  O10      1.0000 0.11327  0.59203  0.45880  Biso   1.000  O
  O11      1.0000 0.89142  0.75342  0.82761  Biso   1.000  O
  O12      1.0000 0.82930  0.59833  0.74990  Biso   1.000  O
  O13      1.0000 0.17703  0.78772  0.32494  Biso   1.000  O
  O14      1.0000 0.10345  0.63683  0.24688  Biso   1.000  O
  O15      1.0000 0.82541  0.08896  0.98455  Biso   1.000  O
  O16      1.0000 0.78954  0.93113  0.90368  Biso   1.000  O
  N3       1.0000 0.96187  0.59302  0.65579  Biso   1.000  N
  N4       1.0000 0.91898  0.82033  0.03880  Biso   1.000  N
  C15      1.0000 0.02408  0.58881  0.60128  Biso   1.000  C
  H7       1.0000 0.02720  0.52290  0.56730  Biso   1.000  H
  C16      1.0000 0.08452  0.67655  0.59197  Biso   1.000  C
  C17      1.0000 0.08660  0.76795  0.64906  Biso   1.000  C
  H8       1.0000 0.12910  0.82810  0.64710  Biso   1.000  H
  C18      1.0000 0.02526  0.77077  0.70977  Biso   1.000  C
  H9       1.0000 0.02690  0.83210  0.75050  Biso   1.000  H
  C19      1.0000 0.96209  0.68318  0.70979  Biso   1.000  C
  C20      1.0000 0.14280  0.66796  0.51897  Biso   1.000  C
  C21      1.0000 0.88821  0.67848  0.76760  Biso   1.000  C
  C22      1.0000 0.98270  0.76199  0.10577  Biso   1.000  C
  H10      1.0000 0.98240  0.68400  0.10030  Biso   1.000  H
  C23      1.0000 0.04962  0.81102  0.18333  Biso   1.000  C
  C24      1.0000 0.05241  0.92538  0.18927  Biso   1.000  C
  H11      1.0000 0.09930  0.96120  0.23980  Biso   1.000  H
  C25      1.0000 0.98560  0.98656  0.12010  Biso   1.000  C
  H12      1.0000 0.98550  0.06470  0.12280  Biso   1.000  H
  C26      1.0000 0.91905  0.93064  0.04714  Biso   1.000  C
  C27      1.0000 0.11639  0.73977  0.25827  Biso   1.000  C
  C28      1.0000 0.83945  0.99132  0.97361  Biso   1.000  C
  Zn5      1.0000 0.80369  0.75683  0.92574  Biso   1.000  Zn
  Zn6      1.0000 0.64988  0.97863  0.84354  Biso   1.000  Zn
  O17      1.0000 0.71160  0.76689  0.02388  Biso   1.000  O
  O18      1.0000 0.61327  0.90797  0.95880  Biso   1.000  O
  O19      1.0000 0.39142  0.74658  0.32761  Biso   1.000  O
  O20      1.0000 0.32930  0.90167  0.24990  Biso   1.000  O
  O21      1.0000 0.67703  0.71228  0.82494  Biso   1.000  O
  O22      1.0000 0.60345  0.86317  0.74688  Biso   1.000  O
  O23      1.0000 0.32541  0.41104  0.48455  Biso   1.000  O
  O24      1.0000 0.28954  0.56887  0.40368  Biso   1.000  O
  N5       1.0000 0.46187  0.90698  0.15579  Biso   1.000  N
  N6       1.0000 0.41898  0.67967  0.53880  Biso   1.000  N
  C29      1.0000 0.52408  0.91119  0.10128  Biso   1.000  C
  H13      1.0000 0.52720  0.97710  0.06730  Biso   1.000  H
  C30      1.0000 0.58452  0.82345  0.09197  Biso   1.000  C
  C31      1.0000 0.58660  0.73205  0.14906  Biso   1.000  C
  H14      1.0000 0.62910  0.67190  0.14710  Biso   1.000  H
  C32      1.0000 0.52526  0.72923  0.20977  Biso   1.000  C
  H15      1.0000 0.52690  0.66790  0.25050  Biso   1.000  H
  C33      1.0000 0.46209  0.81682  0.20979  Biso   1.000  C
  C34      1.0000 0.64280  0.83204  0.01897  Biso   1.000  C
  C35      1.0000 0.38821  0.82152  0.26760  Biso   1.000  C
  C36      1.0000 0.48270  0.73801  0.60577  Biso   1.000  C
  H16      1.0000 0.48240  0.81600  0.60030  Biso   1.000  H
  C37      1.0000 0.54962  0.68898  0.68333  Biso   1.000  C
  C38      1.0000 0.55241  0.57462  0.68927  Biso   1.000  C
  H17      1.0000 0.59930  0.53880  0.73980  Biso   1.000  H
  C39      1.0000 0.48560  0.51344  0.62010  Biso   1.000  C
  H18      1.0000 0.48550  0.43530  0.62280  Biso   1.000  H
  C40      1.0000 0.41905  0.56936  0.54714  Biso   1.000  C
  C41      1.0000 0.61639  0.76023  0.75827  Biso   1.000  C
  C42      1.0000 0.33945  0.50868  0.47361  Biso   1.000  C
  Zn7      1.0000 0.69631  0.25683  0.57426  Biso   1.000  Zn
  Zn8      1.0000 0.85012  0.47863  0.65646  Biso   1.000  Zn
  O25      1.0000 0.78840  0.26689  0.47612  Biso   1.000  O
  O26      1.0000 0.88673  0.40797  0.54120  Biso   1.000  O
  O27      1.0000 0.10858  0.24658  0.17239  Biso   1.000  O
  O28      1.0000 0.17070  0.40167  0.25010  Biso   1.000  O
  O29      1.0000 0.82297  0.21228  0.67506  Biso   1.000  O
  O30      1.0000 0.89655  0.36317  0.75312  Biso   1.000  O
  O31      1.0000 0.17459  0.91104  0.01545  Biso   1.000  O
  O32      1.0000 0.21046  0.06887  0.09632  Biso   1.000  O
  N7       1.0000 0.03813  0.40698  0.34421  Biso   1.000  N
  N8       1.0000 0.08102  0.17967  0.96120  Biso   1.000  N
  C43      1.0000 0.97592  0.41119  0.39872  Biso   1.000  C
  H19      1.0000 0.97280  0.47710  0.43270  Biso   1.000  H
  C44      1.0000 0.91548  0.32345  0.40803  Biso   1.000  C
  C45      1.0000 0.91340  0.23205  0.35094  Biso   1.000  C
  H20      1.0000 0.87090  0.17190  0.35290  Biso   1.000  H
  C46      1.0000 0.97474  0.22923  0.29023  Biso   1.000  C
  H21      1.0000 0.97310  0.16790  0.24950  Biso   1.000  H
  C47      1.0000 0.03791  0.31682  0.29021  Biso   1.000  C
  C48      1.0000 0.85720  0.33204  0.48103  Biso   1.000  C
  C49      1.0000 0.11179  0.32152  0.23240  Biso   1.000  C
  C50      1.0000 0.01730  0.23801  0.89423  Biso   1.000  C
  H22      1.0000 0.01760  0.31600  0.89970  Biso   1.000  H
  C51      1.0000 0.95038  0.18898  0.81667  Biso   1.000  C
  C52      1.0000 0.94759  0.07462  0.81073  Biso   1.000  C
  H23      1.0000 0.90070  0.03880  0.76020  Biso   1.000  H
  C53      1.0000 0.01440  0.01344  0.87990  Biso   1.000  C
  H24      1.0000 0.01450  0.93530  0.87720  Biso   1.000  H
  C54      1.0000 0.08095  0.06936  0.95286  Biso   1.000  C
  C55      1.0000 0.88361  0.26023  0.74173  Biso   1.000  C
  C56      1.0000 0.16055  0.00868  0.02639  Biso   1.000  C
