data_image0
_cell_length_a       25.9051
_cell_length_b       25.9051
_cell_length_c       20.4603
_cell_angle_alpha    90
_cell_angle_beta     90
_cell_angle_gamma    120

_symmetry_space_group_name_H-M    "P 1"
_symmetry_int_tables_number       1

loop_
  _symmetry_equiv_pos_as_xyz
  'x, y, z'

loop_
  _atom_site_label
  _atom_site_occupancy
  _atom_site_fract_x
  _atom_site_fract_y
  _atom_site_fract_z
  _atom_site_thermal_displace_type
  _atom_site_B_iso_or_equiv
  _atom_site_type_symbol
  Cu1      1.0000 0.01751  0.39113  0.41815  Biso   1.000  Cu
  Cu2      1.0000 0.95443  0.26587  0.41165  Biso   1.000  Cu
  Cu3      1.0000 0.01120  0.34140  0.19442  Biso   1.000  Cu
  I1       1.0000 0.03851  0.33048  0.32382  Biso   1.000  I
  I2       1.0000 0.99982  0.22443  0.49807  Biso   1.000  I
  I3       1.0000 0.91053  0.33911  0.17750  Biso   1.000  I
  I4       1.0000 0.90704  0.32682  0.46815  Biso   1.000  I
  C1       1.0000 0.87310  0.21260  0.30010  Biso   1.000  C
  H1       1.0000 0.85970  0.24050  0.30780  Biso   1.000  H
  H2       1.0000 0.91010  0.23290  0.27650  Biso   1.000  H
  C2       1.0000 0.82770  0.16390  0.25920  Biso   1.000  C
  H3       1.0000 0.84720  0.15790  0.22250  Biso   1.000  H
  H4       1.0000 0.79930  0.17420  0.24280  Biso   1.000  H
  C3       1.0000 0.89870  0.14810  0.34710  Biso   1.000  C
  H5       1.0000 0.93290  0.16360  0.31900  Biso   1.000  H
  H6       1.0000 0.90790  0.13500  0.38710  Biso   1.000  H
  C4       1.0000 0.84370  0.09650  0.31350  Biso   1.000  C
  H7       1.0000 0.82640  0.06270  0.34240  Biso   1.000  H
  H8       1.0000 0.85660  0.08530  0.27460  Biso   1.000  H
  C5       1.0000 0.82960  0.16550  0.39830  Biso   1.000  C
  H9       1.0000 0.83510  0.14540  0.43470  Biso   1.000  H
  H10      1.0000 0.82050  0.19470  0.41520  Biso   1.000  H
  C6       1.0000 0.77870  0.12110  0.35690  Biso   1.000  C
  H11      1.0000 0.75150  0.13540  0.34930  Biso   1.000  H
  H12      1.0000 0.75770  0.08390  0.37990  Biso   1.000  H
  N1       1.0000 0.88430  0.19520  0.36140  Biso   1.000  N
  N2       1.0000 0.79780  0.11060  0.29570  Biso   1.000  N
  Cu4      1.0000 0.68418  0.72446  0.75148  Biso   1.000  Cu
  Cu5      1.0000 0.62110  0.59920  0.74498  Biso   1.000  Cu
  Cu6      1.0000 0.67787  0.67473  0.52775  Biso   1.000  Cu
  I5       1.0000 0.70518  0.66381  0.65715  Biso   1.000  I
  I6       1.0000 0.66649  0.55776  0.83140  Biso   1.000  I
  I7       1.0000 0.57720  0.67244  0.51083  Biso   1.000  I
  I8       1.0000 0.57371  0.66015  0.80148  Biso   1.000  I
  C7       1.0000 0.53977  0.54593  0.63343  Biso   1.000  C
  H13      1.0000 0.52637  0.57383  0.64113  Biso   1.000  H
  H14      1.0000 0.57677  0.56623  0.60983  Biso   1.000  H
  C8       1.0000 0.49437  0.49723  0.59253  Biso   1.000  C
  H15      1.0000 0.51387  0.49123  0.55583  Biso   1.000  H
  H16      1.0000 0.46597  0.50753  0.57613  Biso   1.000  H
  C9       1.0000 0.56537  0.48143  0.68043  Biso   1.000  C
  H17      1.0000 0.59957  0.49693  0.65233  Biso   1.000  H
  H18      1.0000 0.57457  0.46833  0.72043  Biso   1.000  H
  C10      1.0000 0.51037  0.42983  0.64683  Biso   1.000  C
  H19      1.0000 0.49307  0.39603  0.67573  Biso   1.000  H
  H20      1.0000 0.52327  0.41863  0.60793  Biso   1.000  H
  C11      1.0000 0.49627  0.49883  0.73163  Biso   1.000  C
  H21      1.0000 0.50177  0.47873  0.76803  Biso   1.000  H
  H22      1.0000 0.48717  0.52803  0.74853  Biso   1.000  H
  C12      1.0000 0.44537  0.45443  0.69023  Biso   1.000  C
  H23      1.0000 0.41817  0.46873  0.68263  Biso   1.000  H
  H24      1.0000 0.42437  0.41723  0.71323  Biso   1.000  H
  N3       1.0000 0.55097  0.52853  0.69473  Biso   1.000  N
  N4       1.0000 0.46447  0.44393  0.62903  Biso   1.000  N
  Cu7      1.0000 0.35084  0.05780  0.08482  Biso   1.000  Cu
  Cu8      1.0000 0.28776  0.93254  0.07832  Biso   1.000  Cu
  Cu9      1.0000 0.34453  0.00807  0.86109  Biso   1.000  Cu
  I9       1.0000 0.37184  0.99715  0.99049  Biso   1.000  I
  I10      1.0000 0.33315  0.89110  0.16474  Biso   1.000  I
  I11      1.0000 0.24386  0.00578  0.84417  Biso   1.000  I
  I12      1.0000 0.24037  0.99349  0.13482  Biso   1.000  I
  C13      1.0000 0.20643  0.87927  0.96677  Biso   1.000  C
  H25      1.0000 0.19303  0.90717  0.97447  Biso   1.000  H
  H26      1.0000 0.24343  0.89957  0.94317  Biso   1.000  H
  C14      1.0000 0.16103  0.83057  0.92587  Biso   1.000  C
  H27      1.0000 0.18053  0.82457  0.88917  Biso   1.000  H
  H28      1.0000 0.13263  0.84087  0.90947  Biso   1.000  H
  C15      1.0000 0.23203  0.81477  0.01377  Biso   1.000  C
  H29      1.0000 0.26623  0.83027  0.98567  Biso   1.000  H
  H30      1.0000 0.24123  0.80167  0.05377  Biso   1.000  H
  C16      1.0000 0.17703  0.76317  0.98017  Biso   1.000  C
  H31      1.0000 0.15973  0.72937  0.00907  Biso   1.000  H
  H32      1.0000 0.18993  0.75197  0.94127  Biso   1.000  H
  C17      1.0000 0.16293  0.83217  0.06497  Biso   1.000  C
  H33      1.0000 0.16843  0.81207  0.10137  Biso   1.000  H
  H34      1.0000 0.15383  0.86137  0.08187  Biso   1.000  H
  C18      1.0000 0.11203  0.78777  0.02357  Biso   1.000  C
  H35      1.0000 0.08483  0.80207  0.01597  Biso   1.000  H
  H36      1.0000 0.09103  0.75057  0.04657  Biso   1.000  H
  N5       1.0000 0.21763  0.86187  0.02807  Biso   1.000  N
  N6       1.0000 0.13113  0.77727  0.96237  Biso   1.000  N
  Cu10     1.0000 0.60887  0.62638  0.41815  Biso   1.000  Cu
  Cu11     1.0000 0.73413  0.68856  0.41165  Biso   1.000  Cu
  Cu12     1.0000 0.65860  0.66980  0.19442  Biso   1.000  Cu
  I13      1.0000 0.66952  0.70803  0.32382  Biso   1.000  I
  I14      1.0000 0.77557  0.77539  0.49807  Biso   1.000  I
  I15      1.0000 0.66089  0.57142  0.17750  Biso   1.000  I
  I16      1.0000 0.67318  0.58022  0.46815  Biso   1.000  I
  C19      1.0000 0.78740  0.66050  0.30010  Biso   1.000  C
  H37      1.0000 0.75950  0.61920  0.30780  Biso   1.000  H
  H38      1.0000 0.76710  0.67720  0.27650  Biso   1.000  H
  C20      1.0000 0.83610  0.66380  0.25920  Biso   1.000  C
  H39      1.0000 0.84210  0.68930  0.22250  Biso   1.000  H
  H40      1.0000 0.82580  0.62510  0.24280  Biso   1.000  H
  C21      1.0000 0.85190  0.75060  0.34710  Biso   1.000  C
  H41      1.0000 0.83640  0.76930  0.31900  Biso   1.000  H
  H42      1.0000 0.86500  0.77290  0.38710  Biso   1.000  H
  C22      1.0000 0.90350  0.74720  0.31350  Biso   1.000  C
  H43      1.0000 0.93730  0.76370  0.34240  Biso   1.000  H
  H44      1.0000 0.91470  0.77130  0.27460  Biso   1.000  H
  C23      1.0000 0.83450  0.66410  0.39830  Biso   1.000  C
  H45      1.0000 0.85460  0.68970  0.43470  Biso   1.000  H
  H46      1.0000 0.80530  0.62580  0.41520  Biso   1.000  H
  C24      1.0000 0.87890  0.65760  0.35690  Biso   1.000  C
  H47      1.0000 0.86460  0.61610  0.34930  Biso   1.000  H
  H48      1.0000 0.91610  0.67380  0.37990  Biso   1.000  H
  N7       1.0000 0.80480  0.68910  0.36140  Biso   1.000  N
  N8       1.0000 0.88940  0.68720  0.29570  Biso   1.000  N
  Cu13     1.0000 0.27554  0.95971  0.75148  Biso   1.000  Cu
  Cu14     1.0000 0.40080  0.02189  0.74498  Biso   1.000  Cu
  Cu15     1.0000 0.32527  0.00313  0.52775  Biso   1.000  Cu
  I17      1.0000 0.33619  0.04136  0.65715  Biso   1.000  I
  I18      1.0000 0.44224  0.10872  0.83140  Biso   1.000  I
  I19      1.0000 0.32756  0.90475  0.51083  Biso   1.000  I
  I20      1.0000 0.33985  0.91355  0.80148  Biso   1.000  I
  C25      1.0000 0.45407  0.99383  0.63343  Biso   1.000  C
  H49      1.0000 0.42617  0.95253  0.64113  Biso   1.000  H
  H50      1.0000 0.43377  0.01053  0.60983  Biso   1.000  H
  C26      1.0000 0.50277  0.99713  0.59253  Biso   1.000  C
  H51      1.0000 0.50877  0.02263  0.55583  Biso   1.000  H
  H52      1.0000 0.49247  0.95843  0.57613  Biso   1.000  H
  C27      1.0000 0.51857  0.08393  0.68043  Biso   1.000  C
  H53      1.0000 0.50307  0.10263  0.65233  Biso   1.000  H
  H54      1.0000 0.53167  0.10623  0.72043  Biso   1.000  H
  C28      1.0000 0.57017  0.08053  0.64683  Biso   1.000  C
  H55      1.0000 0.60397  0.09703  0.67573  Biso   1.000  H
  H56      1.0000 0.58137  0.10463  0.60793  Biso   1.000  H
  C29      1.0000 0.50117  0.99743  0.73163  Biso   1.000  C
  H57      1.0000 0.52127  0.02303  0.76803  Biso   1.000  H
  H58      1.0000 0.47197  0.95913  0.74853  Biso   1.000  H
  C30      1.0000 0.54557  0.99093  0.69023  Biso   1.000  C
  H59      1.0000 0.53127  0.94943  0.68263  Biso   1.000  H
  H60      1.0000 0.58277  0.00713  0.71323  Biso   1.000  H
  N9       1.0000 0.47147  0.02243  0.69473  Biso   1.000  N
  N10      1.0000 0.55607  0.02053  0.62903  Biso   1.000  N
  Cu16     1.0000 0.94220  0.29305  0.08482  Biso   1.000  Cu
  Cu17     1.0000 0.06746  0.35523  0.07832  Biso   1.000  Cu
  Cu18     1.0000 0.99193  0.33647  0.86109  Biso   1.000  Cu
  I21      1.0000 0.00285  0.37470  0.99049  Biso   1.000  I
  I22      1.0000 0.10890  0.44206  0.16474  Biso   1.000  I
  I23      1.0000 0.99422  0.23809  0.84417  Biso   1.000  I
  I24      1.0000 0.00651  0.24689  0.13482  Biso   1.000  I
  C31      1.0000 0.12073  0.32717  0.96677  Biso   1.000  C
  H61      1.0000 0.09283  0.28587  0.97447  Biso   1.000  H
  H62      1.0000 0.10043  0.34387  0.94317  Biso   1.000  H
  C32      1.0000 0.16943  0.33047  0.92587  Biso   1.000  C
  H63      1.0000 0.17543  0.35597  0.88917  Biso   1.000  H
  H64      1.0000 0.15913  0.29177  0.90947  Biso   1.000  H
  C33      1.0000 0.18523  0.41727  0.01377  Biso   1.000  C
  H65      1.0000 0.16973  0.43597  0.98567  Biso   1.000  H
  H66      1.0000 0.19833  0.43957  0.05377  Biso   1.000  H
  C34      1.0000 0.23683  0.41387  0.98017  Biso   1.000  C
  H67      1.0000 0.27063  0.43037  0.00907  Biso   1.000  H
  H68      1.0000 0.24803  0.43797  0.94127  Biso   1.000  H
  C35      1.0000 0.16783  0.33077  0.06497  Biso   1.000  C
  H69      1.0000 0.18793  0.35637  0.10137  Biso   1.000  H
  H70      1.0000 0.13863  0.29247  0.08187  Biso   1.000  H
  C36      1.0000 0.21223  0.32427  0.02357  Biso   1.000  C
  H71      1.0000 0.19793  0.28277  0.01597  Biso   1.000  H
  H72      1.0000 0.24943  0.34047  0.04657  Biso   1.000  H
  N11      1.0000 0.13813  0.35577  0.02807  Biso   1.000  N
  N12      1.0000 0.22273  0.35387  0.96237  Biso   1.000  N
  Cu19     1.0000 0.37362  0.98249  0.41815  Biso   1.000  Cu
  Cu20     1.0000 0.31144  0.04557  0.41165  Biso   1.000  Cu
  Cu21     1.0000 0.33020  0.98880  0.19442  Biso   1.000  Cu
  I25      1.0000 0.29197  0.96149  0.32382  Biso   1.000  I
  I26      1.0000 0.22461  0.00018  0.49807  Biso   1.000  I
  I27      1.0000 0.42858  0.08947  0.17750  Biso   1.000  I
  I28      1.0000 0.41978  0.09296  0.46815  Biso   1.000  I
  C37      1.0000 0.33950  0.12690  0.30010  Biso   1.000  C
  H73      1.0000 0.38080  0.14030  0.30780  Biso   1.000  H
  H74      1.0000 0.32280  0.08990  0.27650  Biso   1.000  H
  C38      1.0000 0.33620  0.17230  0.25920  Biso   1.000  C
  H75      1.0000 0.31070  0.15280  0.22250  Biso   1.000  H
  H76      1.0000 0.37490  0.20070  0.24280  Biso   1.000  H
  C39      1.0000 0.24940  0.10130  0.34710  Biso   1.000  C
  H77      1.0000 0.23070  0.06710  0.31900  Biso   1.000  H
  H78      1.0000 0.22710  0.09210  0.38710  Biso   1.000  H
  C40      1.0000 0.25280  0.15630  0.31350  Biso   1.000  C
  H79      1.0000 0.23630  0.17360  0.34240  Biso   1.000  H
  H80      1.0000 0.22870  0.14340  0.27460  Biso   1.000  H
  C41      1.0000 0.33590  0.17040  0.39830  Biso   1.000  C
  H81      1.0000 0.31030  0.16490  0.43470  Biso   1.000  H
  H82      1.0000 0.37420  0.17950  0.41520  Biso   1.000  H
  C42      1.0000 0.34240  0.22130  0.35690  Biso   1.000  C
  H83      1.0000 0.38390  0.24850  0.34930  Biso   1.000  H
  H84      1.0000 0.32620  0.24230  0.37990  Biso   1.000  H
  N13      1.0000 0.31090  0.11570  0.36140  Biso   1.000  N
  N14      1.0000 0.31280  0.20220  0.29570  Biso   1.000  N
  Cu22     1.0000 0.04029  0.31582  0.75148  Biso   1.000  Cu
  Cu23     1.0000 0.97811  0.37890  0.74498  Biso   1.000  Cu
  Cu24     1.0000 0.99687  0.32213  0.52775  Biso   1.000  Cu
  I29      1.0000 0.95864  0.29482  0.65715  Biso   1.000  I
  I30      1.0000 0.89128  0.33351  0.83140  Biso   1.000  I
  I31      1.0000 0.09525  0.42280  0.51083  Biso   1.000  I
  I32      1.0000 0.08645  0.42629  0.80148  Biso   1.000  I
  C43      1.0000 0.00617  0.46023  0.63343  Biso   1.000  C
  H85      1.0000 0.04747  0.47363  0.64113  Biso   1.000  H
  H86      1.0000 0.98947  0.42323  0.60983  Biso   1.000  H
  C44      1.0000 0.00287  0.50563  0.59253  Biso   1.000  C
  H87      1.0000 0.97737  0.48613  0.55583  Biso   1.000  H
  H88      1.0000 0.04157  0.53403  0.57613  Biso   1.000  H
  C45      1.0000 0.91607  0.43463  0.68043  Biso   1.000  C
  H89      1.0000 0.89737  0.40043  0.65233  Biso   1.000  H
  H90      1.0000 0.89377  0.42543  0.72043  Biso   1.000  H
  C46      1.0000 0.91947  0.48963  0.64683  Biso   1.000  C
  H91      1.0000 0.90297  0.50693  0.67573  Biso   1.000  H
  H92      1.0000 0.89537  0.47673  0.60793  Biso   1.000  H
  C47      1.0000 0.00257  0.50373  0.73163  Biso   1.000  C
  H93      1.0000 0.97697  0.49823  0.76803  Biso   1.000  H
  H94      1.0000 0.04087  0.51283  0.74853  Biso   1.000  H
  C48      1.0000 0.00907  0.55463  0.69023  Biso   1.000  C
  H95      1.0000 0.05057  0.58183  0.68263  Biso   1.000  H
  H96      1.0000 0.99287  0.57563  0.71323  Biso   1.000  H
  N15      1.0000 0.97757  0.44903  0.69473  Biso   1.000  N
  N16      1.0000 0.97947  0.53553  0.62903  Biso   1.000  N
  Cu25     1.0000 0.70695  0.64916  0.08482  Biso   1.000  Cu
  Cu26     1.0000 0.64477  0.71224  0.07832  Biso   1.000  Cu
  Cu27     1.0000 0.66353  0.65547  0.86109  Biso   1.000  Cu
  I33      1.0000 0.62530  0.62816  0.99049  Biso   1.000  I
  I34      1.0000 0.55794  0.66685  0.16474  Biso   1.000  I
  I35      1.0000 0.76191  0.75614  0.84417  Biso   1.000  I
  I36      1.0000 0.75311  0.75963  0.13482  Biso   1.000  I
  C49      1.0000 0.67283  0.79357  0.96677  Biso   1.000  C
  H97      1.0000 0.71413  0.80697  0.97447  Biso   1.000  H
  H98      1.0000 0.65613  0.75657  0.94317  Biso   1.000  H
  C50      1.0000 0.66953  0.83897  0.92587  Biso   1.000  C
  H99      1.0000 0.64403  0.81947  0.88917  Biso   1.000  H
  H100     1.0000 0.70823  0.86737  0.90947  Biso   1.000  H
  C51      1.0000 0.58273  0.76797  0.01377  Biso   1.000  C
  H101     1.0000 0.56403  0.73377  0.98567  Biso   1.000  H
  H102     1.0000 0.56043  0.75877  0.05377  Biso   1.000  H
  C52      1.0000 0.58613  0.82297  0.98017  Biso   1.000  C
  H103     1.0000 0.56963  0.84027  0.00907  Biso   1.000  H
  H104     1.0000 0.56203  0.81007  0.94127  Biso   1.000  H
  C53      1.0000 0.66923  0.83707  0.06497  Biso   1.000  C
  H105     1.0000 0.64363  0.83157  0.10137  Biso   1.000  H
  H106     1.0000 0.70753  0.84617  0.08187  Biso   1.000  H
  C54      1.0000 0.67573  0.88797  0.02357  Biso   1.000  C
  H107     1.0000 0.71723  0.91517  0.01597  Biso   1.000  H
  H108     1.0000 0.65953  0.90897  0.04657  Biso   1.000  H
  N17      1.0000 0.64423  0.78237  0.02807  Biso   1.000  N
  N18      1.0000 0.64613  0.86887  0.96237  Biso   1.000  N
  Cu28     1.0000 0.98249  0.60887  0.58185  Biso   1.000  Cu
  Cu29     1.0000 0.04557  0.73413  0.58835  Biso   1.000  Cu
  Cu30     1.0000 0.98880  0.65860  0.80558  Biso   1.000  Cu
  I37      1.0000 0.96149  0.66952  0.67618  Biso   1.000  I
  I38      1.0000 0.00018  0.77557  0.50193  Biso   1.000  I
  I39      1.0000 0.08947  0.66089  0.82250  Biso   1.000  I
  I40      1.0000 0.09296  0.67318  0.53185  Biso   1.000  I
  C55      1.0000 0.12690  0.78740  0.69990  Biso   1.000  C
  H109     1.0000 0.14030  0.75950  0.69220  Biso   1.000  H
  H110     1.0000 0.08990  0.76710  0.72350  Biso   1.000  H
  C56      1.0000 0.17230  0.83610  0.74080  Biso   1.000  C
  H111     1.0000 0.15280  0.84210  0.77750  Biso   1.000  H
  H112     1.0000 0.20070  0.82580  0.75720  Biso   1.000  H
  C57      1.0000 0.10130  0.85190  0.65290  Biso   1.000  C
  H113     1.0000 0.06710  0.83640  0.68100  Biso   1.000  H
  H114     1.0000 0.09210  0.86500  0.61290  Biso   1.000  H
  C58      1.0000 0.15630  0.90350  0.68650  Biso   1.000  C
  H115     1.0000 0.17360  0.93730  0.65760  Biso   1.000  H
  H116     1.0000 0.14340  0.91470  0.72540  Biso   1.000  H
  C59      1.0000 0.17040  0.83450  0.60170  Biso   1.000  C
  H117     1.0000 0.16490  0.85460  0.56530  Biso   1.000  H
  H118     1.0000 0.17950  0.80530  0.58480  Biso   1.000  H
  C60      1.0000 0.22130  0.87890  0.64310  Biso   1.000  C
  H119     1.0000 0.24850  0.86460  0.65070  Biso   1.000  H
  H120     1.0000 0.24230  0.91610  0.62010  Biso   1.000  H
  N19      1.0000 0.11570  0.80480  0.63860  Biso   1.000  N
  N20      1.0000 0.20220  0.88940  0.70430  Biso   1.000  N
  Cu31     1.0000 0.64916  0.94220  0.91518  Biso   1.000  Cu
  Cu32     1.0000 0.71224  0.06746  0.92168  Biso   1.000  Cu
  Cu33     1.0000 0.65547  0.99193  0.13891  Biso   1.000  Cu
  I41      1.0000 0.62816  0.00285  0.00951  Biso   1.000  I
  I42      1.0000 0.66685  0.10890  0.83526  Biso   1.000  I
  I43      1.0000 0.75614  0.99422  0.15583  Biso   1.000  I
  I44      1.0000 0.75963  0.00651  0.86518  Biso   1.000  I
  C61      1.0000 0.79357  0.12073  0.03323  Biso   1.000  C
  H121     1.0000 0.80697  0.09283  0.02553  Biso   1.000  H
  H122     1.0000 0.75657  0.10043  0.05683  Biso   1.000  H
  C62      1.0000 0.83897  0.16943  0.07413  Biso   1.000  C
  H123     1.0000 0.81947  0.17543  0.11083  Biso   1.000  H
  H124     1.0000 0.86737  0.15913  0.09053  Biso   1.000  H
  C63      1.0000 0.76797  0.18523  0.98623  Biso   1.000  C
  H125     1.0000 0.73377  0.16973  0.01433  Biso   1.000  H
  H126     1.0000 0.75877  0.19833  0.94623  Biso   1.000  H
  C64      1.0000 0.82297  0.23683  0.01983  Biso   1.000  C
  H127     1.0000 0.84027  0.27063  0.99093  Biso   1.000  H
  H128     1.0000 0.81007  0.24803  0.05873  Biso   1.000  H
  C65      1.0000 0.83707  0.16783  0.93503  Biso   1.000  C
  H129     1.0000 0.83157  0.18793  0.89863  Biso   1.000  H
  H130     1.0000 0.84617  0.13863  0.91813  Biso   1.000  H
  C66      1.0000 0.88797  0.21223  0.97643  Biso   1.000  C
  H131     1.0000 0.91517  0.19793  0.98403  Biso   1.000  H
  H132     1.0000 0.90897  0.24943  0.95343  Biso   1.000  H
  N21      1.0000 0.78237  0.13813  0.97193  Biso   1.000  N
  N22      1.0000 0.86887  0.22273  0.03763  Biso   1.000  N
  Cu34     1.0000 0.31582  0.27554  0.24852  Biso   1.000  Cu
  Cu35     1.0000 0.37890  0.40080  0.25502  Biso   1.000  Cu
  Cu36     1.0000 0.32213  0.32527  0.47225  Biso   1.000  Cu
  I45      1.0000 0.29482  0.33619  0.34285  Biso   1.000  I
  I46      1.0000 0.33351  0.44224  0.16860  Biso   1.000  I
  I47      1.0000 0.42280  0.32756  0.48917  Biso   1.000  I
  I48      1.0000 0.42629  0.33985  0.19852  Biso   1.000  I
  C67      1.0000 0.46023  0.45407  0.36657  Biso   1.000  C
  H133     1.0000 0.47363  0.42617  0.35887  Biso   1.000  H
  H134     1.0000 0.42323  0.43377  0.39017  Biso   1.000  H
  C68      1.0000 0.50563  0.50277  0.40747  Biso   1.000  C
  H135     1.0000 0.48613  0.50877  0.44417  Biso   1.000  H
  H136     1.0000 0.53403  0.49247  0.42387  Biso   1.000  H
  C69      1.0000 0.43463  0.51857  0.31957  Biso   1.000  C
  H137     1.0000 0.40043  0.50307  0.34767  Biso   1.000  H
  H138     1.0000 0.42543  0.53167  0.27957  Biso   1.000  H
  C70      1.0000 0.48963  0.57017  0.35317  Biso   1.000  C
  H139     1.0000 0.50693  0.60397  0.32427  Biso   1.000  H
  H140     1.0000 0.47673  0.58137  0.39207  Biso   1.000  H
  C71      1.0000 0.50373  0.50117  0.26837  Biso   1.000  C
  H141     1.0000 0.49823  0.52127  0.23197  Biso   1.000  H
  H142     1.0000 0.51283  0.47197  0.25147  Biso   1.000  H
  C72      1.0000 0.55463  0.54557  0.30977  Biso   1.000  C
  H143     1.0000 0.58183  0.53127  0.31737  Biso   1.000  H
  H144     1.0000 0.57563  0.58277  0.28677  Biso   1.000  H
  N23      1.0000 0.44903  0.47147  0.30527  Biso   1.000  N
  N24      1.0000 0.53553  0.55607  0.37097  Biso   1.000  N
  Cu37     1.0000 0.39113  0.37362  0.58185  Biso   1.000  Cu
  Cu38     1.0000 0.26587  0.31144  0.58835  Biso   1.000  Cu
  Cu39     1.0000 0.34140  0.33020  0.80558  Biso   1.000  Cu
  I49      1.0000 0.33048  0.29197  0.67618  Biso   1.000  I
  I50      1.0000 0.22443  0.22461  0.50193  Biso   1.000  I
  I51      1.0000 0.33911  0.42858  0.82250  Biso   1.000  I
  I52      1.0000 0.32682  0.41978  0.53185  Biso   1.000  I
  C73      1.0000 0.21260  0.33950  0.69990  Biso   1.000  C
  H145     1.0000 0.24050  0.38080  0.69220  Biso   1.000  H
  H146     1.0000 0.23290  0.32280  0.72350  Biso   1.000  H
  C74      1.0000 0.16390  0.33620  0.74080  Biso   1.000  C
  H147     1.0000 0.15790  0.31070  0.77750  Biso   1.000  H
  H148     1.0000 0.17420  0.37490  0.75720  Biso   1.000  H
  C75      1.0000 0.14810  0.24940  0.65290  Biso   1.000  C
  H149     1.0000 0.16360  0.23070  0.68100  Biso   1.000  H
  H150     1.0000 0.13500  0.22710  0.61290  Biso   1.000  H
  C76      1.0000 0.09650  0.25280  0.68650  Biso   1.000  C
  H151     1.0000 0.06270  0.23630  0.65760  Biso   1.000  H
  H152     1.0000 0.08530  0.22870  0.72540  Biso   1.000  H
  C77      1.0000 0.16550  0.33590  0.60170  Biso   1.000  C
  H153     1.0000 0.14540  0.31030  0.56530  Biso   1.000  H
  H154     1.0000 0.19470  0.37420  0.58480  Biso   1.000  H
  C78      1.0000 0.12110  0.34240  0.64310  Biso   1.000  C
  H155     1.0000 0.13540  0.38390  0.65070  Biso   1.000  H
  H156     1.0000 0.08390  0.32620  0.62010  Biso   1.000  H
  N25      1.0000 0.19520  0.31090  0.63860  Biso   1.000  N
  N26      1.0000 0.11060  0.31280  0.70430  Biso   1.000  N
  Cu40     1.0000 0.05780  0.70695  0.91518  Biso   1.000  Cu
  Cu41     1.0000 0.93254  0.64477  0.92168  Biso   1.000  Cu
  Cu42     1.0000 0.00807  0.66353  0.13891  Biso   1.000  Cu
  I53      1.0000 0.99715  0.62530  0.00951  Biso   1.000  I
  I54      1.0000 0.89110  0.55794  0.83526  Biso   1.000  I
  I55      1.0000 0.00578  0.76191  0.15583  Biso   1.000  I
  I56      1.0000 0.99349  0.75311  0.86518  Biso   1.000  I
  C79      1.0000 0.87927  0.67283  0.03323  Biso   1.000  C
  H157     1.0000 0.90717  0.71413  0.02553  Biso   1.000  H
  H158     1.0000 0.89957  0.65613  0.05683  Biso   1.000  H
  C80      1.0000 0.83057  0.66953  0.07413  Biso   1.000  C
  H159     1.0000 0.82457  0.64403  0.11083  Biso   1.000  H
  H160     1.0000 0.84087  0.70823  0.09053  Biso   1.000  H
  C81      1.0000 0.81477  0.58273  0.98623  Biso   1.000  C
  H161     1.0000 0.83027  0.56403  0.01433  Biso   1.000  H
  H162     1.0000 0.80167  0.56043  0.94623  Biso   1.000  H
  C82      1.0000 0.76317  0.58613  0.01983  Biso   1.000  C
  H163     1.0000 0.72937  0.56963  0.99093  Biso   1.000  H
  H164     1.0000 0.75197  0.56203  0.05873  Biso   1.000  H
  C83      1.0000 0.83217  0.66923  0.93503  Biso   1.000  C
  H165     1.0000 0.81207  0.64363  0.89863  Biso   1.000  H
  H166     1.0000 0.86137  0.70753  0.91813  Biso   1.000  H
  C84      1.0000 0.78777  0.67573  0.97643  Biso   1.000  C
  H167     1.0000 0.80207  0.71723  0.98403  Biso   1.000  H
  H168     1.0000 0.75057  0.65953  0.95343  Biso   1.000  H
  N27      1.0000 0.86187  0.64423  0.97193  Biso   1.000  N
  N28      1.0000 0.77727  0.64613  0.03763  Biso   1.000  N
  Cu43     1.0000 0.72446  0.04029  0.24852  Biso   1.000  Cu
  Cu44     1.0000 0.59920  0.97811  0.25502  Biso   1.000  Cu
  Cu45     1.0000 0.67473  0.99687  0.47225  Biso   1.000  Cu
  I57      1.0000 0.66381  0.95864  0.34285  Biso   1.000  I
  I58      1.0000 0.55776  0.89128  0.16860  Biso   1.000  I
  I59      1.0000 0.67244  0.09525  0.48917  Biso   1.000  I
  I60      1.0000 0.66015  0.08645  0.19852  Biso   1.000  I
  C85      1.0000 0.54593  0.00617  0.36657  Biso   1.000  C
  H169     1.0000 0.57383  0.04747  0.35887  Biso   1.000  H
  H170     1.0000 0.56623  0.98947  0.39017  Biso   1.000  H
  C86      1.0000 0.49723  0.00287  0.40747  Biso   1.000  C
  H171     1.0000 0.49123  0.97737  0.44417  Biso   1.000  H
  H172     1.0000 0.50753  0.04157  0.42387  Biso   1.000  H
  C87      1.0000 0.48143  0.91607  0.31957  Biso   1.000  C
  H173     1.0000 0.49693  0.89737  0.34767  Biso   1.000  H
  H174     1.0000 0.46833  0.89377  0.27957  Biso   1.000  H
  C88      1.0000 0.42983  0.91947  0.35317  Biso   1.000  C
  H175     1.0000 0.39603  0.90297  0.32427  Biso   1.000  H
  H176     1.0000 0.41863  0.89537  0.39207  Biso   1.000  H
  C89      1.0000 0.49883  0.00257  0.26837  Biso   1.000  C
  H177     1.0000 0.47873  0.97697  0.23197  Biso   1.000  H
  H178     1.0000 0.52803  0.04087  0.25147  Biso   1.000  H
  C90      1.0000 0.45443  0.00907  0.30977  Biso   1.000  C
  H179     1.0000 0.46873  0.05057  0.31737  Biso   1.000  H
  H180     1.0000 0.41723  0.99287  0.28677  Biso   1.000  H
  N29      1.0000 0.52853  0.97757  0.30527  Biso   1.000  N
  N30      1.0000 0.44393  0.97947  0.37097  Biso   1.000  N
  Cu46     1.0000 0.62638  0.01751  0.58185  Biso   1.000  Cu
  Cu47     1.0000 0.68856  0.95443  0.58835  Biso   1.000  Cu
  Cu48     1.0000 0.66980  0.01120  0.80558  Biso   1.000  Cu
  I61      1.0000 0.70803  0.03851  0.67618  Biso   1.000  I
  I62      1.0000 0.77539  0.99982  0.50193  Biso   1.000  I
  I63      1.0000 0.57142  0.91053  0.82250  Biso   1.000  I
  I64      1.0000 0.58022  0.90704  0.53185  Biso   1.000  I
  C91      1.0000 0.66050  0.87310  0.69990  Biso   1.000  C
  H181     1.0000 0.61920  0.85970  0.69220  Biso   1.000  H
  H182     1.0000 0.67720  0.91010  0.72350  Biso   1.000  H
  C92      1.0000 0.66380  0.82770  0.74080  Biso   1.000  C
  H183     1.0000 0.68930  0.84720  0.77750  Biso   1.000  H
  H184     1.0000 0.62510  0.79930  0.75720  Biso   1.000  H
  C93      1.0000 0.75060  0.89870  0.65290  Biso   1.000  C
  H185     1.0000 0.76930  0.93290  0.68100  Biso   1.000  H
  H186     1.0000 0.77290  0.90790  0.61290  Biso   1.000  H
  C94      1.0000 0.74720  0.84370  0.68650  Biso   1.000  C
  H187     1.0000 0.76370  0.82640  0.65760  Biso   1.000  H
  H188     1.0000 0.77130  0.85660  0.72540  Biso   1.000  H
  C95      1.0000 0.66410  0.82960  0.60170  Biso   1.000  C
  H189     1.0000 0.68970  0.83510  0.56530  Biso   1.000  H
  H190     1.0000 0.62580  0.82050  0.58480  Biso   1.000  H
  C96      1.0000 0.65760  0.77870  0.64310  Biso   1.000  C
  H191     1.0000 0.61610  0.75150  0.65070  Biso   1.000  H
  H192     1.0000 0.67380  0.75770  0.62010  Biso   1.000  H
  N31      1.0000 0.68910  0.88430  0.63860  Biso   1.000  N
  N32      1.0000 0.68720  0.79780  0.70430  Biso   1.000  N
  Cu49     1.0000 0.29305  0.35084  0.91518  Biso   1.000  Cu
  Cu50     1.0000 0.35523  0.28776  0.92168  Biso   1.000  Cu
  Cu51     1.0000 0.33647  0.34453  0.13891  Biso   1.000  Cu
  I65      1.0000 0.37470  0.37184  0.00951  Biso   1.000  I
  I66      1.0000 0.44206  0.33315  0.83526  Biso   1.000  I
  I67      1.0000 0.23809  0.24386  0.15583  Biso   1.000  I
  I68      1.0000 0.24689  0.24037  0.86518  Biso   1.000  I
  C97      1.0000 0.32717  0.20643  0.03323  Biso   1.000  C
  H193     1.0000 0.28587  0.19303  0.02553  Biso   1.000  H
  H194     1.0000 0.34387  0.24343  0.05683  Biso   1.000  H
  C98      1.0000 0.33047  0.16103  0.07413  Biso   1.000  C
  H195     1.0000 0.35597  0.18053  0.11083  Biso   1.000  H
  H196     1.0000 0.29177  0.13263  0.09053  Biso   1.000  H
  C99      1.0000 0.41727  0.23203  0.98623  Biso   1.000  C
  H197     1.0000 0.43597  0.26623  0.01433  Biso   1.000  H
  H198     1.0000 0.43957  0.24123  0.94623  Biso   1.000  H
  C100     1.0000 0.41387  0.17703  0.01983  Biso   1.000  C
  H199     1.0000 0.43037  0.15973  0.99093  Biso   1.000  H
  H200     1.0000 0.43797  0.18993  0.05873  Biso   1.000  H
  C101     1.0000 0.33077  0.16293  0.93503  Biso   1.000  C
  H201     1.0000 0.35637  0.16843  0.89863  Biso   1.000  H
  H202     1.0000 0.29247  0.15383  0.91813  Biso   1.000  H
  C102     1.0000 0.32427  0.11203  0.97643  Biso   1.000  C
  H203     1.0000 0.28277  0.08483  0.98403  Biso   1.000  H
  H204     1.0000 0.34047  0.09103  0.95343  Biso   1.000  H
  N33      1.0000 0.35577  0.21763  0.97193  Biso   1.000  N
  N34      1.0000 0.35387  0.13113  0.03763  Biso   1.000  N
  Cu52     1.0000 0.95971  0.68418  0.24852  Biso   1.000  Cu
  Cu53     1.0000 0.02189  0.62110  0.25502  Biso   1.000  Cu
  Cu54     1.0000 0.00313  0.67787  0.47225  Biso   1.000  Cu
  I69      1.0000 0.04136  0.70518  0.34285  Biso   1.000  I
  I70      1.0000 0.10872  0.66649  0.16860  Biso   1.000  I
  I71      1.0000 0.90475  0.57720  0.48917  Biso   1.000  I
  I72      1.0000 0.91355  0.57371  0.19852  Biso   1.000  I
  C103     1.0000 0.99383  0.53977  0.36657  Biso   1.000  C
  H205     1.0000 0.95253  0.52637  0.35887  Biso   1.000  H
  H206     1.0000 0.01053  0.57677  0.39017  Biso   1.000  H
  C104     1.0000 0.99713  0.49437  0.40747  Biso   1.000  C
  H207     1.0000 0.02263  0.51387  0.44417  Biso   1.000  H
  H208     1.0000 0.95843  0.46597  0.42387  Biso   1.000  H
  C105     1.0000 0.08393  0.56537  0.31957  Biso   1.000  C
  H209     1.0000 0.10263  0.59957  0.34767  Biso   1.000  H
  H210     1.0000 0.10623  0.57457  0.27957  Biso   1.000  H
  C106     1.0000 0.08053  0.51037  0.35317  Biso   1.000  C
  H211     1.0000 0.09703  0.49307  0.32427  Biso   1.000  H
  H212     1.0000 0.10463  0.52327  0.39207  Biso   1.000  H
  C107     1.0000 0.99743  0.49627  0.26837  Biso   1.000  C
  H213     1.0000 0.02303  0.50177  0.23197  Biso   1.000  H
  H214     1.0000 0.95913  0.48717  0.25147  Biso   1.000  H
  C108     1.0000 0.99093  0.44537  0.30977  Biso   1.000  C
  H215     1.0000 0.94943  0.41817  0.31737  Biso   1.000  H
  H216     1.0000 0.00713  0.42437  0.28677  Biso   1.000  H
  N35      1.0000 0.02243  0.55097  0.30527  Biso   1.000  N
  N36      1.0000 0.02053  0.46447  0.37097  Biso   1.000  N
