data_image0
_cell_length_a       22.5561
_cell_length_b       17.4368
_cell_length_c       10.1995
_cell_angle_alpha    90
_cell_angle_beta     109.402
_cell_angle_gamma    90

_symmetry_space_group_name_H-M    "P 1"
_symmetry_int_tables_number       1

loop_
  _symmetry_equiv_pos_as_xyz
  'x, y, z'

loop_
  _atom_site_label
  _atom_site_occupancy
  _atom_site_fract_x
  _atom_site_fract_y
  _atom_site_fract_z
  _atom_site_thermal_displace_type
  _atom_site_B_iso_or_equiv
  _atom_site_type_symbol
  Sr1      1.0000 0.33828  0.10270  0.52899  Biso   1.000  Sr
  P1       1.0000 0.47658  0.15600  0.45982  Biso   1.000  P
  P2       1.0000 0.60911  0.08730  0.57917  Biso   1.000  P
  P3       1.0000 0.19428  0.17905  0.59832  Biso   1.000  P
  P4       1.0000 0.19190  0.01526  0.47234  Biso   1.000  P
  O1       1.0000 0.45668  0.12889  0.57890  Biso   1.000  O
  O2       1.0000 0.45797  0.10558  0.33290  Biso   1.000  O
  O3       1.0000 0.44930  0.23979  0.41480  Biso   1.000  O
  H1       1.0000 0.41450  0.24350  0.42340  Biso   1.000  H
  O4       1.0000 0.60113  0.06688  0.71580  Biso   1.000  O
  O5       1.0000 0.59407  0.02782  0.46730  Biso   1.000  O
  O6       1.0000 0.67846  0.11579  0.60400  Biso   1.000  O
  H2       1.0000 0.69270  0.13510  0.68150  Biso   1.000  H
  O7       1.0000 0.25973  0.01137  0.55960  Biso   1.000  O
  O8       1.0000 0.16331  0.25586  0.55260  Biso   1.000  O
  O9       1.0000 0.20536  0.14282  0.35790  Biso   1.000  O
  H3       1.0000 0.21350  0.19000  0.35600  Biso   1.000  H
  O10      1.0000 0.17254  0.97965  0.32970  Biso   1.000  O
  O11      1.0000 0.16537  0.14785  0.70820  Biso   1.000  O
  H4       1.0000 0.17680  0.10350  0.72810  Biso   1.000  H
  O12      1.0000 0.14908  0.97917  0.55150  Biso   1.000  O
  H5       1.0000 0.16030  0.99520  0.63160  Biso   1.000  H
  O13      1.0000 0.26522  0.18041  0.65290  Biso   1.000  O
  O14      1.0000 0.57597  0.20595  0.39890  Biso   1.000  O
  H6       1.0000 0.56550  0.17550  0.33400  Biso   1.000  H
  C1       1.0000 0.56128  0.17413  0.51560  Biso   1.000  C
  C2       1.0000 0.57783  0.23388  0.63230  Biso   1.000  C
  C3       1.0000 0.16867  0.11680  0.44390  Biso   1.000  C
  C4       1.0000 0.09789  0.12302  0.36770  Biso   1.000  C
  Sr2      1.0000 0.83828  0.60270  0.52899  Biso   1.000  Sr
  P5       1.0000 0.97658  0.65600  0.45982  Biso   1.000  P
  P6       1.0000 0.10911  0.58730  0.57917  Biso   1.000  P
  P7       1.0000 0.69428  0.67905  0.59832  Biso   1.000  P
  P8       1.0000 0.69190  0.51526  0.47234  Biso   1.000  P
  O15      1.0000 0.95668  0.62889  0.57890  Biso   1.000  O
  O16      1.0000 0.95797  0.60558  0.33290  Biso   1.000  O
  O17      1.0000 0.94930  0.73979  0.41480  Biso   1.000  O
  H7       1.0000 0.91450  0.74350  0.42340  Biso   1.000  H
  O18      1.0000 0.10113  0.56688  0.71580  Biso   1.000  O
  O19      1.0000 0.09407  0.52782  0.46730  Biso   1.000  O
  O20      1.0000 0.17846  0.61579  0.60400  Biso   1.000  O
  H8       1.0000 0.19270  0.63510  0.68150  Biso   1.000  H
  O21      1.0000 0.75973  0.51137  0.55960  Biso   1.000  O
  O22      1.0000 0.66331  0.75586  0.55260  Biso   1.000  O
  O23      1.0000 0.70536  0.64282  0.35790  Biso   1.000  O
  H9       1.0000 0.71350  0.69000  0.35600  Biso   1.000  H
  O24      1.0000 0.67254  0.47965  0.32970  Biso   1.000  O
  O25      1.0000 0.66537  0.64785  0.70820  Biso   1.000  O
  H10      1.0000 0.67680  0.60350  0.72810  Biso   1.000  H
  O26      1.0000 0.64908  0.47917  0.55150  Biso   1.000  O
  H11      1.0000 0.66030  0.49520  0.63160  Biso   1.000  H
  O27      1.0000 0.76522  0.68041  0.65290  Biso   1.000  O
  O28      1.0000 0.07597  0.70595  0.39890  Biso   1.000  O
  H12      1.0000 0.06550  0.67550  0.33400  Biso   1.000  H
  C5       1.0000 0.06128  0.67413  0.51560  Biso   1.000  C
  C6       1.0000 0.07783  0.73388  0.63230  Biso   1.000  C
  C7       1.0000 0.66867  0.61680  0.44390  Biso   1.000  C
  C8       1.0000 0.59789  0.62302  0.36770  Biso   1.000  C
  Sr3      1.0000 0.66172  0.10270  0.97101  Biso   1.000  Sr
  P9       1.0000 0.52342  0.15600  0.04018  Biso   1.000  P
  P10      1.0000 0.39089  0.08730  0.92083  Biso   1.000  P
  P11      1.0000 0.80572  0.17905  0.90168  Biso   1.000  P
  P12      1.0000 0.80810  0.01526  0.02766  Biso   1.000  P
  O29      1.0000 0.54332  0.12889  0.92110  Biso   1.000  O
  O30      1.0000 0.54203  0.10558  0.16710  Biso   1.000  O
  O31      1.0000 0.55070  0.23979  0.08520  Biso   1.000  O
  H13      1.0000 0.58550  0.24350  0.07660  Biso   1.000  H
  O32      1.0000 0.39887  0.06688  0.78420  Biso   1.000  O
  O33      1.0000 0.40593  0.02782  0.03270  Biso   1.000  O
  O34      1.0000 0.32154  0.11579  0.89600  Biso   1.000  O
  H14      1.0000 0.30730  0.13510  0.81850  Biso   1.000  H
  O35      1.0000 0.74027  0.01137  0.94040  Biso   1.000  O
  O36      1.0000 0.83669  0.25586  0.94740  Biso   1.000  O
  O37      1.0000 0.79464  0.14282  0.14210  Biso   1.000  O
  H15      1.0000 0.78650  0.19000  0.14400  Biso   1.000  H
  O38      1.0000 0.82746  0.97965  0.17030  Biso   1.000  O
  O39      1.0000 0.83463  0.14785  0.79180  Biso   1.000  O
  H16      1.0000 0.82320  0.10350  0.77190  Biso   1.000  H
  O40      1.0000 0.85092  0.97917  0.94850  Biso   1.000  O
  H17      1.0000 0.83970  0.99520  0.86840  Biso   1.000  H
  O41      1.0000 0.73478  0.18041  0.84710  Biso   1.000  O
  O42      1.0000 0.42403  0.20595  0.10110  Biso   1.000  O
  H18      1.0000 0.43450  0.17550  0.16600  Biso   1.000  H
  C9       1.0000 0.43872  0.17413  0.98440  Biso   1.000  C
  C10      1.0000 0.42217  0.23388  0.86770  Biso   1.000  C
  C11      1.0000 0.83133  0.11680  0.05610  Biso   1.000  C
  C12      1.0000 0.90211  0.12302  0.13230  Biso   1.000  C
  Sr4      1.0000 0.16172  0.60270  0.97101  Biso   1.000  Sr
  P13      1.0000 0.02342  0.65600  0.04018  Biso   1.000  P
  P14      1.0000 0.89089  0.58730  0.92083  Biso   1.000  P
  P15      1.0000 0.30572  0.67905  0.90168  Biso   1.000  P
  P16      1.0000 0.30810  0.51526  0.02766  Biso   1.000  P
  O43      1.0000 0.04332  0.62889  0.92110  Biso   1.000  O
  O44      1.0000 0.04203  0.60558  0.16710  Biso   1.000  O
  O45      1.0000 0.05070  0.73979  0.08520  Biso   1.000  O
  H19      1.0000 0.08550  0.74350  0.07660  Biso   1.000  H
  O46      1.0000 0.89887  0.56688  0.78420  Biso   1.000  O
  O47      1.0000 0.90593  0.52782  0.03270  Biso   1.000  O
  O48      1.0000 0.82154  0.61579  0.89600  Biso   1.000  O
  H20      1.0000 0.80730  0.63510  0.81850  Biso   1.000  H
  O49      1.0000 0.24027  0.51137  0.94040  Biso   1.000  O
  O50      1.0000 0.33669  0.75586  0.94740  Biso   1.000  O
  O51      1.0000 0.29464  0.64282  0.14210  Biso   1.000  O
  H21      1.0000 0.28650  0.69000  0.14400  Biso   1.000  H
  O52      1.0000 0.32746  0.47965  0.17030  Biso   1.000  O
  O53      1.0000 0.33463  0.64785  0.79180  Biso   1.000  O
  H22      1.0000 0.32320  0.60350  0.77190  Biso   1.000  H
  O54      1.0000 0.35092  0.47917  0.94850  Biso   1.000  O
  H23      1.0000 0.33970  0.49520  0.86840  Biso   1.000  H
  O55      1.0000 0.23478  0.68041  0.84710  Biso   1.000  O
  O56      1.0000 0.92403  0.70595  0.10110  Biso   1.000  O
  H24      1.0000 0.93450  0.67550  0.16600  Biso   1.000  H
  C13      1.0000 0.93872  0.67413  0.98440  Biso   1.000  C
  C14      1.0000 0.92217  0.73388  0.86770  Biso   1.000  C
  C15      1.0000 0.33133  0.61680  0.05610  Biso   1.000  C
  C16      1.0000 0.40211  0.62302  0.13230  Biso   1.000  C
  Sr5      1.0000 0.66172  0.89730  0.47101  Biso   1.000  Sr
  P17      1.0000 0.52342  0.84400  0.54018  Biso   1.000  P
  P18      1.0000 0.39089  0.91270  0.42083  Biso   1.000  P
  P19      1.0000 0.80572  0.82095  0.40168  Biso   1.000  P
  P20      1.0000 0.80810  0.98474  0.52766  Biso   1.000  P
  O57      1.0000 0.54332  0.87111  0.42110  Biso   1.000  O
  O58      1.0000 0.54203  0.89442  0.66710  Biso   1.000  O
  O59      1.0000 0.55070  0.76021  0.58520  Biso   1.000  O
  H25      1.0000 0.58550  0.75650  0.57660  Biso   1.000  H
  O60      1.0000 0.39887  0.93312  0.28420  Biso   1.000  O
  O61      1.0000 0.40593  0.97218  0.53270  Biso   1.000  O
  O62      1.0000 0.32154  0.88421  0.39600  Biso   1.000  O
  H26      1.0000 0.30730  0.86490  0.31850  Biso   1.000  H
  O63      1.0000 0.74027  0.98863  0.44040  Biso   1.000  O
  O64      1.0000 0.83669  0.74414  0.44740  Biso   1.000  O
  O65      1.0000 0.79464  0.85718  0.64210  Biso   1.000  O
  H27      1.0000 0.78650  0.81000  0.64400  Biso   1.000  H
  O66      1.0000 0.82746  0.02035  0.67030  Biso   1.000  O
  O67      1.0000 0.83463  0.85215  0.29180  Biso   1.000  O
  H28      1.0000 0.82320  0.89650  0.27190  Biso   1.000  H
  O68      1.0000 0.85092  0.02083  0.44850  Biso   1.000  O
  H29      1.0000 0.83970  0.00480  0.36840  Biso   1.000  H
  O69      1.0000 0.73478  0.81959  0.34710  Biso   1.000  O
  O70      1.0000 0.42403  0.79405  0.60110  Biso   1.000  O
  H30      1.0000 0.43450  0.82450  0.66600  Biso   1.000  H
  C17      1.0000 0.43872  0.82587  0.48440  Biso   1.000  C
  C18      1.0000 0.42217  0.76612  0.36770  Biso   1.000  C
  C19      1.0000 0.83133  0.88320  0.55610  Biso   1.000  C
  C20      1.0000 0.90211  0.87698  0.63230  Biso   1.000  C
  Sr6      1.0000 0.16172  0.39730  0.47101  Biso   1.000  Sr
  P21      1.0000 0.02342  0.34400  0.54018  Biso   1.000  P
  P22      1.0000 0.89089  0.41270  0.42083  Biso   1.000  P
  P23      1.0000 0.30572  0.32095  0.40168  Biso   1.000  P
  P24      1.0000 0.30810  0.48474  0.52766  Biso   1.000  P
  O71      1.0000 0.04332  0.37111  0.42110  Biso   1.000  O
  O72      1.0000 0.04203  0.39442  0.66710  Biso   1.000  O
  O73      1.0000 0.05070  0.26021  0.58520  Biso   1.000  O
  H31      1.0000 0.08550  0.25650  0.57660  Biso   1.000  H
  O74      1.0000 0.89887  0.43312  0.28420  Biso   1.000  O
  O75      1.0000 0.90593  0.47218  0.53270  Biso   1.000  O
  O76      1.0000 0.82154  0.38421  0.39600  Biso   1.000  O
  H32      1.0000 0.80730  0.36490  0.31850  Biso   1.000  H
  O77      1.0000 0.24027  0.48863  0.44040  Biso   1.000  O
  O78      1.0000 0.33669  0.24414  0.44740  Biso   1.000  O
  O79      1.0000 0.29464  0.35718  0.64210  Biso   1.000  O
  H33      1.0000 0.28650  0.31000  0.64400  Biso   1.000  H
  O80      1.0000 0.32746  0.52035  0.67030  Biso   1.000  O
  O81      1.0000 0.33463  0.35215  0.29180  Biso   1.000  O
  H34      1.0000 0.32320  0.39650  0.27190  Biso   1.000  H
  O82      1.0000 0.35092  0.52083  0.44850  Biso   1.000  O
  H35      1.0000 0.33970  0.50480  0.36840  Biso   1.000  H
  O83      1.0000 0.23478  0.31959  0.34710  Biso   1.000  O
  O84      1.0000 0.92403  0.29405  0.60110  Biso   1.000  O
  H36      1.0000 0.93450  0.32450  0.66600  Biso   1.000  H
  C21      1.0000 0.93872  0.32587  0.48440  Biso   1.000  C
  C22      1.0000 0.92217  0.26612  0.36770  Biso   1.000  C
  C23      1.0000 0.33133  0.38320  0.55610  Biso   1.000  C
  C24      1.0000 0.40211  0.37698  0.63230  Biso   1.000  C
  Sr7      1.0000 0.33828  0.89730  0.02899  Biso   1.000  Sr
  P25      1.0000 0.47658  0.84400  0.95982  Biso   1.000  P
  P26      1.0000 0.60911  0.91270  0.07917  Biso   1.000  P
  P27      1.0000 0.19428  0.82095  0.09832  Biso   1.000  P
  P28      1.0000 0.19190  0.98474  0.97234  Biso   1.000  P
  O85      1.0000 0.45668  0.87111  0.07890  Biso   1.000  O
  O86      1.0000 0.45797  0.89442  0.83290  Biso   1.000  O
  O87      1.0000 0.44930  0.76021  0.91480  Biso   1.000  O
  H37      1.0000 0.41450  0.75650  0.92340  Biso   1.000  H
  O88      1.0000 0.60113  0.93312  0.21580  Biso   1.000  O
  O89      1.0000 0.59407  0.97218  0.96730  Biso   1.000  O
  O90      1.0000 0.67846  0.88421  0.10400  Biso   1.000  O
  H38      1.0000 0.69270  0.86490  0.18150  Biso   1.000  H
  O91      1.0000 0.25973  0.98863  0.05960  Biso   1.000  O
  O92      1.0000 0.16331  0.74414  0.05260  Biso   1.000  O
  O93      1.0000 0.20536  0.85718  0.85790  Biso   1.000  O
  H39      1.0000 0.21350  0.81000  0.85600  Biso   1.000  H
  O94      1.0000 0.17254  0.02035  0.82970  Biso   1.000  O
  O95      1.0000 0.16537  0.85215  0.20820  Biso   1.000  O
  H40      1.0000 0.17680  0.89650  0.22810  Biso   1.000  H
  O96      1.0000 0.14908  0.02083  0.05150  Biso   1.000  O
  H41      1.0000 0.16030  0.00480  0.13160  Biso   1.000  H
  O97      1.0000 0.26522  0.81959  0.15290  Biso   1.000  O
  O98      1.0000 0.57597  0.79405  0.89890  Biso   1.000  O
  H42      1.0000 0.56550  0.82450  0.83400  Biso   1.000  H
  C25      1.0000 0.56128  0.82587  0.01560  Biso   1.000  C
  C26      1.0000 0.57783  0.76612  0.13230  Biso   1.000  C
  C27      1.0000 0.16867  0.88320  0.94390  Biso   1.000  C
  C28      1.0000 0.09789  0.87698  0.86770  Biso   1.000  C
  Sr8      1.0000 0.83828  0.39730  0.02899  Biso   1.000  Sr
  P29      1.0000 0.97658  0.34400  0.95982  Biso   1.000  P
  P30      1.0000 0.10911  0.41270  0.07917  Biso   1.000  P
  P31      1.0000 0.69428  0.32095  0.09832  Biso   1.000  P
  P32      1.0000 0.69190  0.48474  0.97234  Biso   1.000  P
  O99      1.0000 0.95668  0.37111  0.07890  Biso   1.000  O
  O100     1.0000 0.95797  0.39442  0.83290  Biso   1.000  O
  O101     1.0000 0.94930  0.26021  0.91480  Biso   1.000  O
  H43      1.0000 0.91450  0.25650  0.92340  Biso   1.000  H
  O102     1.0000 0.10113  0.43312  0.21580  Biso   1.000  O
  O103     1.0000 0.09407  0.47218  0.96730  Biso   1.000  O
  O104     1.0000 0.17846  0.38421  0.10400  Biso   1.000  O
  H44      1.0000 0.19270  0.36490  0.18150  Biso   1.000  H
  O105     1.0000 0.75973  0.48863  0.05960  Biso   1.000  O
  O106     1.0000 0.66331  0.24414  0.05260  Biso   1.000  O
  O107     1.0000 0.70536  0.35718  0.85790  Biso   1.000  O
  H45      1.0000 0.71350  0.31000  0.85600  Biso   1.000  H
  O108     1.0000 0.67254  0.52035  0.82970  Biso   1.000  O
  O109     1.0000 0.66537  0.35215  0.20820  Biso   1.000  O
  H46      1.0000 0.67680  0.39650  0.22810  Biso   1.000  H
  O110     1.0000 0.64908  0.52083  0.05150  Biso   1.000  O
  H47      1.0000 0.66030  0.50480  0.13160  Biso   1.000  H
  O111     1.0000 0.76522  0.31959  0.15290  Biso   1.000  O
  O112     1.0000 0.07597  0.29405  0.89890  Biso   1.000  O
  H48      1.0000 0.06550  0.32450  0.83400  Biso   1.000  H
  C29      1.0000 0.06128  0.32587  0.01560  Biso   1.000  C
  C30      1.0000 0.07783  0.26612  0.13230  Biso   1.000  C
  C31      1.0000 0.66867  0.38320  0.94390  Biso   1.000  C
  C32      1.0000 0.59789  0.37698  0.86770  Biso   1.000  C
  Sr9      1.0000 0.50000  0.01385  0.75000  Biso   1.000  Sr
  Sr10     1.0000 0.00000  0.51385  0.75000  Biso   1.000  Sr
  Sr11     1.0000 0.50000  0.98615  0.25000  Biso   1.000  Sr
  Sr12     1.0000 0.00000  0.48615  0.25000  Biso   1.000  Sr
