data_image0
_cell_length_a       15.199
_cell_length_b       16.958
_cell_length_c       19.932
_cell_angle_alpha    90
_cell_angle_beta     90.927
_cell_angle_gamma    90

_symmetry_space_group_name_H-M    "P 1"
_symmetry_int_tables_number       1

loop_
  _symmetry_equiv_pos_as_xyz
  'x, y, z'

loop_
  _atom_site_label
  _atom_site_occupancy
  _atom_site_fract_x
  _atom_site_fract_y
  _atom_site_fract_z
  _atom_site_thermal_displace_type
  _atom_site_B_iso_or_equiv
  _atom_site_type_symbol
  Na1      1.0000 0.80380  0.98800  0.49360  Biso   1.000  Na
  Na2      1.0000 0.81260  0.84430  0.62660  Biso   1.000  Na
  Na3      1.0000 0.01690  0.79310  0.70990  Biso   1.000  Na
  Na4      1.0000 0.79650  0.11290  0.35380  Biso   1.000  Na
  Na5      1.0000 0.58480  0.04360  0.41480  Biso   1.000  Na
  Na6      1.0000 0.00470  0.93330  0.57180  Biso   1.000  Na
  O1       1.0000 0.73550  0.14100  0.24730  Biso   1.000  O
  O2       1.0000 0.92320  0.62450  0.32570  Biso   1.000  O
  O3       1.0000 0.80320  0.70170  0.38280  Biso   1.000  O
  O4       1.0000 0.78430  0.79910  0.27970  Biso   1.000  O
  O5       1.0000 0.91910  0.72160  0.22180  Biso   1.000  O
  O6       1.0000 0.97180  0.65600  0.44460  Biso   1.000  O
  O7       1.0000 0.12560  0.71380  0.40270  Biso   1.000  O
  O8       1.0000 0.06980  0.68330  0.27660  Biso   1.000  O
  O9       1.0000 0.07390  0.76650  0.15390  Biso   1.000  O
  O10      1.0000 0.11820  0.83650  0.27720  Biso   1.000  O
  O11      1.0000 0.96580  0.87340  0.22110  Biso   1.000  O
  O12      1.0000 0.07670  0.98590  0.26140  Biso   1.000  O
  O13      1.0000 0.06200  0.93020  0.68910  Biso   1.000  O
  O14      1.0000 0.83480  0.94780  0.27540  Biso   1.000  O
  O15      1.0000 0.73450  0.98330  0.38200  Biso   1.000  O
  O16      1.0000 0.69000  0.82700  0.38420  Biso   1.000  O
  O17      1.0000 0.66720  0.71720  0.48500  Biso   1.000  O
  O18      1.0000 0.74310  0.86080  0.51230  Biso   1.000  O
  O19      1.0000 0.96080  0.80080  0.59430  Biso   1.000  O
  O20      1.0000 0.09110  0.72310  0.52950  Biso   1.000  O
  O21      1.0000 0.14700  0.87840  0.53390  Biso   1.000  O
  O22      1.0000 0.16970  0.86400  0.40090  Biso   1.000  O
  O23      1.0000 0.84930  0.73540  0.50640  Biso   1.000  O
  O24      1.0000 0.96220  0.77530  0.33960  Biso   1.000  O
  O25      1.0000 0.99630  0.91860  0.35750  Biso   1.000  O
  O26      1.0000 0.00140  0.82310  0.45620  Biso   1.000  O
  O27      1.0000 0.85620  0.86080  0.40270  Biso   1.000  O
  O28      1.0000 0.14010  0.02100  0.38750  Biso   1.000  O
  O29      1.0000 0.65580  0.15890  0.39670  Biso   1.000  O
  O30      1.0000 0.15480  0.74800  0.66430  Biso   1.000  O
  O31      1.0000 0.88100  0.84900  0.73740  Biso   1.000  O
  O32      1.0000 0.66020  0.03970  0.52180  Biso   1.000  O
  P1       1.0000 0.95392  0.84506  0.39028  Biso   1.000  P
  Ru1      1.0000 0.85692  0.59098  0.41301  Biso   1.000  Ru
  W1       1.0000 0.83697  0.70462  0.29026  Biso   1.000  W
  W2       1.0000 0.04215  0.65224  0.36464  Biso   1.000  W
  W3       1.0000 0.03039  0.78377  0.23231  Biso   1.000  W
  W4       1.0000 0.94902  0.98802  0.25817  Biso   1.000  W
  W5       1.0000 0.74226  0.90390  0.32510  Biso   1.000  W
  W6       1.0000 0.75142  0.77906  0.45896  Biso   1.000  W
  W7       1.0000 0.96609  0.72218  0.53728  Biso   1.000  W
  W8       1.0000 0.15448  0.79956  0.47761  Biso   1.000  W
  W9       1.0000 0.14552  0.93935  0.33296  Biso   1.000  W
  C1       1.0000 0.89320  0.47590  0.45270  Biso   1.000  C
  H1       1.0000 0.94840  0.45490  0.46240  Biso   1.000  H
  C2       1.0000 0.84600  0.52040  0.50270  Biso   1.000  C
  H2       1.0000 0.87030  0.52650  0.54550  Biso   1.000  H
  C3       1.0000 0.76350  0.55240  0.48760  Biso   1.000  C
  H3       1.0000 0.73340  0.58000  0.52040  Biso   1.000  H
  C4       1.0000 0.72820  0.54300  0.42660  Biso   1.000  C
  H4       1.0000 0.67390  0.56610  0.41740  Biso   1.000  H
  C5       1.0000 0.76820  0.50140  0.37400  Biso   1.000  C
  H5       1.0000 0.74250  0.49500  0.33170  Biso   1.000  H
  C6       1.0000 0.85650  0.46720  0.38990  Biso   1.000  C
  H6       1.0000 0.88650  0.43890  0.35750  Biso   1.000  H
  Na7      1.0000 0.99940  0.01840  0.47830  Biso   1.000  Na
  Na8      1.0000 0.02090  0.79210  0.03720  Biso   1.000  Na
  Na9      1.0000 0.69620  0.48800  0.00640  Biso   1.000  Na
  Na10     1.0000 0.68740  0.34430  0.87340  Biso   1.000  Na
  Na11     1.0000 0.48310  0.29310  0.79010  Biso   1.000  Na
  Na12     1.0000 0.70350  0.61290  0.14620  Biso   1.000  Na
  Na13     1.0000 0.91520  0.54360  0.08520  Biso   1.000  Na
  Na14     1.0000 0.49530  0.43330  0.92820  Biso   1.000  Na
  O33      1.0000 0.76450  0.64100  0.25270  Biso   1.000  O
  O34      1.0000 0.57680  0.12450  0.17430  Biso   1.000  O
  O35      1.0000 0.69680  0.20170  0.11720  Biso   1.000  O
  O36      1.0000 0.71570  0.29910  0.22030  Biso   1.000  O
  O37      1.0000 0.58090  0.22160  0.27820  Biso   1.000  O
  O38      1.0000 0.52820  0.15600  0.05540  Biso   1.000  O
  O39      1.0000 0.37440  0.21380  0.09730  Biso   1.000  O
  O40      1.0000 0.43020  0.18330  0.22340  Biso   1.000  O
  O41      1.0000 0.42610  0.26650  0.34610  Biso   1.000  O
  O42      1.0000 0.38180  0.33650  0.22280  Biso   1.000  O
  O43      1.0000 0.53420  0.37340  0.27890  Biso   1.000  O
  O44      1.0000 0.42330  0.48590  0.23860  Biso   1.000  O
  O45      1.0000 0.43800  0.43020  0.81090  Biso   1.000  O
  O46      1.0000 0.66520  0.44780  0.22460  Biso   1.000  O
  O47      1.0000 0.76550  0.48330  0.11800  Biso   1.000  O
  O48      1.0000 0.81000  0.32700  0.11580  Biso   1.000  O
  O49      1.0000 0.83280  0.21720  0.01500  Biso   1.000  O
  O50      1.0000 0.75690  0.36080  0.98770  Biso   1.000  O
  O51      1.0000 0.53920  0.30080  0.90570  Biso   1.000  O
  O52      1.0000 0.40890  0.22310  0.97050  Biso   1.000  O
  O53      1.0000 0.35300  0.37840  0.96610  Biso   1.000  O
  O54      1.0000 0.33030  0.36400  0.09910  Biso   1.000  O
  O55      1.0000 0.65070  0.23540  0.99360  Biso   1.000  O
  O56      1.0000 0.53780  0.27530  0.16040  Biso   1.000  O
  O57      1.0000 0.50370  0.41860  0.14250  Biso   1.000  O
  O58      1.0000 0.49860  0.32310  0.04380  Biso   1.000  O
  O59      1.0000 0.64380  0.36080  0.09730  Biso   1.000  O
  O60      1.0000 0.35990  0.52100  0.11250  Biso   1.000  O
  O61      1.0000 0.84420  0.65890  0.10330  Biso   1.000  O
  O62      1.0000 0.34520  0.24800  0.83570  Biso   1.000  O
  O63      1.0000 0.61900  0.34900  0.76260  Biso   1.000  O
  O64      1.0000 0.83980  0.53970  0.97820  Biso   1.000  O
  P2       1.0000 0.54608  0.34506  0.10972  Biso   1.000  P
  Ru2      1.0000 0.64308  0.09098  0.08699  Biso   1.000  Ru
  W10      1.0000 0.66303  0.20462  0.20974  Biso   1.000  W
  W11      1.0000 0.45785  0.15224  0.13536  Biso   1.000  W
  W12      1.0000 0.46961  0.28377  0.26769  Biso   1.000  W
  W13      1.0000 0.55098  0.48802  0.24183  Biso   1.000  W
  W14      1.0000 0.75774  0.40390  0.17490  Biso   1.000  W
  W15      1.0000 0.74858  0.27906  0.04104  Biso   1.000  W
  W16      1.0000 0.53391  0.22218  0.96272  Biso   1.000  W
  W17      1.0000 0.34552  0.29956  0.02239  Biso   1.000  W
  W18      1.0000 0.35448  0.43935  0.16704  Biso   1.000  W
  C7       1.0000 0.60680  0.97590  0.04730  Biso   1.000  C
  H7       1.0000 0.55160  0.95490  0.03760  Biso   1.000  H
  C8       1.0000 0.65400  0.02040  0.99730  Biso   1.000  C
  H8       1.0000 0.62970  0.02650  0.95450  Biso   1.000  H
  C9       1.0000 0.73650  0.05240  0.01240  Biso   1.000  C
  H9       1.0000 0.76660  0.08000  0.97960  Biso   1.000  H
  C10      1.0000 0.77180  0.04300  0.07340  Biso   1.000  C
  H10      1.0000 0.82610  0.06610  0.08260  Biso   1.000  H
  C11      1.0000 0.73180  0.00140  0.12600  Biso   1.000  C
  H11      1.0000 0.75750  0.99500  0.16830  Biso   1.000  H
  C12      1.0000 0.64350  0.96720  0.11010  Biso   1.000  C
  H12      1.0000 0.61350  0.93890  0.14250  Biso   1.000  H
  Na15     1.0000 0.50060  0.51840  0.02170  Biso   1.000  Na
  Na16     1.0000 0.47910  0.29210  0.46280  Biso   1.000  Na
  Na17     1.0000 0.19620  0.01200  0.50640  Biso   1.000  Na
  Na18     1.0000 0.18740  0.15570  0.37340  Biso   1.000  Na
  Na19     1.0000 0.98310  0.20690  0.29010  Biso   1.000  Na
  Na20     1.0000 0.20350  0.88710  0.64620  Biso   1.000  Na
  Na21     1.0000 0.41520  0.95640  0.58520  Biso   1.000  Na
  Na22     1.0000 0.99530  0.06670  0.42820  Biso   1.000  Na
  O65      1.0000 0.26450  0.85900  0.75270  Biso   1.000  O
  O66      1.0000 0.07680  0.37550  0.67430  Biso   1.000  O
  O67      1.0000 0.19680  0.29830  0.61720  Biso   1.000  O
  O68      1.0000 0.21570  0.20090  0.72030  Biso   1.000  O
  O69      1.0000 0.08090  0.27840  0.77820  Biso   1.000  O
  O70      1.0000 0.02820  0.34400  0.55540  Biso   1.000  O
  O71      1.0000 0.87440  0.28620  0.59730  Biso   1.000  O
  O72      1.0000 0.93020  0.31670  0.72340  Biso   1.000  O
  O73      1.0000 0.92610  0.23350  0.84610  Biso   1.000  O
  O74      1.0000 0.88180  0.16350  0.72280  Biso   1.000  O
  O75      1.0000 0.03420  0.12660  0.77890  Biso   1.000  O
  O76      1.0000 0.92330  0.01410  0.73860  Biso   1.000  O
  O77      1.0000 0.93800  0.06980  0.31090  Biso   1.000  O
  O78      1.0000 0.16520  0.05220  0.72460  Biso   1.000  O
  O79      1.0000 0.26550  0.01670  0.61800  Biso   1.000  O
  O80      1.0000 0.31000  0.17300  0.61580  Biso   1.000  O
  O81      1.0000 0.33280  0.28280  0.51500  Biso   1.000  O
  O82      1.0000 0.25690  0.13920  0.48770  Biso   1.000  O
  O83      1.0000 0.03920  0.19920  0.40570  Biso   1.000  O
  O84      1.0000 0.90890  0.27690  0.47050  Biso   1.000  O
  O85      1.0000 0.85300  0.12160  0.46610  Biso   1.000  O
  O86      1.0000 0.83030  0.13600  0.59910  Biso   1.000  O
  O87      1.0000 0.15070  0.26460  0.49360  Biso   1.000  O
  O88      1.0000 0.03780  0.22470  0.66040  Biso   1.000  O
  O89      1.0000 0.00370  0.08140  0.64250  Biso   1.000  O
  O90      1.0000 0.99860  0.17690  0.54380  Biso   1.000  O
  O91      1.0000 0.14380  0.13920  0.59730  Biso   1.000  O
  O92      1.0000 0.85990  0.97900  0.61250  Biso   1.000  O
  O93      1.0000 0.34420  0.84110  0.60330  Biso   1.000  O
  O94      1.0000 0.84520  0.25200  0.33570  Biso   1.000  O
  O95      1.0000 0.11900  0.15100  0.26260  Biso   1.000  O
  O96      1.0000 0.33980  0.96030  0.47820  Biso   1.000  O
  P3       1.0000 0.04608  0.15494  0.60972  Biso   1.000  P
  Ru3      1.0000 0.14308  0.40902  0.58699  Biso   1.000  Ru
  W19      1.0000 0.16303  0.29538  0.70974  Biso   1.000  W
  W20      1.0000 0.95785  0.34776  0.63536  Biso   1.000  W
  W21      1.0000 0.96961  0.21623  0.76769  Biso   1.000  W
  W22      1.0000 0.05098  0.01198  0.74183  Biso   1.000  W
  W23      1.0000 0.25774  0.09610  0.67490  Biso   1.000  W
  W24      1.0000 0.24858  0.22094  0.54104  Biso   1.000  W
  W25      1.0000 0.03391  0.27782  0.46272  Biso   1.000  W
  W26      1.0000 0.84552  0.20044  0.52239  Biso   1.000  W
  W27      1.0000 0.85448  0.06065  0.66704  Biso   1.000  W
  C13      1.0000 0.10680  0.52410  0.54730  Biso   1.000  C
  H13      1.0000 0.05160  0.54510  0.53760  Biso   1.000  H
  C14      1.0000 0.15400  0.47960  0.49730  Biso   1.000  C
  H14      1.0000 0.12970  0.47350  0.45450  Biso   1.000  H
  C15      1.0000 0.23650  0.44760  0.51240  Biso   1.000  C
  H15      1.0000 0.26660  0.42000  0.47960  Biso   1.000  H
  C16      1.0000 0.27180  0.45700  0.57340  Biso   1.000  C
  H16      1.0000 0.32610  0.43390  0.58260  Biso   1.000  H
  C17      1.0000 0.23180  0.49860  0.62600  Biso   1.000  C
  H17      1.0000 0.25750  0.50500  0.66830  Biso   1.000  H
  C18      1.0000 0.14350  0.53280  0.61010  Biso   1.000  C
  H18      1.0000 0.11350  0.56110  0.64250  Biso   1.000  H
  Na23     1.0000 0.00060  0.98160  0.52170  Biso   1.000  Na
  Na24     1.0000 0.97910  0.20790  0.96280  Biso   1.000  Na
  Na25     1.0000 0.30380  0.51200  0.99360  Biso   1.000  Na
  Na26     1.0000 0.31260  0.65570  0.12660  Biso   1.000  Na
  Na27     1.0000 0.51690  0.70690  0.20990  Biso   1.000  Na
  Na28     1.0000 0.29650  0.38710  0.85380  Biso   1.000  Na
  Na29     1.0000 0.08480  0.45640  0.91480  Biso   1.000  Na
  Na30     1.0000 0.50470  0.56670  0.07180  Biso   1.000  Na
  O97      1.0000 0.23550  0.35900  0.74730  Biso   1.000  O
  O98      1.0000 0.42320  0.87550  0.82570  Biso   1.000  O
  O99      1.0000 0.30320  0.79830  0.88280  Biso   1.000  O
  O100     1.0000 0.28430  0.70090  0.77970  Biso   1.000  O
  O101     1.0000 0.41910  0.77840  0.72180  Biso   1.000  O
  O102     1.0000 0.47180  0.84400  0.94460  Biso   1.000  O
  O103     1.0000 0.62560  0.78620  0.90270  Biso   1.000  O
  O104     1.0000 0.56980  0.81670  0.77660  Biso   1.000  O
  O105     1.0000 0.57390  0.73350  0.65390  Biso   1.000  O
  O106     1.0000 0.61820  0.66350  0.77720  Biso   1.000  O
  O107     1.0000 0.46580  0.62660  0.72110  Biso   1.000  O
  O108     1.0000 0.57670  0.51410  0.76140  Biso   1.000  O
  O109     1.0000 0.56200  0.56980  0.18910  Biso   1.000  O
  O110     1.0000 0.33480  0.55220  0.77540  Biso   1.000  O
  O111     1.0000 0.23450  0.51670  0.88200  Biso   1.000  O
  O112     1.0000 0.19000  0.67300  0.88420  Biso   1.000  O
  O113     1.0000 0.16720  0.78280  0.98500  Biso   1.000  O
  O114     1.0000 0.24310  0.63920  0.01230  Biso   1.000  O
  O115     1.0000 0.46080  0.69920  0.09430  Biso   1.000  O
  O116     1.0000 0.59110  0.77690  0.02950  Biso   1.000  O
  O117     1.0000 0.64700  0.62160  0.03390  Biso   1.000  O
  O118     1.0000 0.66970  0.63600  0.90090  Biso   1.000  O
  O119     1.0000 0.34930  0.76460  0.00640  Biso   1.000  O
  O120     1.0000 0.46220  0.72470  0.83960  Biso   1.000  O
  O121     1.0000 0.49630  0.58140  0.85750  Biso   1.000  O
  O122     1.0000 0.50140  0.67690  0.95620  Biso   1.000  O
  O123     1.0000 0.35620  0.63920  0.90270  Biso   1.000  O
  O124     1.0000 0.64010  0.47900  0.88750  Biso   1.000  O
  O125     1.0000 0.15580  0.34110  0.89670  Biso   1.000  O
  O126     1.0000 0.65480  0.75200  0.16430  Biso   1.000  O
  O127     1.0000 0.38100  0.65100  0.23740  Biso   1.000  O
  O128     1.0000 0.16020  0.46030  0.02180  Biso   1.000  O
  P4       1.0000 0.45392  0.65494  0.89028  Biso   1.000  P
  Ru4      1.0000 0.35692  0.90902  0.91301  Biso   1.000  Ru
  W28      1.0000 0.33697  0.79538  0.79026  Biso   1.000  W
  W29      1.0000 0.54215  0.84776  0.86464  Biso   1.000  W
  W30      1.0000 0.53039  0.71623  0.73231  Biso   1.000  W
  W31      1.0000 0.44902  0.51198  0.75817  Biso   1.000  W
  W32      1.0000 0.24226  0.59610  0.82510  Biso   1.000  W
  W33      1.0000 0.25142  0.72094  0.95896  Biso   1.000  W
  W34      1.0000 0.46609  0.77782  0.03728  Biso   1.000  W
  W35      1.0000 0.65448  0.70044  0.97761  Biso   1.000  W
  W36      1.0000 0.64552  0.56065  0.83296  Biso   1.000  W
  C19      1.0000 0.39320  0.02410  0.95270  Biso   1.000  C
  H19      1.0000 0.44840  0.04510  0.96240  Biso   1.000  H
  C20      1.0000 0.34600  0.97960  0.00270  Biso   1.000  C
  H20      1.0000 0.37030  0.97350  0.04550  Biso   1.000  H
  C21      1.0000 0.26350  0.94760  0.98760  Biso   1.000  C
  H21      1.0000 0.23340  0.92000  0.02040  Biso   1.000  H
  C22      1.0000 0.22820  0.95700  0.92660  Biso   1.000  C
  H22      1.0000 0.17390  0.93390  0.91740  Biso   1.000  H
  C23      1.0000 0.26820  0.99860  0.87400  Biso   1.000  C
  H23      1.0000 0.24250  0.00500  0.83170  Biso   1.000  H
  C24      1.0000 0.35650  0.03280  0.88990  Biso   1.000  C
  H24      1.0000 0.38650  0.06110  0.85750  Biso   1.000  H
  Na31     1.0000 0.49940  0.48160  0.97830  Biso   1.000  Na
  Na32     1.0000 0.52090  0.70790  0.53720  Biso   1.000  Na
