data_image0
_cell_length_a       20.135
_cell_length_b       15.964
_cell_length_c       29.307
_cell_angle_alpha    90
_cell_angle_beta     90
_cell_angle_gamma    90

_symmetry_space_group_name_H-M    "P 1"
_symmetry_int_tables_number       1

loop_
  _symmetry_equiv_pos_as_xyz
  'x, y, z'

loop_
  _atom_site_label
  _atom_site_occupancy
  _atom_site_fract_x
  _atom_site_fract_y
  _atom_site_fract_z
  _atom_site_thermal_displace_type
  _atom_site_B_iso_or_equiv
  _atom_site_type_symbol
  N1       1.0000 0.38350  0.08570  0.04782  Biso   1.000  N
  N2       1.0000 0.17490  0.08180  0.05160  Biso   1.000  N
  O1       1.0000 0.17440  0.02920  0.12347  Biso   1.000  O
  O2       1.0000 0.17450  0.13240  0.97915  Biso   1.000  O
  C1       1.0000 0.46050  0.27110  0.39020  Biso   1.000  C
  H1       1.0000 0.44010  0.23780  0.41350  Biso   1.000  H
  C2       1.0000 0.45830  0.24740  0.34510  Biso   1.000  C
  H2       1.0000 0.43090  0.20100  0.33620  Biso   1.000  H
  C3       1.0000 0.35060  0.01500  0.05610  Biso   1.000  C
  H3       1.0000 0.37480  0.96620  0.06120  Biso   1.000  H
  C4       1.0000 0.28200  0.01080  0.05760  Biso   1.000  C
  H4       1.0000 0.26040  0.96020  0.06270  Biso   1.000  H
  C5       1.0000 0.24660  0.08380  0.05130  Biso   1.000  C
  C6       1.0000 0.27940  0.15700  0.04400  Biso   1.000  C
  H5       1.0000 0.25640  0.20700  0.04000  Biso   1.000  H
  C7       1.0000 0.34880  0.15500  0.04280  Biso   1.000  C
  H6       1.0000 0.37160  0.20500  0.03820  Biso   1.000  H
  C8       1.0000 0.14180  0.05120  0.09080  Biso   1.000  C
  C9       1.0000 0.06950  0.04980  0.09030  Biso   1.000  C
  C10      1.0000 0.03540  0.02070  0.12710  Biso   1.000  C
  H7       1.0000 0.06500  0.99800  0.14900  Biso   1.000  H
  C11      1.0000 0.03480  0.07860  0.05140  Biso   1.000  C
  C12      1.0000 0.06930  0.10880  0.01250  Biso   1.000  C
  C13      1.0000 0.03500  0.13750  0.97500  Biso   1.000  C
  H8       1.0000 0.06000  0.15500  0.94400  Biso   1.000  H
  C14      1.0000 0.14250  0.11030  0.01190  Biso   1.000  C
  N3       1.0000 0.61650  0.41430  0.54782  Biso   1.000  N
  N4       1.0000 0.82510  0.41820  0.55160  Biso   1.000  N
  O3       1.0000 0.82560  0.47080  0.62347  Biso   1.000  O
  O4       1.0000 0.82550  0.36760  0.47915  Biso   1.000  O
  C15      1.0000 0.53950  0.22890  0.89020  Biso   1.000  C
  H9       1.0000 0.55990  0.26220  0.91350  Biso   1.000  H
  C16      1.0000 0.54170  0.25260  0.84510  Biso   1.000  C
  H10      1.0000 0.56910  0.29900  0.83620  Biso   1.000  H
  C17      1.0000 0.64940  0.48500  0.55610  Biso   1.000  C
  H11      1.0000 0.62520  0.53380  0.56120  Biso   1.000  H
  C18      1.0000 0.71800  0.48920  0.55760  Biso   1.000  C
  H12      1.0000 0.73960  0.53980  0.56270  Biso   1.000  H
  C19      1.0000 0.75340  0.41620  0.55130  Biso   1.000  C
  C20      1.0000 0.72060  0.34300  0.54400  Biso   1.000  C
  H13      1.0000 0.74360  0.29300  0.54000  Biso   1.000  H
  C21      1.0000 0.65120  0.34500  0.54280  Biso   1.000  C
  H14      1.0000 0.62840  0.29500  0.53820  Biso   1.000  H
  C22      1.0000 0.85820  0.44880  0.59080  Biso   1.000  C
  C23      1.0000 0.93050  0.45020  0.59030  Biso   1.000  C
  C24      1.0000 0.96460  0.47930  0.62710  Biso   1.000  C
  H15      1.0000 0.93500  0.50200  0.64900  Biso   1.000  H
  C25      1.0000 0.96520  0.42140  0.55140  Biso   1.000  C
  C26      1.0000 0.93070  0.39120  0.51250  Biso   1.000  C
  C27      1.0000 0.96500  0.36250  0.47500  Biso   1.000  C
  H16      1.0000 0.94000  0.34500  0.44400  Biso   1.000  H
  C28      1.0000 0.85750  0.38970  0.51190  Biso   1.000  C
  N5       1.0000 0.61650  0.58570  0.45218  Biso   1.000  N
  N6       1.0000 0.82510  0.58180  0.44840  Biso   1.000  N
  O5       1.0000 0.82560  0.52920  0.37653  Biso   1.000  O
  O6       1.0000 0.82550  0.63240  0.52085  Biso   1.000  O
  C29      1.0000 0.53950  0.77110  0.10980  Biso   1.000  C
  H17      1.0000 0.55990  0.73780  0.08650  Biso   1.000  H
  C30      1.0000 0.54170  0.74740  0.15490  Biso   1.000  C
  H18      1.0000 0.56910  0.70100  0.16380  Biso   1.000  H
  C31      1.0000 0.64940  0.51500  0.44390  Biso   1.000  C
  H19      1.0000 0.62520  0.46620  0.43880  Biso   1.000  H
  C32      1.0000 0.71800  0.51080  0.44240  Biso   1.000  C
  H20      1.0000 0.73960  0.46020  0.43730  Biso   1.000  H
  C33      1.0000 0.75340  0.58380  0.44870  Biso   1.000  C
  C34      1.0000 0.72060  0.65700  0.45600  Biso   1.000  C
  H21      1.0000 0.74360  0.70700  0.46000  Biso   1.000  H
  C35      1.0000 0.65120  0.65500  0.45720  Biso   1.000  C
  H22      1.0000 0.62840  0.70500  0.46180  Biso   1.000  H
  C36      1.0000 0.85820  0.55120  0.40920  Biso   1.000  C
  C37      1.0000 0.93050  0.54980  0.40970  Biso   1.000  C
  C38      1.0000 0.96460  0.52070  0.37290  Biso   1.000  C
  H23      1.0000 0.93500  0.49800  0.35100  Biso   1.000  H
  C39      1.0000 0.96520  0.57860  0.44860  Biso   1.000  C
  C40      1.0000 0.93070  0.60880  0.48750  Biso   1.000  C
  C41      1.0000 0.96500  0.63750  0.52500  Biso   1.000  C
  H24      1.0000 0.94000  0.65500  0.55600  Biso   1.000  H
  C42      1.0000 0.85750  0.61030  0.48810  Biso   1.000  C
  N7       1.0000 0.38350  0.91430  0.95218  Biso   1.000  N
  N8       1.0000 0.17490  0.91820  0.94840  Biso   1.000  N
  O7       1.0000 0.17440  0.97080  0.87653  Biso   1.000  O
  O8       1.0000 0.17450  0.86760  0.02085  Biso   1.000  O
  C43      1.0000 0.46050  0.72890  0.60980  Biso   1.000  C
  H25      1.0000 0.44010  0.76220  0.58650  Biso   1.000  H
  C44      1.0000 0.45830  0.75260  0.65490  Biso   1.000  C
  H26      1.0000 0.43090  0.79900  0.66380  Biso   1.000  H
  C45      1.0000 0.35060  0.98500  0.94390  Biso   1.000  C
  H27      1.0000 0.37480  0.03380  0.93880  Biso   1.000  H
  C46      1.0000 0.28200  0.98920  0.94240  Biso   1.000  C
  H28      1.0000 0.26040  0.03980  0.93730  Biso   1.000  H
  C47      1.0000 0.24660  0.91620  0.94870  Biso   1.000  C
  C48      1.0000 0.27940  0.84300  0.95600  Biso   1.000  C
  H29      1.0000 0.25640  0.79300  0.96000  Biso   1.000  H
  C49      1.0000 0.34880  0.84500  0.95720  Biso   1.000  C
  H30      1.0000 0.37160  0.79500  0.96180  Biso   1.000  H
  C50      1.0000 0.14180  0.94880  0.90920  Biso   1.000  C
  C51      1.0000 0.06950  0.95020  0.90970  Biso   1.000  C
  C52      1.0000 0.03540  0.97930  0.87290  Biso   1.000  C
  H31      1.0000 0.06500  0.00200  0.85100  Biso   1.000  H
  C53      1.0000 0.03480  0.92140  0.94860  Biso   1.000  C
  C54      1.0000 0.06930  0.89120  0.98750  Biso   1.000  C
  C55      1.0000 0.03500  0.86250  0.02500  Biso   1.000  C
  H32      1.0000 0.06000  0.84500  0.05600  Biso   1.000  H
  C56      1.0000 0.14250  0.88970  0.98810  Biso   1.000  C
  N9       1.0000 0.61650  0.91430  0.95218  Biso   1.000  N
  N10      1.0000 0.82510  0.91820  0.94840  Biso   1.000  N
  O9       1.0000 0.82560  0.97080  0.87653  Biso   1.000  O
  O10      1.0000 0.82550  0.86760  0.02085  Biso   1.000  O
  C57      1.0000 0.53950  0.72890  0.60980  Biso   1.000  C
  H33      1.0000 0.55990  0.76220  0.58650  Biso   1.000  H
  C58      1.0000 0.54170  0.75260  0.65490  Biso   1.000  C
  H34      1.0000 0.56910  0.79900  0.66380  Biso   1.000  H
  C59      1.0000 0.64940  0.98500  0.94390  Biso   1.000  C
  H35      1.0000 0.62520  0.03380  0.93880  Biso   1.000  H
  C60      1.0000 0.71800  0.98920  0.94240  Biso   1.000  C
  H36      1.0000 0.73960  0.03980  0.93730  Biso   1.000  H
  C61      1.0000 0.75340  0.91620  0.94870  Biso   1.000  C
  C62      1.0000 0.72060  0.84300  0.95600  Biso   1.000  C
  H37      1.0000 0.74360  0.79300  0.96000  Biso   1.000  H
  C63      1.0000 0.65120  0.84500  0.95720  Biso   1.000  C
  H38      1.0000 0.62840  0.79500  0.96180  Biso   1.000  H
  C64      1.0000 0.85820  0.94880  0.90920  Biso   1.000  C
  C65      1.0000 0.93050  0.95020  0.90970  Biso   1.000  C
  C66      1.0000 0.96460  0.97930  0.87290  Biso   1.000  C
  H39      1.0000 0.93500  0.00200  0.85100  Biso   1.000  H
  C67      1.0000 0.96520  0.92140  0.94860  Biso   1.000  C
  C68      1.0000 0.93070  0.89120  0.98750  Biso   1.000  C
  C69      1.0000 0.96500  0.86250  0.02500  Biso   1.000  C
  H40      1.0000 0.94000  0.84500  0.05600  Biso   1.000  H
  C70      1.0000 0.85750  0.88970  0.98810  Biso   1.000  C
  N11      1.0000 0.38350  0.58570  0.45218  Biso   1.000  N
  N12      1.0000 0.17490  0.58180  0.44840  Biso   1.000  N
  O11      1.0000 0.17440  0.52920  0.37653  Biso   1.000  O
  O12      1.0000 0.17450  0.63240  0.52085  Biso   1.000  O
  C71      1.0000 0.46050  0.77110  0.10980  Biso   1.000  C
  H41      1.0000 0.44010  0.73780  0.08650  Biso   1.000  H
  C72      1.0000 0.45830  0.74740  0.15490  Biso   1.000  C
  H42      1.0000 0.43090  0.70100  0.16380  Biso   1.000  H
  C73      1.0000 0.35060  0.51500  0.44390  Biso   1.000  C
  H43      1.0000 0.37480  0.46620  0.43880  Biso   1.000  H
  C74      1.0000 0.28200  0.51080  0.44240  Biso   1.000  C
  H44      1.0000 0.26040  0.46020  0.43730  Biso   1.000  H
  C75      1.0000 0.24660  0.58380  0.44870  Biso   1.000  C
  C76      1.0000 0.27940  0.65700  0.45600  Biso   1.000  C
  H45      1.0000 0.25640  0.70700  0.46000  Biso   1.000  H
  C77      1.0000 0.34880  0.65500  0.45720  Biso   1.000  C
  H46      1.0000 0.37160  0.70500  0.46180  Biso   1.000  H
  C78      1.0000 0.14180  0.55120  0.40920  Biso   1.000  C
  C79      1.0000 0.06950  0.54980  0.40970  Biso   1.000  C
  C80      1.0000 0.03540  0.52070  0.37290  Biso   1.000  C
  H47      1.0000 0.06500  0.49800  0.35100  Biso   1.000  H
  C81      1.0000 0.03480  0.57860  0.44860  Biso   1.000  C
  C82      1.0000 0.06930  0.60880  0.48750  Biso   1.000  C
  C83      1.0000 0.03500  0.63750  0.52500  Biso   1.000  C
  H48      1.0000 0.06000  0.65500  0.55600  Biso   1.000  H
  C84      1.0000 0.14250  0.61030  0.48810  Biso   1.000  C
  N13      1.0000 0.38350  0.41430  0.54782  Biso   1.000  N
  N14      1.0000 0.17490  0.41820  0.55160  Biso   1.000  N
  O13      1.0000 0.17440  0.47080  0.62347  Biso   1.000  O
  O14      1.0000 0.17450  0.36760  0.47915  Biso   1.000  O
  C85      1.0000 0.46050  0.22890  0.89020  Biso   1.000  C
  H49      1.0000 0.44010  0.26220  0.91350  Biso   1.000  H
  C86      1.0000 0.45830  0.25260  0.84510  Biso   1.000  C
  H50      1.0000 0.43090  0.29900  0.83620  Biso   1.000  H
  C87      1.0000 0.35060  0.48500  0.55610  Biso   1.000  C
  H51      1.0000 0.37480  0.53380  0.56120  Biso   1.000  H
  C88      1.0000 0.28200  0.48920  0.55760  Biso   1.000  C
  H52      1.0000 0.26040  0.53980  0.56270  Biso   1.000  H
  C89      1.0000 0.24660  0.41620  0.55130  Biso   1.000  C
  C90      1.0000 0.27940  0.34300  0.54400  Biso   1.000  C
  H53      1.0000 0.25640  0.29300  0.54000  Biso   1.000  H
  C91      1.0000 0.34880  0.34500  0.54280  Biso   1.000  C
  H54      1.0000 0.37160  0.29500  0.53820  Biso   1.000  H
  C92      1.0000 0.14180  0.44880  0.59080  Biso   1.000  C
  C93      1.0000 0.06950  0.45020  0.59030  Biso   1.000  C
  C94      1.0000 0.03540  0.47930  0.62710  Biso   1.000  C
  H55      1.0000 0.06500  0.50200  0.64900  Biso   1.000  H
  C95      1.0000 0.03480  0.42140  0.55140  Biso   1.000  C
  C96      1.0000 0.06930  0.39120  0.51250  Biso   1.000  C
  C97      1.0000 0.03500  0.36250  0.47500  Biso   1.000  C
  H56      1.0000 0.06000  0.34500  0.44400  Biso   1.000  H
  C98      1.0000 0.14250  0.38970  0.51190  Biso   1.000  C
  N15      1.0000 0.61650  0.08570  0.04782  Biso   1.000  N
  N16      1.0000 0.82510  0.08180  0.05160  Biso   1.000  N
  O15      1.0000 0.82560  0.02920  0.12347  Biso   1.000  O
  O16      1.0000 0.82550  0.13240  0.97915  Biso   1.000  O
  C99      1.0000 0.53950  0.27110  0.39020  Biso   1.000  C
  H57      1.0000 0.55990  0.23780  0.41350  Biso   1.000  H
  C100     1.0000 0.54170  0.24740  0.34510  Biso   1.000  C
  H58      1.0000 0.56910  0.20100  0.33620  Biso   1.000  H
  C101     1.0000 0.64940  0.01500  0.05610  Biso   1.000  C
  H59      1.0000 0.62520  0.96620  0.06120  Biso   1.000  H
  C102     1.0000 0.71800  0.01080  0.05760  Biso   1.000  C
  H60      1.0000 0.73960  0.96020  0.06270  Biso   1.000  H
  C103     1.0000 0.75340  0.08380  0.05130  Biso   1.000  C
  C104     1.0000 0.72060  0.15700  0.04400  Biso   1.000  C
  H61      1.0000 0.74360  0.20700  0.04000  Biso   1.000  H
  C105     1.0000 0.65120  0.15500  0.04280  Biso   1.000  C
  H62      1.0000 0.62840  0.20500  0.03820  Biso   1.000  H
  C106     1.0000 0.85820  0.05120  0.09080  Biso   1.000  C
  C107     1.0000 0.93050  0.04980  0.09030  Biso   1.000  C
  C108     1.0000 0.96460  0.02070  0.12710  Biso   1.000  C
  H63      1.0000 0.93500  0.99800  0.14900  Biso   1.000  H
  C109     1.0000 0.96520  0.07860  0.05140  Biso   1.000  C
  C110     1.0000 0.93070  0.10880  0.01250  Biso   1.000  C
  C111     1.0000 0.96500  0.13750  0.97500  Biso   1.000  C
  H64      1.0000 0.94000  0.15500  0.94400  Biso   1.000  H
  C112     1.0000 0.85750  0.11030  0.01190  Biso   1.000  C
  Cd1      1.0000 0.50000  0.09257  0.04360  Biso   1.000  Cd
  C113     1.0000 0.50000  0.17010  0.12610  Biso   1.000  C
  O17      1.0000 0.50000  0.31730  0.48120  Biso   1.000  O
  O18      1.0000 0.50000  0.44510  0.46207  Biso   1.000  O
  C114     1.0000 0.50000  0.20410  0.17370  Biso   1.000  C
  O19      1.0000 0.50000  0.21850  0.09295  Biso   1.000  O
  C115     1.0000 0.50000  0.28800  0.18240  Biso   1.000  C
  H65      1.0000 0.50000  0.32540  0.15810  Biso   1.000  H
  O20      1.0000 0.50000  0.09210  0.12180  Biso   1.000  O
  C116     1.0000 0.50000  0.31860  0.22620  Biso   1.000  C
  H66      1.0000 0.50000  0.37620  0.23100  Biso   1.000  H
  C117     1.0000 0.50000  0.17990  0.25440  Biso   1.000  C
  H67      1.0000 0.50000  0.14250  0.27880  Biso   1.000  H
  C118     1.0000 0.50000  0.14900  0.21040  Biso   1.000  C
  H68      1.0000 0.50000  0.09150  0.20530  Biso   1.000  H
  C119     1.0000 0.50000  0.26470  0.26330  Biso   1.000  C
  C120     1.0000 0.50000  0.29550  0.31050  Biso   1.000  C
  C121     1.0000 0.50000  0.37150  0.32270  Biso   1.000  C
  H69      1.0000 0.50000  0.41210  0.30000  Biso   1.000  H
  C122     1.0000 0.50000  0.39880  0.36840  Biso   1.000  C
  H70      1.0000 0.50000  0.45600  0.37430  Biso   1.000  H
  C123     1.0000 0.50000  0.34740  0.40230  Biso   1.000  C
  C124     1.0000 0.50000  0.37130  0.45160  Biso   1.000  C
  Cd2      1.0000 0.50000  0.40743  0.54360  Biso   1.000  Cd
  C125     1.0000 0.50000  0.32990  0.62610  Biso   1.000  C
  O21      1.0000 0.50000  0.18270  0.98120  Biso   1.000  O
  O22      1.0000 0.50000  0.05490  0.96207  Biso   1.000  O
  C126     1.0000 0.50000  0.29590  0.67370  Biso   1.000  C
  O23      1.0000 0.50000  0.28150  0.59295  Biso   1.000  O
  C127     1.0000 0.50000  0.21200  0.68240  Biso   1.000  C
  H71      1.0000 0.50000  0.17460  0.65810  Biso   1.000  H
  O24      1.0000 0.50000  0.40790  0.62180  Biso   1.000  O
  C128     1.0000 0.50000  0.18140  0.72620  Biso   1.000  C
  H72      1.0000 0.50000  0.12380  0.73100  Biso   1.000  H
  C129     1.0000 0.50000  0.32010  0.75440  Biso   1.000  C
  H73      1.0000 0.50000  0.35750  0.77880  Biso   1.000  H
  C130     1.0000 0.50000  0.35100  0.71040  Biso   1.000  C
  H74      1.0000 0.50000  0.40850  0.70530  Biso   1.000  H
  C131     1.0000 0.50000  0.23530  0.76330  Biso   1.000  C
  C132     1.0000 0.50000  0.20450  0.81050  Biso   1.000  C
  C133     1.0000 0.50000  0.12850  0.82270  Biso   1.000  C
  H75      1.0000 0.50000  0.08790  0.80000  Biso   1.000  H
  C134     1.0000 0.50000  0.10120  0.86840  Biso   1.000  C
  H76      1.0000 0.50000  0.04400  0.87430  Biso   1.000  H
  C135     1.0000 0.50000  0.15260  0.90230  Biso   1.000  C
  C136     1.0000 0.50000  0.12870  0.95160  Biso   1.000  C
  Cd3      1.0000 0.50000  0.59257  0.45640  Biso   1.000  Cd
  C137     1.0000 0.50000  0.67010  0.37390  Biso   1.000  C
  O25      1.0000 0.50000  0.81730  0.01880  Biso   1.000  O
  O26      1.0000 0.50000  0.94510  0.03793  Biso   1.000  O
  C138     1.0000 0.50000  0.70410  0.32630  Biso   1.000  C
  O27      1.0000 0.50000  0.71850  0.40705  Biso   1.000  O
  C139     1.0000 0.50000  0.78800  0.31760  Biso   1.000  C
  H77      1.0000 0.50000  0.82540  0.34190  Biso   1.000  H
  O28      1.0000 0.50000  0.59210  0.37820  Biso   1.000  O
  C140     1.0000 0.50000  0.81860  0.27380  Biso   1.000  C
  H78      1.0000 0.50000  0.87620  0.26900  Biso   1.000  H
  C141     1.0000 0.50000  0.67990  0.24560  Biso   1.000  C
  H79      1.0000 0.50000  0.64250  0.22120  Biso   1.000  H
  C142     1.0000 0.50000  0.64900  0.28960  Biso   1.000  C
  H80      1.0000 0.50000  0.59150  0.29470  Biso   1.000  H
  C143     1.0000 0.50000  0.76470  0.23670  Biso   1.000  C
  C144     1.0000 0.50000  0.79550  0.18950  Biso   1.000  C
  C145     1.0000 0.50000  0.87150  0.17730  Biso   1.000  C
  H81      1.0000 0.50000  0.91210  0.20000  Biso   1.000  H
  C146     1.0000 0.50000  0.89880  0.13160  Biso   1.000  C
  H82      1.0000 0.50000  0.95600  0.12570  Biso   1.000  H
  C147     1.0000 0.50000  0.84740  0.09770  Biso   1.000  C
  C148     1.0000 0.50000  0.87130  0.04840  Biso   1.000  C
  Cd4      1.0000 0.50000  0.90743  0.95640  Biso   1.000  Cd
  C149     1.0000 0.50000  0.82990  0.87390  Biso   1.000  C
  O29      1.0000 0.50000  0.68270  0.51880  Biso   1.000  O
  O30      1.0000 0.50000  0.55490  0.53793  Biso   1.000  O
  C150     1.0000 0.50000  0.79590  0.82630  Biso   1.000  C
  O31      1.0000 0.50000  0.78150  0.90705  Biso   1.000  O
  C151     1.0000 0.50000  0.71200  0.81760  Biso   1.000  C
  H83      1.0000 0.50000  0.67460  0.84190  Biso   1.000  H
  O32      1.0000 0.50000  0.90790  0.87820  Biso   1.000  O
  C152     1.0000 0.50000  0.68140  0.77380  Biso   1.000  C
  H84      1.0000 0.50000  0.62380  0.76900  Biso   1.000  H
  C153     1.0000 0.50000  0.82010  0.74560  Biso   1.000  C
  H85      1.0000 0.50000  0.85750  0.72120  Biso   1.000  H
  C154     1.0000 0.50000  0.85100  0.78960  Biso   1.000  C
  H86      1.0000 0.50000  0.90850  0.79470  Biso   1.000  H
  C155     1.0000 0.50000  0.73530  0.73670  Biso   1.000  C
  C156     1.0000 0.50000  0.70450  0.68950  Biso   1.000  C
  C157     1.0000 0.50000  0.62850  0.67730  Biso   1.000  C
  H87      1.0000 0.50000  0.58790  0.70000  Biso   1.000  H
  C158     1.0000 0.50000  0.60120  0.63160  Biso   1.000  C
  H88      1.0000 0.50000  0.54400  0.62570  Biso   1.000  H
  C159     1.0000 0.50000  0.65260  0.59770  Biso   1.000  C
  C160     1.0000 0.50000  0.62870  0.54840  Biso   1.000  C
  N17      1.0000 0.88350  0.58570  0.04782  Biso   1.000  N
  N18      1.0000 0.67490  0.58180  0.05160  Biso   1.000  N
  O33      1.0000 0.67440  0.52920  0.12347  Biso   1.000  O
  O34      1.0000 0.67450  0.63240  0.97915  Biso   1.000  O
  C161     1.0000 0.96050  0.77110  0.39020  Biso   1.000  C
  H89      1.0000 0.94010  0.73780  0.41350  Biso   1.000  H
  C162     1.0000 0.95830  0.74740  0.34510  Biso   1.000  C
  H90      1.0000 0.93090  0.70100  0.33620  Biso   1.000  H
  C163     1.0000 0.85060  0.51500  0.05610  Biso   1.000  C
  H91      1.0000 0.87480  0.46620  0.06120  Biso   1.000  H
  C164     1.0000 0.78200  0.51080  0.05760  Biso   1.000  C
  H92      1.0000 0.76040  0.46020  0.06270  Biso   1.000  H
  C165     1.0000 0.74660  0.58380  0.05130  Biso   1.000  C
  C166     1.0000 0.77940  0.65700  0.04400  Biso   1.000  C
  H93      1.0000 0.75640  0.70700  0.04000  Biso   1.000  H
  C167     1.0000 0.84880  0.65500  0.04280  Biso   1.000  C
  H94      1.0000 0.87160  0.70500  0.03820  Biso   1.000  H
  C168     1.0000 0.64180  0.55120  0.09080  Biso   1.000  C
  C169     1.0000 0.56950  0.54980  0.09030  Biso   1.000  C
  C170     1.0000 0.53540  0.52070  0.12710  Biso   1.000  C
  H95      1.0000 0.56500  0.49800  0.14900  Biso   1.000  H
  C171     1.0000 0.53480  0.57860  0.05140  Biso   1.000  C
  C172     1.0000 0.56930  0.60880  0.01250  Biso   1.000  C
  C173     1.0000 0.53500  0.63750  0.97500  Biso   1.000  C
  H96      1.0000 0.56000  0.65500  0.94400  Biso   1.000  H
  C174     1.0000 0.64250  0.61030  0.01190  Biso   1.000  C
  N19      1.0000 0.11650  0.91430  0.54782  Biso   1.000  N
  N20      1.0000 0.32510  0.91820  0.55160  Biso   1.000  N
  O35      1.0000 0.32560  0.97080  0.62347  Biso   1.000  O
  O36      1.0000 0.32550  0.86760  0.47915  Biso   1.000  O
  C175     1.0000 0.03950  0.72890  0.89020  Biso   1.000  C
  H97      1.0000 0.05990  0.76220  0.91350  Biso   1.000  H
  C176     1.0000 0.04170  0.75260  0.84510  Biso   1.000  C
  H98      1.0000 0.06910  0.79900  0.83620  Biso   1.000  H
  C177     1.0000 0.14940  0.98500  0.55610  Biso   1.000  C
  H99      1.0000 0.12520  0.03380  0.56120  Biso   1.000  H
  C178     1.0000 0.21800  0.98920  0.55760  Biso   1.000  C
  H100     1.0000 0.23960  0.03980  0.56270  Biso   1.000  H
  C179     1.0000 0.25340  0.91620  0.55130  Biso   1.000  C
  C180     1.0000 0.22060  0.84300  0.54400  Biso   1.000  C
  H101     1.0000 0.24360  0.79300  0.54000  Biso   1.000  H
  C181     1.0000 0.15120  0.84500  0.54280  Biso   1.000  C
  H102     1.0000 0.12840  0.79500  0.53820  Biso   1.000  H
  C182     1.0000 0.35820  0.94880  0.59080  Biso   1.000  C
  C183     1.0000 0.43050  0.95020  0.59030  Biso   1.000  C
  C184     1.0000 0.46460  0.97930  0.62710  Biso   1.000  C
  H103     1.0000 0.43500  0.00200  0.64900  Biso   1.000  H
  C185     1.0000 0.46520  0.92140  0.55140  Biso   1.000  C
  C186     1.0000 0.43070  0.89120  0.51250  Biso   1.000  C
  C187     1.0000 0.46500  0.86250  0.47500  Biso   1.000  C
  H104     1.0000 0.44000  0.84500  0.44400  Biso   1.000  H
  C188     1.0000 0.35750  0.88970  0.51190  Biso   1.000  C
  N21      1.0000 0.11650  0.08570  0.45218  Biso   1.000  N
  N22      1.0000 0.32510  0.08180  0.44840  Biso   1.000  N
  O37      1.0000 0.32560  0.02920  0.37653  Biso   1.000  O
  O38      1.0000 0.32550  0.13240  0.52085  Biso   1.000  O
  C189     1.0000 0.03950  0.27110  0.10980  Biso   1.000  C
  H105     1.0000 0.05990  0.23780  0.08650  Biso   1.000  H
  C190     1.0000 0.04170  0.24740  0.15490  Biso   1.000  C
  H106     1.0000 0.06910  0.20100  0.16380  Biso   1.000  H
  C191     1.0000 0.14940  0.01500  0.44390  Biso   1.000  C
  H107     1.0000 0.12520  0.96620  0.43880  Biso   1.000  H
  C192     1.0000 0.21800  0.01080  0.44240  Biso   1.000  C
  H108     1.0000 0.23960  0.96020  0.43730  Biso   1.000  H
  C193     1.0000 0.25340  0.08380  0.44870  Biso   1.000  C
  C194     1.0000 0.22060  0.15700  0.45600  Biso   1.000  C
  H109     1.0000 0.24360  0.20700  0.46000  Biso   1.000  H
  C195     1.0000 0.15120  0.15500  0.45720  Biso   1.000  C
  H110     1.0000 0.12840  0.20500  0.46180  Biso   1.000  H
  C196     1.0000 0.35820  0.05120  0.40920  Biso   1.000  C
  C197     1.0000 0.43050  0.04980  0.40970  Biso   1.000  C
  C198     1.0000 0.46460  0.02070  0.37290  Biso   1.000  C
  H111     1.0000 0.43500  0.99800  0.35100  Biso   1.000  H
  C199     1.0000 0.46520  0.07860  0.44860  Biso   1.000  C
  C200     1.0000 0.43070  0.10880  0.48750  Biso   1.000  C
  C201     1.0000 0.46500  0.13750  0.52500  Biso   1.000  C
  H112     1.0000 0.44000  0.15500  0.55600  Biso   1.000  H
  C202     1.0000 0.35750  0.11030  0.48810  Biso   1.000  C
  N23      1.0000 0.88350  0.41430  0.95218  Biso   1.000  N
  N24      1.0000 0.67490  0.41820  0.94840  Biso   1.000  N
  O39      1.0000 0.67440  0.47080  0.87653  Biso   1.000  O
  O40      1.0000 0.67450  0.36760  0.02085  Biso   1.000  O
  C203     1.0000 0.96050  0.22890  0.60980  Biso   1.000  C
  H113     1.0000 0.94010  0.26220  0.58650  Biso   1.000  H
  C204     1.0000 0.95830  0.25260  0.65490  Biso   1.000  C
  H114     1.0000 0.93090  0.29900  0.66380  Biso   1.000  H
  C205     1.0000 0.85060  0.48500  0.94390  Biso   1.000  C
  H115     1.0000 0.87480  0.53380  0.93880  Biso   1.000  H
  C206     1.0000 0.78200  0.48920  0.94240  Biso   1.000  C
  H116     1.0000 0.76040  0.53980  0.93730  Biso   1.000  H
  C207     1.0000 0.74660  0.41620  0.94870  Biso   1.000  C
  C208     1.0000 0.77940  0.34300  0.95600  Biso   1.000  C
  H117     1.0000 0.75640  0.29300  0.96000  Biso   1.000  H
  C209     1.0000 0.84880  0.34500  0.95720  Biso   1.000  C
  H118     1.0000 0.87160  0.29500  0.96180  Biso   1.000  H
  C210     1.0000 0.64180  0.44880  0.90920  Biso   1.000  C
  C211     1.0000 0.56950  0.45020  0.90970  Biso   1.000  C
  C212     1.0000 0.53540  0.47930  0.87290  Biso   1.000  C
  H119     1.0000 0.56500  0.50200  0.85100  Biso   1.000  H
  C213     1.0000 0.53480  0.42140  0.94860  Biso   1.000  C
  C214     1.0000 0.56930  0.39120  0.98750  Biso   1.000  C
  C215     1.0000 0.53500  0.36250  0.02500  Biso   1.000  C
  H120     1.0000 0.56000  0.34500  0.05600  Biso   1.000  H
  C216     1.0000 0.64250  0.38970  0.98810  Biso   1.000  C
  N25      1.0000 0.11650  0.41430  0.95218  Biso   1.000  N
  N26      1.0000 0.32510  0.41820  0.94840  Biso   1.000  N
  O41      1.0000 0.32560  0.47080  0.87653  Biso   1.000  O
  O42      1.0000 0.32550  0.36760  0.02085  Biso   1.000  O
  C217     1.0000 0.03950  0.22890  0.60980  Biso   1.000  C
  H121     1.0000 0.05990  0.26220  0.58650  Biso   1.000  H
  C218     1.0000 0.04170  0.25260  0.65490  Biso   1.000  C
  H122     1.0000 0.06910  0.29900  0.66380  Biso   1.000  H
  C219     1.0000 0.14940  0.48500  0.94390  Biso   1.000  C
  H123     1.0000 0.12520  0.53380  0.93880  Biso   1.000  H
  C220     1.0000 0.21800  0.48920  0.94240  Biso   1.000  C
  H124     1.0000 0.23960  0.53980  0.93730  Biso   1.000  H
  C221     1.0000 0.25340  0.41620  0.94870  Biso   1.000  C
  C222     1.0000 0.22060  0.34300  0.95600  Biso   1.000  C
  H125     1.0000 0.24360  0.29300  0.96000  Biso   1.000  H
  C223     1.0000 0.15120  0.34500  0.95720  Biso   1.000  C
  H126     1.0000 0.12840  0.29500  0.96180  Biso   1.000  H
  C224     1.0000 0.35820  0.44880  0.90920  Biso   1.000  C
  C225     1.0000 0.43050  0.45020  0.90970  Biso   1.000  C
  C226     1.0000 0.46460  0.47930  0.87290  Biso   1.000  C
  H127     1.0000 0.43500  0.50200  0.85100  Biso   1.000  H
  C227     1.0000 0.46520  0.42140  0.94860  Biso   1.000  C
  C228     1.0000 0.43070  0.39120  0.98750  Biso   1.000  C
  C229     1.0000 0.46500  0.36250  0.02500  Biso   1.000  C
  H128     1.0000 0.44000  0.34500  0.05600  Biso   1.000  H
  C230     1.0000 0.35750  0.38970  0.98810  Biso   1.000  C
  N27      1.0000 0.88350  0.08570  0.45218  Biso   1.000  N
  N28      1.0000 0.67490  0.08180  0.44840  Biso   1.000  N
  O43      1.0000 0.67440  0.02920  0.37653  Biso   1.000  O
  O44      1.0000 0.67450  0.13240  0.52085  Biso   1.000  O
  C231     1.0000 0.96050  0.27110  0.10980  Biso   1.000  C
  H129     1.0000 0.94010  0.23780  0.08650  Biso   1.000  H
  C232     1.0000 0.95830  0.24740  0.15490  Biso   1.000  C
  H130     1.0000 0.93090  0.20100  0.16380  Biso   1.000  H
  C233     1.0000 0.85060  0.01500  0.44390  Biso   1.000  C
  H131     1.0000 0.87480  0.96620  0.43880  Biso   1.000  H
  C234     1.0000 0.78200  0.01080  0.44240  Biso   1.000  C
  H132     1.0000 0.76040  0.96020  0.43730  Biso   1.000  H
  C235     1.0000 0.74660  0.08380  0.44870  Biso   1.000  C
  C236     1.0000 0.77940  0.15700  0.45600  Biso   1.000  C
  H133     1.0000 0.75640  0.20700  0.46000  Biso   1.000  H
  C237     1.0000 0.84880  0.15500  0.45720  Biso   1.000  C
  H134     1.0000 0.87160  0.20500  0.46180  Biso   1.000  H
  C238     1.0000 0.64180  0.05120  0.40920  Biso   1.000  C
  C239     1.0000 0.56950  0.04980  0.40970  Biso   1.000  C
  C240     1.0000 0.53540  0.02070  0.37290  Biso   1.000  C
  H135     1.0000 0.56500  0.99800  0.35100  Biso   1.000  H
  C241     1.0000 0.53480  0.07860  0.44860  Biso   1.000  C
  C242     1.0000 0.56930  0.10880  0.48750  Biso   1.000  C
  C243     1.0000 0.53500  0.13750  0.52500  Biso   1.000  C
  H136     1.0000 0.56000  0.15500  0.55600  Biso   1.000  H
  C244     1.0000 0.64250  0.11030  0.48810  Biso   1.000  C
  N29      1.0000 0.88350  0.91430  0.54782  Biso   1.000  N
  N30      1.0000 0.67490  0.91820  0.55160  Biso   1.000  N
  O45      1.0000 0.67440  0.97080  0.62347  Biso   1.000  O
  O46      1.0000 0.67450  0.86760  0.47915  Biso   1.000  O
  C245     1.0000 0.96050  0.72890  0.89020  Biso   1.000  C
  H137     1.0000 0.94010  0.76220  0.91350  Biso   1.000  H
  C246     1.0000 0.95830  0.75260  0.84510  Biso   1.000  C
  H138     1.0000 0.93090  0.79900  0.83620  Biso   1.000  H
  C247     1.0000 0.85060  0.98500  0.55610  Biso   1.000  C
  H139     1.0000 0.87480  0.03380  0.56120  Biso   1.000  H
  C248     1.0000 0.78200  0.98920  0.55760  Biso   1.000  C
  H140     1.0000 0.76040  0.03980  0.56270  Biso   1.000  H
  C249     1.0000 0.74660  0.91620  0.55130  Biso   1.000  C
  C250     1.0000 0.77940  0.84300  0.54400  Biso   1.000  C
  H141     1.0000 0.75640  0.79300  0.54000  Biso   1.000  H
  C251     1.0000 0.84880  0.84500  0.54280  Biso   1.000  C
  H142     1.0000 0.87160  0.79500  0.53820  Biso   1.000  H
  C252     1.0000 0.64180  0.94880  0.59080  Biso   1.000  C
  C253     1.0000 0.56950  0.95020  0.59030  Biso   1.000  C
  C254     1.0000 0.53540  0.97930  0.62710  Biso   1.000  C
  H143     1.0000 0.56500  0.00200  0.64900  Biso   1.000  H
  C255     1.0000 0.53480  0.92140  0.55140  Biso   1.000  C
  C256     1.0000 0.56930  0.89120  0.51250  Biso   1.000  C
  C257     1.0000 0.53500  0.86250  0.47500  Biso   1.000  C
  H144     1.0000 0.56000  0.84500  0.44400  Biso   1.000  H
  C258     1.0000 0.64250  0.88970  0.51190  Biso   1.000  C
  N31      1.0000 0.11650  0.58570  0.04782  Biso   1.000  N
  N32      1.0000 0.32510  0.58180  0.05160  Biso   1.000  N
  O47      1.0000 0.32560  0.52920  0.12347  Biso   1.000  O
  O48      1.0000 0.32550  0.63240  0.97915  Biso   1.000  O
  C259     1.0000 0.03950  0.77110  0.39020  Biso   1.000  C
  H145     1.0000 0.05990  0.73780  0.41350  Biso   1.000  H
  C260     1.0000 0.04170  0.74740  0.34510  Biso   1.000  C
  H146     1.0000 0.06910  0.70100  0.33620  Biso   1.000  H
  C261     1.0000 0.14940  0.51500  0.05610  Biso   1.000  C
  H147     1.0000 0.12520  0.46620  0.06120  Biso   1.000  H
  C262     1.0000 0.21800  0.51080  0.05760  Biso   1.000  C
  H148     1.0000 0.23960  0.46020  0.06270  Biso   1.000  H
  C263     1.0000 0.25340  0.58380  0.05130  Biso   1.000  C
  C264     1.0000 0.22060  0.65700  0.04400  Biso   1.000  C
  H149     1.0000 0.24360  0.70700  0.04000  Biso   1.000  H
  C265     1.0000 0.15120  0.65500  0.04280  Biso   1.000  C
  H150     1.0000 0.12840  0.70500  0.03820  Biso   1.000  H
  C266     1.0000 0.35820  0.55120  0.09080  Biso   1.000  C
  C267     1.0000 0.43050  0.54980  0.09030  Biso   1.000  C
  C268     1.0000 0.46460  0.52070  0.12710  Biso   1.000  C
  H151     1.0000 0.43500  0.49800  0.14900  Biso   1.000  H
  C269     1.0000 0.46520  0.57860  0.05140  Biso   1.000  C
  C270     1.0000 0.43070  0.60880  0.01250  Biso   1.000  C
  C271     1.0000 0.46500  0.63750  0.97500  Biso   1.000  C
  H152     1.0000 0.44000  0.65500  0.94400  Biso   1.000  H
  C272     1.0000 0.35750  0.61030  0.01190  Biso   1.000  C
  Cd5      1.0000 0.00000  0.59257  0.04360  Biso   1.000  Cd
  C273     1.0000 0.00000  0.67010  0.12610  Biso   1.000  C
  O49      1.0000 0.00000  0.81730  0.48120  Biso   1.000  O
  O50      1.0000 0.00000  0.94510  0.46207  Biso   1.000  O
  C274     1.0000 0.00000  0.70410  0.17370  Biso   1.000  C
  O51      1.0000 0.00000  0.71850  0.09295  Biso   1.000  O
  C275     1.0000 0.00000  0.78800  0.18240  Biso   1.000  C
  H153     1.0000 0.00000  0.82540  0.15810  Biso   1.000  H
  O52      1.0000 0.00000  0.59210  0.12180  Biso   1.000  O
  C276     1.0000 0.00000  0.81860  0.22620  Biso   1.000  C
  H154     1.0000 0.00000  0.87620  0.23100  Biso   1.000  H
  C277     1.0000 0.00000  0.67990  0.25440  Biso   1.000  C
  H155     1.0000 0.00000  0.64250  0.27880  Biso   1.000  H
  C278     1.0000 0.00000  0.64900  0.21040  Biso   1.000  C
  H156     1.0000 0.00000  0.59150  0.20530  Biso   1.000  H
  C279     1.0000 0.00000  0.76470  0.26330  Biso   1.000  C
  C280     1.0000 0.00000  0.79550  0.31050  Biso   1.000  C
  C281     1.0000 0.00000  0.87150  0.32270  Biso   1.000  C
  H157     1.0000 0.00000  0.91210  0.30000  Biso   1.000  H
  C282     1.0000 0.00000  0.89880  0.36840  Biso   1.000  C
  H158     1.0000 0.00000  0.95600  0.37430  Biso   1.000  H
  C283     1.0000 0.00000  0.84740  0.40230  Biso   1.000  C
  C284     1.0000 0.00000  0.87130  0.45160  Biso   1.000  C
  Cd6      1.0000 0.00000  0.90743  0.54360  Biso   1.000  Cd
  C285     1.0000 0.00000  0.82990  0.62610  Biso   1.000  C
  O53      1.0000 0.00000  0.68270  0.98120  Biso   1.000  O
  O54      1.0000 0.00000  0.55490  0.96207  Biso   1.000  O
  C286     1.0000 0.00000  0.79590  0.67370  Biso   1.000  C
  O55      1.0000 0.00000  0.78150  0.59295  Biso   1.000  O
  C287     1.0000 0.00000  0.71200  0.68240  Biso   1.000  C
  H159     1.0000 0.00000  0.67460  0.65810  Biso   1.000  H
  O56      1.0000 0.00000  0.90790  0.62180  Biso   1.000  O
  C288     1.0000 0.00000  0.68140  0.72620  Biso   1.000  C
  H160     1.0000 0.00000  0.62380  0.73100  Biso   1.000  H
  C289     1.0000 0.00000  0.82010  0.75440  Biso   1.000  C
  H161     1.0000 0.00000  0.85750  0.77880  Biso   1.000  H
  C290     1.0000 0.00000  0.85100  0.71040  Biso   1.000  C
  H162     1.0000 0.00000  0.90850  0.70530  Biso   1.000  H
  C291     1.0000 0.00000  0.73530  0.76330  Biso   1.000  C
  C292     1.0000 0.00000  0.70450  0.81050  Biso   1.000  C
  C293     1.0000 0.00000  0.62850  0.82270  Biso   1.000  C
  H163     1.0000 0.00000  0.58790  0.80000  Biso   1.000  H
  C294     1.0000 0.00000  0.60120  0.86840  Biso   1.000  C
  H164     1.0000 0.00000  0.54400  0.87430  Biso   1.000  H
  C295     1.0000 0.00000  0.65260  0.90230  Biso   1.000  C
  C296     1.0000 0.00000  0.62870  0.95160  Biso   1.000  C
  Cd7      1.0000 0.00000  0.09257  0.45640  Biso   1.000  Cd
  C297     1.0000 0.00000  0.17010  0.37390  Biso   1.000  C
  O57      1.0000 0.00000  0.31730  0.01880  Biso   1.000  O
  O58      1.0000 0.00000  0.44510  0.03793  Biso   1.000  O
  C298     1.0000 0.00000  0.20410  0.32630  Biso   1.000  C
  O59      1.0000 0.00000  0.21850  0.40705  Biso   1.000  O
  C299     1.0000 0.00000  0.28800  0.31760  Biso   1.000  C
  H165     1.0000 0.00000  0.32540  0.34190  Biso   1.000  H
  O60      1.0000 0.00000  0.09210  0.37820  Biso   1.000  O
  C300     1.0000 0.00000  0.31860  0.27380  Biso   1.000  C
  H166     1.0000 0.00000  0.37620  0.26900  Biso   1.000  H
  C301     1.0000 0.00000  0.17990  0.24560  Biso   1.000  C
  H167     1.0000 0.00000  0.14250  0.22120  Biso   1.000  H
  C302     1.0000 0.00000  0.14900  0.28960  Biso   1.000  C
  H168     1.0000 0.00000  0.09150  0.29470  Biso   1.000  H
  C303     1.0000 0.00000  0.26470  0.23670  Biso   1.000  C
  C304     1.0000 0.00000  0.29550  0.18950  Biso   1.000  C
  C305     1.0000 0.00000  0.37150  0.17730  Biso   1.000  C
  H169     1.0000 0.00000  0.41210  0.20000  Biso   1.000  H
  C306     1.0000 0.00000  0.39880  0.13160  Biso   1.000  C
  H170     1.0000 0.00000  0.45600  0.12570  Biso   1.000  H
  C307     1.0000 0.00000  0.34740  0.09770  Biso   1.000  C
  C308     1.0000 0.00000  0.37130  0.04840  Biso   1.000  C
  Cd8      1.0000 0.00000  0.40743  0.95640  Biso   1.000  Cd
  C309     1.0000 0.00000  0.32990  0.87390  Biso   1.000  C
  O61      1.0000 0.00000  0.18270  0.51880  Biso   1.000  O
  O62      1.0000 0.00000  0.05490  0.53793  Biso   1.000  O
  C310     1.0000 0.00000  0.29590  0.82630  Biso   1.000  C
  O63      1.0000 0.00000  0.28150  0.90705  Biso   1.000  O
  C311     1.0000 0.00000  0.21200  0.81760  Biso   1.000  C
  H171     1.0000 0.00000  0.17460  0.84190  Biso   1.000  H
  O64      1.0000 0.00000  0.40790  0.87820  Biso   1.000  O
  C312     1.0000 0.00000  0.18140  0.77380  Biso   1.000  C
  H172     1.0000 0.00000  0.12380  0.76900  Biso   1.000  H
  C313     1.0000 0.00000  0.32010  0.74560  Biso   1.000  C
  H173     1.0000 0.00000  0.35750  0.72120  Biso   1.000  H
  C314     1.0000 0.00000  0.35100  0.78960  Biso   1.000  C
  H174     1.0000 0.00000  0.40850  0.79470  Biso   1.000  H
  C315     1.0000 0.00000  0.23530  0.73670  Biso   1.000  C
  C316     1.0000 0.00000  0.20450  0.68950  Biso   1.000  C
  C317     1.0000 0.00000  0.12850  0.67730  Biso   1.000  C
  H175     1.0000 0.00000  0.08790  0.70000  Biso   1.000  H
  C318     1.0000 0.00000  0.10120  0.63160  Biso   1.000  C
  H176     1.0000 0.00000  0.04400  0.62570  Biso   1.000  H
  C319     1.0000 0.00000  0.15260  0.59770  Biso   1.000  C
  C320     1.0000 0.00000  0.12870  0.54840  Biso   1.000  C
