data_image0
_cell_length_a       13.014
_cell_length_b       23.695
_cell_length_c       16.214
_cell_angle_alpha    90
_cell_angle_beta     107.04
_cell_angle_gamma    90

_symmetry_space_group_name_H-M    "P 1"
_symmetry_int_tables_number       1

loop_
  _symmetry_equiv_pos_as_xyz
  'x, y, z'

loop_
  _atom_site_label
  _atom_site_occupancy
  _atom_site_fract_x
  _atom_site_fract_y
  _atom_site_fract_z
  _atom_site_thermal_displace_type
  _atom_site_B_iso_or_equiv
  _atom_site_type_symbol
  Sm1      1.0000 0.75230  0.32792  0.67742  Biso   1.000  Sm
  Sm2      1.0000 0.31176  0.32612  0.82740  Biso   1.000  Sm
  Sm3      1.0000 0.52649  0.57874  0.75290  Biso   1.000  Sm
  N1       1.0000 0.64370  0.31670  0.78030  Biso   1.000  N
  N2       1.0000 0.50250  0.31130  0.83240  Biso   1.000  N
  N3       1.0000 0.83490  0.29030  0.56690  Biso   1.000  N
  N4       1.0000 0.84930  0.24270  0.44960  Biso   1.000  N
  N5       1.0000 0.94230  0.34930  0.76020  Biso   1.000  N
  N6       1.0000 0.12140  0.34140  0.81760  Biso   1.000  N
  N7       1.0000 0.74170  0.42440  0.73660  Biso   1.000  N
  N8       1.0000 0.66450  0.50550  0.75850  Biso   1.000  N
  N9       1.0000 0.67310  0.39060  0.54860  Biso   1.000  N
  N10      1.0000 0.59810  0.41720  0.41120  Biso   1.000  N
  N11      1.0000 0.59200  0.26900  0.58630  Biso   1.000  N
  N12      1.0000 0.48470  0.19620  0.53800  Biso   1.000  N
  H1       1.0000 0.45500  0.16250  0.53360  Biso   1.000  H
  N13      1.0000 0.31750  0.42590  0.78290  Biso   1.000  N
  N14      1.0000 0.39210  0.50840  0.76260  Biso   1.000  N
  N15      1.0000 0.24420  0.23390  0.75520  Biso   1.000  N
  N16      1.0000 0.14260  0.15500  0.73110  Biso   1.000  N
  N17      1.0000 0.28780  0.33670  0.66090  Biso   1.000  N
  N18      1.0000 0.20420  0.34930  0.52360  Biso   1.000  N
  H2       1.0000 0.15490  0.34540  0.47350  Biso   1.000  H
  N19      1.0000 0.40020  0.65100  0.76930  Biso   1.000  N
  N20      1.0000 0.30820  0.73250  0.74400  Biso   1.000  N
  N21      1.0000 0.44440  0.58050  0.59790  Biso   1.000  N
  N22      1.0000 0.36190  0.61380  0.46300  Biso   1.000  N
  C1       1.0000 0.53860  0.30540  0.76540  Biso   1.000  C
  H3       1.0000 0.49380  0.29400  0.71050  Biso   1.000  H
  C2       1.0000 0.67720  0.32870  0.86580  Biso   1.000  C
  H4       1.0000 0.74880  0.33770  0.89790  Biso   1.000  H
  C3       1.0000 0.59230  0.32580  0.89840  Biso   1.000  C
  H5       1.0000 0.59460  0.33260  0.95660  Biso   1.000  H
  C4       1.0000 0.80220  0.24700  0.51340  Biso   1.000  C
  H6       1.0000 0.74950  0.22090  0.51960  Biso   1.000  H
  C5       1.0000 0.90950  0.31730  0.53370  Biso   1.000  C
  H7       1.0000 0.94820  0.35060  0.55620  Biso   1.000  H
  C6       1.0000 0.91740  0.28810  0.46390  Biso   1.000  C
  H8       1.0000 0.96320  0.29770  0.43000  Biso   1.000  H
  C7       1.0000 0.03480  0.32800  0.75220  Biso   1.000  C
  H9       1.0000 0.03830  0.30550  0.70450  Biso   1.000  H
  C8       1.0000 0.97250  0.37710  0.83880  Biso   1.000  C
  H10      1.0000 0.92620  0.39670  0.86460  Biso   1.000  H
  C9       1.0000 0.07980  0.37120  0.87200  Biso   1.000  C
  H11      1.0000 0.12080  0.38590  0.92610  Biso   1.000  H
  C10      1.0000 0.65990  0.44860  0.75750  Biso   1.000  C
  H12      1.0000 0.60410  0.42780  0.77040  Biso   1.000  H
  C11      1.0000 0.80240  0.46950  0.72260  Biso   1.000  C
  H13      1.0000 0.86640  0.46690  0.70600  Biso   1.000  H
  C12      1.0000 0.75500  0.51800  0.73650  Biso   1.000  C
  H14      1.0000 0.78090  0.55500  0.73160  Biso   1.000  H
  C13      1.0000 0.66960  0.38480  0.46530  Biso   1.000  C
  H15      1.0000 0.71490  0.35950  0.44680  Biso   1.000  H
  C14      1.0000 0.59480  0.43070  0.54590  Biso   1.000  C
  H16      1.0000 0.57540  0.44500  0.59400  Biso   1.000  H
  C15      1.0000 0.55050  0.44610  0.46220  Biso   1.000  C
  H17      1.0000 0.49470  0.47300  0.44250  Biso   1.000  H
  C16      1.0000 0.57110  0.21500  0.59980  Biso   1.000  C
  H18      1.0000 0.61210  0.19290  0.64690  Biso   1.000  H
  C17      1.0000 0.51530  0.28420  0.51350  Biso   1.000  C
  H19      1.0000 0.50850  0.32080  0.48850  Biso   1.000  H
  C18      1.0000 0.45260  0.24230  0.48240  Biso   1.000  C
  H20      1.0000 0.39460  0.24260  0.43060  Biso   1.000  H
  C19      1.0000 0.40430  0.45740  0.79790  Biso   1.000  C
  H21      1.0000 0.47240  0.44430  0.83230  Biso   1.000  H
  C20      1.0000 0.23800  0.45990  0.73180  Biso   1.000  C
  H22      1.0000 0.16440  0.44990  0.70870  Biso   1.000  H
  C21      1.0000 0.28250  0.50990  0.72010  Biso   1.000  C
  H23      1.0000 0.24480  0.54090  0.68800  Biso   1.000  H
  C22      1.0000 0.17370  0.20110  0.77920  Biso   1.000  C
  H24      1.0000 0.14810  0.21000  0.82680  Biso   1.000  H
  C23      1.0000 0.25860  0.20640  0.68500  Biso   1.000  C
  H25      1.0000 0.30380  0.21870  0.65200  Biso   1.000  H
  C24      1.0000 0.19840  0.15890  0.67020  Biso   1.000  C
  H26      1.0000 0.19470  0.13250  0.62530  Biso   1.000  H
  C25      1.0000 0.20220  0.32620  0.59850  Biso   1.000  C
  H27      1.0000 0.14390  0.30440  0.60510  Biso   1.000  H
  C26      1.0000 0.34800  0.37220  0.62370  Biso   1.000  C
  H28      1.0000 0.41530  0.38850  0.65360  Biso   1.000  H
  C27      1.0000 0.29690  0.37990  0.53950  Biso   1.000  C
  H29      1.0000 0.32020  0.40200  0.49940  Biso   1.000  H
  C28      1.0000 0.38490  0.70120  0.72950  Biso   1.000  C
  H30      1.0000 0.42640  0.71340  0.69350  Biso   1.000  H
  C29      1.0000 0.32410  0.65040  0.81300  Biso   1.000  C
  H31      1.0000 0.31240  0.62030  0.84790  Biso   1.000  H
  C30      1.0000 0.26910  0.69930  0.79850  Biso   1.000  C
  H32      1.0000 0.21260  0.70950  0.82190  Biso   1.000  H
  C31      1.0000 0.42960  0.62420  0.54020  Biso   1.000  C
  H33      1.0000 0.46530  0.65950  0.55450  Biso   1.000  H
  C32      1.0000 0.38120  0.53910  0.55160  Biso   1.000  C
  H34      1.0000 0.38200  0.49800  0.57600  Biso   1.000  H
  C33      1.0000 0.33030  0.55860  0.47170  Biso   1.000  C
  H35      1.0000 0.28040  0.53760  0.42790  Biso   1.000  H
  Sm4      1.0000 0.25230  0.82792  0.67742  Biso   1.000  Sm
  Sm5      1.0000 0.81176  0.82612  0.82740  Biso   1.000  Sm
  Sm6      1.0000 0.02649  0.07874  0.75290  Biso   1.000  Sm
  N23      1.0000 0.14370  0.81670  0.78030  Biso   1.000  N
  N24      1.0000 0.00250  0.81130  0.83240  Biso   1.000  N
  N25      1.0000 0.33490  0.79030  0.56690  Biso   1.000  N
  N26      1.0000 0.34930  0.74270  0.44960  Biso   1.000  N
  N27      1.0000 0.44230  0.84930  0.76020  Biso   1.000  N
  N28      1.0000 0.62140  0.84140  0.81760  Biso   1.000  N
  N29      1.0000 0.24170  0.92440  0.73660  Biso   1.000  N
  N30      1.0000 0.16450  0.00550  0.75850  Biso   1.000  N
  N31      1.0000 0.17310  0.89060  0.54860  Biso   1.000  N
  N32      1.0000 0.09810  0.91720  0.41120  Biso   1.000  N
  N33      1.0000 0.09200  0.76900  0.58630  Biso   1.000  N
  N34      1.0000 0.98470  0.69620  0.53800  Biso   1.000  N
  H36      1.0000 0.95500  0.66250  0.53360  Biso   1.000  H
  N35      1.0000 0.81750  0.92590  0.78290  Biso   1.000  N
  N36      1.0000 0.89210  0.00840  0.76260  Biso   1.000  N
  N37      1.0000 0.74420  0.73390  0.75520  Biso   1.000  N
  N38      1.0000 0.64260  0.65500  0.73110  Biso   1.000  N
  N39      1.0000 0.78780  0.83670  0.66090  Biso   1.000  N
  N40      1.0000 0.70420  0.84930  0.52360  Biso   1.000  N
  H37      1.0000 0.65490  0.84540  0.47350  Biso   1.000  H
  N41      1.0000 0.90020  0.15100  0.76930  Biso   1.000  N
  N42      1.0000 0.80820  0.23250  0.74400  Biso   1.000  N
  N43      1.0000 0.94440  0.08050  0.59790  Biso   1.000  N
  N44      1.0000 0.86190  0.11380  0.46300  Biso   1.000  N
  C34      1.0000 0.03860  0.80540  0.76540  Biso   1.000  C
  H38      1.0000 0.99380  0.79400  0.71050  Biso   1.000  H
  C35      1.0000 0.17720  0.82870  0.86580  Biso   1.000  C
  H39      1.0000 0.24880  0.83770  0.89790  Biso   1.000  H
  C36      1.0000 0.09230  0.82580  0.89840  Biso   1.000  C
  H40      1.0000 0.09460  0.83260  0.95660  Biso   1.000  H
  C37      1.0000 0.30220  0.74700  0.51340  Biso   1.000  C
  H41      1.0000 0.24950  0.72090  0.51960  Biso   1.000  H
  C38      1.0000 0.40950  0.81730  0.53370  Biso   1.000  C
  H42      1.0000 0.44820  0.85060  0.55620  Biso   1.000  H
  C39      1.0000 0.41740  0.78810  0.46390  Biso   1.000  C
  H43      1.0000 0.46320  0.79770  0.43000  Biso   1.000  H
  C40      1.0000 0.53480  0.82800  0.75220  Biso   1.000  C
  H44      1.0000 0.53830  0.80550  0.70450  Biso   1.000  H
  C41      1.0000 0.47250  0.87710  0.83880  Biso   1.000  C
  H45      1.0000 0.42620  0.89670  0.86460  Biso   1.000  H
  C42      1.0000 0.57980  0.87120  0.87200  Biso   1.000  C
  H46      1.0000 0.62080  0.88590  0.92610  Biso   1.000  H
  C43      1.0000 0.15990  0.94860  0.75750  Biso   1.000  C
  H47      1.0000 0.10410  0.92780  0.77040  Biso   1.000  H
  C44      1.0000 0.30240  0.96950  0.72260  Biso   1.000  C
  H48      1.0000 0.36640  0.96690  0.70600  Biso   1.000  H
  C45      1.0000 0.25500  0.01800  0.73650  Biso   1.000  C
  H49      1.0000 0.28090  0.05500  0.73160  Biso   1.000  H
  C46      1.0000 0.16960  0.88480  0.46530  Biso   1.000  C
  H50      1.0000 0.21490  0.85950  0.44680  Biso   1.000  H
  C47      1.0000 0.09480  0.93070  0.54590  Biso   1.000  C
  H51      1.0000 0.07540  0.94500  0.59400  Biso   1.000  H
  C48      1.0000 0.05050  0.94610  0.46220  Biso   1.000  C
  H52      1.0000 0.99470  0.97300  0.44250  Biso   1.000  H
  C49      1.0000 0.07110  0.71500  0.59980  Biso   1.000  C
  H53      1.0000 0.11210  0.69290  0.64690  Biso   1.000  H
  C50      1.0000 0.01530  0.78420  0.51350  Biso   1.000  C
  H54      1.0000 0.00850  0.82080  0.48850  Biso   1.000  H
  C51      1.0000 0.95260  0.74230  0.48240  Biso   1.000  C
  H55      1.0000 0.89460  0.74260  0.43060  Biso   1.000  H
  C52      1.0000 0.90430  0.95740  0.79790  Biso   1.000  C
  H56      1.0000 0.97240  0.94430  0.83230  Biso   1.000  H
  C53      1.0000 0.73800  0.95990  0.73180  Biso   1.000  C
  H57      1.0000 0.66440  0.94990  0.70870  Biso   1.000  H
  C54      1.0000 0.78250  0.00990  0.72010  Biso   1.000  C
  H58      1.0000 0.74480  0.04090  0.68800  Biso   1.000  H
  C55      1.0000 0.67370  0.70110  0.77920  Biso   1.000  C
  H59      1.0000 0.64810  0.71000  0.82680  Biso   1.000  H
  C56      1.0000 0.75860  0.70640  0.68500  Biso   1.000  C
  H60      1.0000 0.80380  0.71870  0.65200  Biso   1.000  H
  C57      1.0000 0.69840  0.65890  0.67020  Biso   1.000  C
  H61      1.0000 0.69470  0.63250  0.62530  Biso   1.000  H
  C58      1.0000 0.70220  0.82620  0.59850  Biso   1.000  C
  H62      1.0000 0.64390  0.80440  0.60510  Biso   1.000  H
  C59      1.0000 0.84800  0.87220  0.62370  Biso   1.000  C
  H63      1.0000 0.91530  0.88850  0.65360  Biso   1.000  H
  C60      1.0000 0.79690  0.87990  0.53950  Biso   1.000  C
  H64      1.0000 0.82020  0.90200  0.49940  Biso   1.000  H
  C61      1.0000 0.88490  0.20120  0.72950  Biso   1.000  C
  H65      1.0000 0.92640  0.21340  0.69350  Biso   1.000  H
  C62      1.0000 0.82410  0.15040  0.81300  Biso   1.000  C
  H66      1.0000 0.81240  0.12030  0.84790  Biso   1.000  H
  C63      1.0000 0.76910  0.19930  0.79850  Biso   1.000  C
  H67      1.0000 0.71260  0.20950  0.82190  Biso   1.000  H
  C64      1.0000 0.92960  0.12420  0.54020  Biso   1.000  C
  H68      1.0000 0.96530  0.15950  0.55450  Biso   1.000  H
  C65      1.0000 0.88120  0.03910  0.55160  Biso   1.000  C
  H69      1.0000 0.88200  0.99800  0.57600  Biso   1.000  H
  C66      1.0000 0.83030  0.05860  0.47170  Biso   1.000  C
  H70      1.0000 0.78040  0.03760  0.42790  Biso   1.000  H
  Sm7      1.0000 0.75230  0.67208  0.17742  Biso   1.000  Sm
  Sm8      1.0000 0.31176  0.67388  0.32740  Biso   1.000  Sm
  Sm9      1.0000 0.52649  0.42126  0.25290  Biso   1.000  Sm
  N45      1.0000 0.64370  0.68330  0.28030  Biso   1.000  N
  N46      1.0000 0.50250  0.68870  0.33240  Biso   1.000  N
  N47      1.0000 0.83490  0.70970  0.06690  Biso   1.000  N
  N48      1.0000 0.84930  0.75730  0.94960  Biso   1.000  N
  N49      1.0000 0.94230  0.65070  0.26020  Biso   1.000  N
  N50      1.0000 0.12140  0.65860  0.31760  Biso   1.000  N
  N51      1.0000 0.74170  0.57560  0.23660  Biso   1.000  N
  N52      1.0000 0.66450  0.49450  0.25850  Biso   1.000  N
  N53      1.0000 0.67310  0.60940  0.04860  Biso   1.000  N
  N54      1.0000 0.59810  0.58280  0.91120  Biso   1.000  N
  N55      1.0000 0.59200  0.73100  0.08630  Biso   1.000  N
  N56      1.0000 0.48470  0.80380  0.03800  Biso   1.000  N
  H71      1.0000 0.45500  0.83750  0.03360  Biso   1.000  H
  N57      1.0000 0.31750  0.57410  0.28290  Biso   1.000  N
  N58      1.0000 0.39210  0.49160  0.26260  Biso   1.000  N
  N59      1.0000 0.24420  0.76610  0.25520  Biso   1.000  N
  N60      1.0000 0.14260  0.84500  0.23110  Biso   1.000  N
  N61      1.0000 0.28780  0.66330  0.16090  Biso   1.000  N
  N62      1.0000 0.20420  0.65070  0.02360  Biso   1.000  N
  H72      1.0000 0.15490  0.65460  0.97350  Biso   1.000  H
  N63      1.0000 0.40020  0.34900  0.26930  Biso   1.000  N
  N64      1.0000 0.30820  0.26750  0.24400  Biso   1.000  N
  N65      1.0000 0.44440  0.41950  0.09790  Biso   1.000  N
  N66      1.0000 0.36190  0.38620  0.96300  Biso   1.000  N
  C67      1.0000 0.53860  0.69460  0.26540  Biso   1.000  C
  H73      1.0000 0.49380  0.70600  0.21050  Biso   1.000  H
  C68      1.0000 0.67720  0.67130  0.36580  Biso   1.000  C
  H74      1.0000 0.74880  0.66230  0.39790  Biso   1.000  H
  C69      1.0000 0.59230  0.67420  0.39840  Biso   1.000  C
  H75      1.0000 0.59460  0.66740  0.45660  Biso   1.000  H
  C70      1.0000 0.80220  0.75300  0.01340  Biso   1.000  C
  H76      1.0000 0.74950  0.77910  0.01960  Biso   1.000  H
  C71      1.0000 0.90950  0.68270  0.03370  Biso   1.000  C
  H77      1.0000 0.94820  0.64940  0.05620  Biso   1.000  H
  C72      1.0000 0.91740  0.71190  0.96390  Biso   1.000  C
  H78      1.0000 0.96320  0.70230  0.93000  Biso   1.000  H
  C73      1.0000 0.03480  0.67200  0.25220  Biso   1.000  C
  H79      1.0000 0.03830  0.69450  0.20450  Biso   1.000  H
  C74      1.0000 0.97250  0.62290  0.33880  Biso   1.000  C
  H80      1.0000 0.92620  0.60330  0.36460  Biso   1.000  H
  C75      1.0000 0.07980  0.62880  0.37200  Biso   1.000  C
  H81      1.0000 0.12080  0.61410  0.42610  Biso   1.000  H
  C76      1.0000 0.65990  0.55140  0.25750  Biso   1.000  C
  H82      1.0000 0.60410  0.57220  0.27040  Biso   1.000  H
  C77      1.0000 0.80240  0.53050  0.22260  Biso   1.000  C
  H83      1.0000 0.86640  0.53310  0.20600  Biso   1.000  H
  C78      1.0000 0.75500  0.48200  0.23650  Biso   1.000  C
  H84      1.0000 0.78090  0.44500  0.23160  Biso   1.000  H
  C79      1.0000 0.66960  0.61520  0.96530  Biso   1.000  C
  H85      1.0000 0.71490  0.64050  0.94680  Biso   1.000  H
  C80      1.0000 0.59480  0.56930  0.04590  Biso   1.000  C
  H86      1.0000 0.57540  0.55500  0.09400  Biso   1.000  H
  C81      1.0000 0.55050  0.55390  0.96220  Biso   1.000  C
  H87      1.0000 0.49470  0.52700  0.94250  Biso   1.000  H
  C82      1.0000 0.57110  0.78500  0.09980  Biso   1.000  C
  H88      1.0000 0.61210  0.80710  0.14690  Biso   1.000  H
  C83      1.0000 0.51530  0.71580  0.01350  Biso   1.000  C
  H89      1.0000 0.50850  0.67920  0.98850  Biso   1.000  H
  C84      1.0000 0.45260  0.75770  0.98240  Biso   1.000  C
  H90      1.0000 0.39460  0.75740  0.93060  Biso   1.000  H
  C85      1.0000 0.40430  0.54260  0.29790  Biso   1.000  C
  H91      1.0000 0.47240  0.55570  0.33230  Biso   1.000  H
  C86      1.0000 0.23800  0.54010  0.23180  Biso   1.000  C
  H92      1.0000 0.16440  0.55010  0.20870  Biso   1.000  H
  C87      1.0000 0.28250  0.49010  0.22010  Biso   1.000  C
  H93      1.0000 0.24480  0.45910  0.18800  Biso   1.000  H
  C88      1.0000 0.17370  0.79890  0.27920  Biso   1.000  C
  H94      1.0000 0.14810  0.79000  0.32680  Biso   1.000  H
  C89      1.0000 0.25860  0.79360  0.18500  Biso   1.000  C
  H95      1.0000 0.30380  0.78130  0.15200  Biso   1.000  H
  C90      1.0000 0.19840  0.84110  0.17020  Biso   1.000  C
  H96      1.0000 0.19470  0.86750  0.12530  Biso   1.000  H
  C91      1.0000 0.20220  0.67380  0.09850  Biso   1.000  C
  H97      1.0000 0.14390  0.69560  0.10510  Biso   1.000  H
  C92      1.0000 0.34800  0.62780  0.12370  Biso   1.000  C
  H98      1.0000 0.41530  0.61150  0.15360  Biso   1.000  H
  C93      1.0000 0.29690  0.62010  0.03950  Biso   1.000  C
  H99      1.0000 0.32020  0.59800  0.99940  Biso   1.000  H
  C94      1.0000 0.38490  0.29880  0.22950  Biso   1.000  C
  H100     1.0000 0.42640  0.28660  0.19350  Biso   1.000  H
  C95      1.0000 0.32410  0.34960  0.31300  Biso   1.000  C
  H101     1.0000 0.31240  0.37970  0.34790  Biso   1.000  H
  C96      1.0000 0.26910  0.30070  0.29850  Biso   1.000  C
  H102     1.0000 0.21260  0.29050  0.32190  Biso   1.000  H
  C97      1.0000 0.42960  0.37580  0.04020  Biso   1.000  C
  H103     1.0000 0.46530  0.34050  0.05450  Biso   1.000  H
  C98      1.0000 0.38120  0.46090  0.05160  Biso   1.000  C
  H104     1.0000 0.38200  0.50200  0.07600  Biso   1.000  H
  C99      1.0000 0.33030  0.44140  0.97170  Biso   1.000  C
  H105     1.0000 0.28040  0.46240  0.92790  Biso   1.000  H
  Sm10     1.0000 0.25230  0.17208  0.17742  Biso   1.000  Sm
  Sm11     1.0000 0.81176  0.17388  0.32740  Biso   1.000  Sm
  Sm12     1.0000 0.02649  0.92126  0.25290  Biso   1.000  Sm
  N67      1.0000 0.14370  0.18330  0.28030  Biso   1.000  N
  N68      1.0000 0.00250  0.18870  0.33240  Biso   1.000  N
  N69      1.0000 0.33490  0.20970  0.06690  Biso   1.000  N
  N70      1.0000 0.34930  0.25730  0.94960  Biso   1.000  N
  N71      1.0000 0.44230  0.15070  0.26020  Biso   1.000  N
  N72      1.0000 0.62140  0.15860  0.31760  Biso   1.000  N
  N73      1.0000 0.24170  0.07560  0.23660  Biso   1.000  N
  N74      1.0000 0.16450  0.99450  0.25850  Biso   1.000  N
  N75      1.0000 0.17310  0.10940  0.04860  Biso   1.000  N
  N76      1.0000 0.09810  0.08280  0.91120  Biso   1.000  N
  N77      1.0000 0.09200  0.23100  0.08630  Biso   1.000  N
  N78      1.0000 0.98470  0.30380  0.03800  Biso   1.000  N
  H106     1.0000 0.95500  0.33750  0.03360  Biso   1.000  H
  N79      1.0000 0.81750  0.07410  0.28290  Biso   1.000  N
  N80      1.0000 0.89210  0.99160  0.26260  Biso   1.000  N
  N81      1.0000 0.74420  0.26610  0.25520  Biso   1.000  N
  N82      1.0000 0.64260  0.34500  0.23110  Biso   1.000  N
  N83      1.0000 0.78780  0.16330  0.16090  Biso   1.000  N
  N84      1.0000 0.70420  0.15070  0.02360  Biso   1.000  N
  H107     1.0000 0.65490  0.15460  0.97350  Biso   1.000  H
  N85      1.0000 0.90020  0.84900  0.26930  Biso   1.000  N
  N86      1.0000 0.80820  0.76750  0.24400  Biso   1.000  N
  N87      1.0000 0.94440  0.91950  0.09790  Biso   1.000  N
  N88      1.0000 0.86190  0.88620  0.96300  Biso   1.000  N
  C100     1.0000 0.03860  0.19460  0.26540  Biso   1.000  C
  H108     1.0000 0.99380  0.20600  0.21050  Biso   1.000  H
  C101     1.0000 0.17720  0.17130  0.36580  Biso   1.000  C
  H109     1.0000 0.24880  0.16230  0.39790  Biso   1.000  H
  C102     1.0000 0.09230  0.17420  0.39840  Biso   1.000  C
  H110     1.0000 0.09460  0.16740  0.45660  Biso   1.000  H
  C103     1.0000 0.30220  0.25300  0.01340  Biso   1.000  C
  H111     1.0000 0.24950  0.27910  0.01960  Biso   1.000  H
  C104     1.0000 0.40950  0.18270  0.03370  Biso   1.000  C
  H112     1.0000 0.44820  0.14940  0.05620  Biso   1.000  H
  C105     1.0000 0.41740  0.21190  0.96390  Biso   1.000  C
  H113     1.0000 0.46320  0.20230  0.93000  Biso   1.000  H
  C106     1.0000 0.53480  0.17200  0.25220  Biso   1.000  C
  H114     1.0000 0.53830  0.19450  0.20450  Biso   1.000  H
  C107     1.0000 0.47250  0.12290  0.33880  Biso   1.000  C
  H115     1.0000 0.42620  0.10330  0.36460  Biso   1.000  H
  C108     1.0000 0.57980  0.12880  0.37200  Biso   1.000  C
  H116     1.0000 0.62080  0.11410  0.42610  Biso   1.000  H
  C109     1.0000 0.15990  0.05140  0.25750  Biso   1.000  C
  H117     1.0000 0.10410  0.07220  0.27040  Biso   1.000  H
  C110     1.0000 0.30240  0.03050  0.22260  Biso   1.000  C
  H118     1.0000 0.36640  0.03310  0.20600  Biso   1.000  H
  C111     1.0000 0.25500  0.98200  0.23650  Biso   1.000  C
  H119     1.0000 0.28090  0.94500  0.23160  Biso   1.000  H
  C112     1.0000 0.16960  0.11520  0.96530  Biso   1.000  C
  H120     1.0000 0.21490  0.14050  0.94680  Biso   1.000  H
  C113     1.0000 0.09480  0.06930  0.04590  Biso   1.000  C
  H121     1.0000 0.07540  0.05500  0.09400  Biso   1.000  H
  C114     1.0000 0.05050  0.05390  0.96220  Biso   1.000  C
  H122     1.0000 0.99470  0.02700  0.94250  Biso   1.000  H
  C115     1.0000 0.07110  0.28500  0.09980  Biso   1.000  C
  H123     1.0000 0.11210  0.30710  0.14690  Biso   1.000  H
  C116     1.0000 0.01530  0.21580  0.01350  Biso   1.000  C
  H124     1.0000 0.00850  0.17920  0.98850  Biso   1.000  H
  C117     1.0000 0.95260  0.25770  0.98240  Biso   1.000  C
  H125     1.0000 0.89460  0.25740  0.93060  Biso   1.000  H
  C118     1.0000 0.90430  0.04260  0.29790  Biso   1.000  C
  H126     1.0000 0.97240  0.05570  0.33230  Biso   1.000  H
  C119     1.0000 0.73800  0.04010  0.23180  Biso   1.000  C
  H127     1.0000 0.66440  0.05010  0.20870  Biso   1.000  H
  C120     1.0000 0.78250  0.99010  0.22010  Biso   1.000  C
  H128     1.0000 0.74480  0.95910  0.18800  Biso   1.000  H
  C121     1.0000 0.67370  0.29890  0.27920  Biso   1.000  C
  H129     1.0000 0.64810  0.29000  0.32680  Biso   1.000  H
  C122     1.0000 0.75860  0.29360  0.18500  Biso   1.000  C
  H130     1.0000 0.80380  0.28130  0.15200  Biso   1.000  H
  C123     1.0000 0.69840  0.34110  0.17020  Biso   1.000  C
  H131     1.0000 0.69470  0.36750  0.12530  Biso   1.000  H
  C124     1.0000 0.70220  0.17380  0.09850  Biso   1.000  C
  H132     1.0000 0.64390  0.19560  0.10510  Biso   1.000  H
  C125     1.0000 0.84800  0.12780  0.12370  Biso   1.000  C
  H133     1.0000 0.91530  0.11150  0.15360  Biso   1.000  H
  C126     1.0000 0.79690  0.12010  0.03950  Biso   1.000  C
  H134     1.0000 0.82020  0.09800  0.99940  Biso   1.000  H
  C127     1.0000 0.88490  0.79880  0.22950  Biso   1.000  C
  H135     1.0000 0.92640  0.78660  0.19350  Biso   1.000  H
  C128     1.0000 0.82410  0.84960  0.31300  Biso   1.000  C
  H136     1.0000 0.81240  0.87970  0.34790  Biso   1.000  H
  C129     1.0000 0.76910  0.80070  0.29850  Biso   1.000  C
  H137     1.0000 0.71260  0.79050  0.32190  Biso   1.000  H
  C130     1.0000 0.92960  0.87580  0.04020  Biso   1.000  C
  H138     1.0000 0.96530  0.84050  0.05450  Biso   1.000  H
  C131     1.0000 0.88120  0.96090  0.05160  Biso   1.000  C
  H139     1.0000 0.88200  0.00200  0.07600  Biso   1.000  H
  C132     1.0000 0.83030  0.94140  0.97170  Biso   1.000  C
  H140     1.0000 0.78040  0.96240  0.92790  Biso   1.000  H
