data_image0
_cell_length_a       13.542
_cell_length_b       13.542
_cell_length_c       15.192
_cell_angle_alpha    90
_cell_angle_beta     90
_cell_angle_gamma    120

_symmetry_space_group_name_H-M    "P 1"
_symmetry_int_tables_number       1

loop_
  _symmetry_equiv_pos_as_xyz
  'x, y, z'

loop_
  _atom_site_label
  _atom_site_occupancy
  _atom_site_fract_x
  _atom_site_fract_y
  _atom_site_fract_z
  _atom_site_thermal_displace_type
  _atom_site_B_iso_or_equiv
  _atom_site_type_symbol
  Si1      1.0000 0.23319  0.99990  0.10023  Biso   1.000  Si
  Al1      1.0000 0.23342  0.00057  0.89956  Biso   1.000  Al
  O1       1.0000 0.27390  0.00030  0.99920  Biso   1.000  O
  O2       1.0000 0.33440  0.01510  0.16690  Biso   1.000  O
  O3       1.0000 0.20530  0.10370  0.11330  Biso   1.000  O
  O4       1.0000 0.12000  0.87880  0.12370  Biso   1.000  O
  P1       1.0000 0.33343  0.89996  0.76690  Biso   1.000  P
  Si2      1.0000 0.89986  0.33323  0.43356  Biso   1.000  Si
  Al2      1.0000 0.90009  0.33390  0.23289  Biso   1.000  Al
  O5       1.0000 0.94057  0.33363  0.33253  Biso   1.000  O
  O6       1.0000 0.00107  0.34843  0.50023  Biso   1.000  O
  O7       1.0000 0.87197  0.43703  0.44663  Biso   1.000  O
  O8       1.0000 0.78667  0.21213  0.45703  Biso   1.000  O
  P2       1.0000 0.00010  0.23329  0.10023  Biso   1.000  P
  Si3      1.0000 0.56652  0.66657  0.76690  Biso   1.000  Si
  Al3      1.0000 0.56675  0.66724  0.56623  Biso   1.000  Al
  O9       1.0000 0.60723  0.66697  0.66587  Biso   1.000  O
  O10      1.0000 0.66773  0.68177  0.83357  Biso   1.000  O
  O11      1.0000 0.53863  0.77037  0.77997  Biso   1.000  O
  O12      1.0000 0.45333  0.54547  0.79037  Biso   1.000  O
  P3       1.0000 0.66677  0.56662  0.43356  Biso   1.000  P
  Al4      1.0000 0.99943  0.23285  0.89956  Biso   1.000  Al
  O13      1.0000 0.99970  0.27360  0.99920  Biso   1.000  O
  O14      1.0000 0.98490  0.31930  0.16690  Biso   1.000  O
  O15      1.0000 0.89630  0.10160  0.11330  Biso   1.000  O
  O16      1.0000 0.12120  0.24120  0.12370  Biso   1.000  O
  P4       1.0000 0.10004  0.43348  0.76690  Biso   1.000  P
  Al5      1.0000 0.66610  0.56618  0.23289  Biso   1.000  Al
  O17      1.0000 0.66637  0.60693  0.33253  Biso   1.000  O
  O18      1.0000 0.65157  0.65263  0.50023  Biso   1.000  O
  O19      1.0000 0.56297  0.43493  0.44663  Biso   1.000  O
  O20      1.0000 0.78787  0.57453  0.45703  Biso   1.000  O
  P5       1.0000 0.76671  0.76681  0.10023  Biso   1.000  P
  Al6      1.0000 0.33276  0.89952  0.56623  Biso   1.000  Al
  O21      1.0000 0.33303  0.94027  0.66587  Biso   1.000  O
  O22      1.0000 0.31823  0.98597  0.83357  Biso   1.000  O
  O23      1.0000 0.22963  0.76827  0.77997  Biso   1.000  O
  O24      1.0000 0.45453  0.90787  0.79037  Biso   1.000  O
  P6       1.0000 0.43338  0.10014  0.43356  Biso   1.000  P
  Al7      1.0000 0.76715  0.76658  0.89956  Biso   1.000  Al
  O25      1.0000 0.72640  0.72610  0.99920  Biso   1.000  O
  O26      1.0000 0.68070  0.66560  0.16690  Biso   1.000  O
  O27      1.0000 0.89840  0.79470  0.11330  Biso   1.000  O
  O28      1.0000 0.75880  0.88000  0.12370  Biso   1.000  O
  Al8      1.0000 0.43382  0.09991  0.23289  Biso   1.000  Al
  O29      1.0000 0.39307  0.05943  0.33253  Biso   1.000  O
  O30      1.0000 0.34737  0.99893  0.50023  Biso   1.000  O
  O31      1.0000 0.56507  0.12803  0.44663  Biso   1.000  O
  O32      1.0000 0.42547  0.21333  0.45703  Biso   1.000  O
  Al9      1.0000 0.10048  0.43325  0.56623  Biso   1.000  Al
  O33      1.0000 0.05973  0.39277  0.66587  Biso   1.000  O
  O34      1.0000 0.01403  0.33227  0.83357  Biso   1.000  O
  O35      1.0000 0.23173  0.46137  0.77997  Biso   1.000  O
  O36      1.0000 0.09213  0.54667  0.79037  Biso   1.000  O
  Si4      1.0000 0.76681  0.00010  0.89977  Biso   1.000  Si
  Al10     1.0000 0.76658  0.99943  0.10044  Biso   1.000  Al
  O37      1.0000 0.72610  0.99970  0.00080  Biso   1.000  O
  O38      1.0000 0.66560  0.98490  0.83310  Biso   1.000  O
  O39      1.0000 0.79470  0.89630  0.88670  Biso   1.000  O
  O40      1.0000 0.88000  0.12120  0.87630  Biso   1.000  O
  P7       1.0000 0.66657  0.10004  0.23310  Biso   1.000  P
  Si5      1.0000 0.43348  0.33343  0.23310  Biso   1.000  Si
  Al11     1.0000 0.43325  0.33276  0.43377  Biso   1.000  Al
  O41      1.0000 0.39277  0.33303  0.33413  Biso   1.000  O
  O42      1.0000 0.33227  0.31823  0.16643  Biso   1.000  O
  O43      1.0000 0.46137  0.22963  0.22003  Biso   1.000  O
  O44      1.0000 0.54667  0.45453  0.20963  Biso   1.000  O
  P8       1.0000 0.33323  0.43338  0.56644  Biso   1.000  P
  Si6      1.0000 0.10014  0.66677  0.56644  Biso   1.000  Si
  Al12     1.0000 0.09991  0.66610  0.76711  Biso   1.000  Al
  O45      1.0000 0.05943  0.66637  0.66747  Biso   1.000  O
  O46      1.0000 0.99893  0.65157  0.49977  Biso   1.000  O
  O47      1.0000 0.12803  0.56297  0.55337  Biso   1.000  O
  O48      1.0000 0.21333  0.78787  0.54297  Biso   1.000  O
  P9       1.0000 0.99990  0.76671  0.89977  Biso   1.000  P
  Al13     1.0000 0.00057  0.76715  0.10044  Biso   1.000  Al
  O49      1.0000 0.00030  0.72640  0.00080  Biso   1.000  O
  O50      1.0000 0.01510  0.68070  0.83310  Biso   1.000  O
  O51      1.0000 0.10370  0.89840  0.88670  Biso   1.000  O
  O52      1.0000 0.87880  0.75880  0.87630  Biso   1.000  O
  P10      1.0000 0.89996  0.56652  0.23310  Biso   1.000  P
  Al14     1.0000 0.66724  0.10048  0.43377  Biso   1.000  Al
  O53      1.0000 0.66697  0.05973  0.33413  Biso   1.000  O
  O54      1.0000 0.68177  0.01403  0.16643  Biso   1.000  O
  O55      1.0000 0.77037  0.23173  0.22003  Biso   1.000  O
  O56      1.0000 0.54547  0.09213  0.20963  Biso   1.000  O
  P11      1.0000 0.56662  0.89986  0.56644  Biso   1.000  P
  Al15     1.0000 0.33390  0.43382  0.76711  Biso   1.000  Al
  O57      1.0000 0.33363  0.39307  0.66747  Biso   1.000  O
  O58      1.0000 0.34843  0.34737  0.49977  Biso   1.000  O
  O59      1.0000 0.43703  0.56507  0.55337  Biso   1.000  O
  O60      1.0000 0.21213  0.42547  0.54297  Biso   1.000  O
  P12      1.0000 0.23329  0.23319  0.89977  Biso   1.000  P
  Al16     1.0000 0.23285  0.23342  0.10044  Biso   1.000  Al
  O61      1.0000 0.27360  0.27390  0.00080  Biso   1.000  O
  O62      1.0000 0.31930  0.33440  0.83310  Biso   1.000  O
  O63      1.0000 0.10160  0.20530  0.88670  Biso   1.000  O
  O64      1.0000 0.24120  0.12000  0.87630  Biso   1.000  O
  Al17     1.0000 0.89952  0.56675  0.43377  Biso   1.000  Al
  O65      1.0000 0.94027  0.60723  0.33413  Biso   1.000  O
  O66      1.0000 0.98597  0.66773  0.16643  Biso   1.000  O
  O67      1.0000 0.76827  0.53863  0.22003  Biso   1.000  O
  O68      1.0000 0.90787  0.45333  0.20963  Biso   1.000  O
  Al18     1.0000 0.56618  0.90009  0.76711  Biso   1.000  Al
  O69      1.0000 0.60693  0.94057  0.66747  Biso   1.000  O
  O70      1.0000 0.65263  0.00107  0.49977  Biso   1.000  O
  O71      1.0000 0.43493  0.87197  0.55337  Biso   1.000  O
  O72      1.0000 0.57453  0.78667  0.54297  Biso   1.000  O
