data_image0
_cell_length_a       9.727
_cell_length_b       17.0204
_cell_length_c       15.2959
_cell_angle_alpha    90
_cell_angle_beta     96.8477
_cell_angle_gamma    90

_symmetry_space_group_name_H-M    "P 1"
_symmetry_int_tables_number       1

loop_
  _symmetry_equiv_pos_as_xyz
  'x, y, z'

loop_
  _atom_site_label
  _atom_site_occupancy
  _atom_site_fract_x
  _atom_site_fract_y
  _atom_site_fract_z
  _atom_site_thermal_displace_type
  _atom_site_B_iso_or_equiv
  _atom_site_type_symbol
  Cd1      1.0000 0.86686  0.58026  0.51932  Biso   1.000  Cd
  O1       1.0000 0.74460  0.53890  0.38993  Biso   1.000  O
  O2       1.0000 0.68380  0.66776  0.53282  Biso   1.000  O
  O3       1.0000 0.84550  0.66152  0.64735  Biso   1.000  O
  O4       1.0000 0.93130  0.46602  0.40116  Biso   1.000  O
  N1       1.0000 0.99660  0.16606  0.04835  Biso   1.000  N
  N2       1.0000 0.24450  0.98427  0.90926  Biso   1.000  N
  C1       1.0000 0.81380  0.48267  0.36599  Biso   1.000  C
  C2       1.0000 0.74690  0.43295  0.29057  Biso   1.000  C
  C3       1.0000 0.82320  0.37753  0.25005  Biso   1.000  C
  H1       1.0000 0.91780  0.36930  0.27150  Biso   1.000  H
  C4       1.0000 0.76250  0.33374  0.17810  Biso   1.000  C
  C5       1.0000 0.62150  0.34550  0.14890  Biso   1.000  C
  H2       1.0000 0.57850  0.31620  0.10030  Biso   1.000  H
  C6       1.0000 0.54420  0.39960  0.19070  Biso   1.000  C
  H3       1.0000 0.44850  0.40620  0.17120  Biso   1.000  H
  C7       1.0000 0.60640  0.44410  0.26080  Biso   1.000  C
  H4       1.0000 0.55390  0.48190  0.28830  Biso   1.000  H
  C8       1.0000 0.01330  0.17459  0.13570  Biso   1.000  C
  H5       1.0000 0.07930  0.14210  0.16920  Biso   1.000  H
  C9       1.0000 0.94050  0.22767  0.18040  Biso   1.000  C
  H6       1.0000 0.95640  0.23100  0.24280  Biso   1.000  H
  C10      1.0000 0.84350  0.27636  0.13300  Biso   1.000  C
  C11      1.0000 0.82580  0.26730  0.04170  Biso   1.000  C
  H7       1.0000 0.76040  0.29900  0.00670  Biso   1.000  H
  C12      1.0000 0.90200  0.21310  0.00230  Biso   1.000  C
  H8       1.0000 0.88790  0.20830  0.94000  Biso   1.000  H
  C13      1.0000 0.72910  0.68460  0.61153  Biso   1.000  C
  C14      1.0000 0.64080  0.73380  0.66350  Biso   1.000  C
  C15      1.0000 0.51020  0.75960  0.62720  Biso   1.000  C
  H9       1.0000 0.47520  0.74430  0.56900  Biso   1.000  H
  C16      1.0000 0.43120  0.80720  0.67490  Biso   1.000  C
  H10      1.0000 0.34270  0.82430  0.64880  Biso   1.000  H
  C17      1.0000 0.47930  0.83037  0.76071  Biso   1.000  C
  C18      1.0000 0.60900  0.80260  0.79740  Biso   1.000  C
  H11      1.0000 0.64390  0.81690  0.85590  Biso   1.000  H
  C19      1.0000 0.68670  0.75480  0.74970  Biso   1.000  C
  H12      1.0000 0.77360  0.73580  0.77630  Biso   1.000  H
  C20      1.0000 0.21540  0.97630  0.82200  Biso   1.000  C
  H13      1.0000 0.14060  0.00590  0.79310  Biso   1.000  H
  C21      1.0000 0.28690  0.92782  0.77150  Biso   1.000  C
  H14      1.0000 0.26210  0.92520  0.70960  Biso   1.000  H
  C22      1.0000 0.39660  0.88240  0.81185  Biso   1.000  C
  C23      1.0000 0.42520  0.89000  0.90286  Biso   1.000  C
  H15      1.0000 0.49770  0.86000  0.93380  Biso   1.000  H
  C24      1.0000 0.34980  0.94010  0.94801  Biso   1.000  C
  H16      1.0000 0.37270  0.94420  0.01000  Biso   1.000  H
  Cd2      1.0000 0.13314  0.08026  0.98068  Biso   1.000  Cd
  O5       1.0000 0.25540  0.03890  0.11007  Biso   1.000  O
  O6       1.0000 0.31620  0.16776  0.96718  Biso   1.000  O
  O7       1.0000 0.15450  0.16152  0.85265  Biso   1.000  O
  O8       1.0000 0.06870  0.96602  0.09884  Biso   1.000  O
  N3       1.0000 0.00340  0.66606  0.45165  Biso   1.000  N
  N4       1.0000 0.75550  0.48427  0.59074  Biso   1.000  N
  C25      1.0000 0.18620  0.98267  0.13401  Biso   1.000  C
  C26      1.0000 0.25310  0.93295  0.20943  Biso   1.000  C
  C27      1.0000 0.17680  0.87753  0.24995  Biso   1.000  C
  H17      1.0000 0.08220  0.86930  0.22850  Biso   1.000  H
  C28      1.0000 0.23750  0.83374  0.32190  Biso   1.000  C
  C29      1.0000 0.37850  0.84550  0.35110  Biso   1.000  C
  H18      1.0000 0.42150  0.81620  0.39970  Biso   1.000  H
  C30      1.0000 0.45580  0.89960  0.30930  Biso   1.000  C
  H19      1.0000 0.55150  0.90620  0.32880  Biso   1.000  H
  C31      1.0000 0.39360  0.94410  0.23920  Biso   1.000  C
  H20      1.0000 0.44610  0.98190  0.21170  Biso   1.000  H
  C32      1.0000 0.98670  0.67459  0.36430  Biso   1.000  C
  H21      1.0000 0.92070  0.64210  0.33080  Biso   1.000  H
  C33      1.0000 0.05950  0.72767  0.31960  Biso   1.000  C
  H22      1.0000 0.04360  0.73100  0.25720  Biso   1.000  H
  C34      1.0000 0.15650  0.77636  0.36700  Biso   1.000  C
  C35      1.0000 0.17420  0.76730  0.45830  Biso   1.000  C
  H23      1.0000 0.23960  0.79900  0.49330  Biso   1.000  H
  C36      1.0000 0.09800  0.71310  0.49770  Biso   1.000  C
  H24      1.0000 0.11210  0.70830  0.56000  Biso   1.000  H
  C37      1.0000 0.27090  0.18460  0.88847  Biso   1.000  C
  C38      1.0000 0.35920  0.23380  0.83650  Biso   1.000  C
  C39      1.0000 0.48980  0.25960  0.87280  Biso   1.000  C
  H25      1.0000 0.52480  0.24430  0.93100  Biso   1.000  H
  C40      1.0000 0.56880  0.30720  0.82510  Biso   1.000  C
  H26      1.0000 0.65730  0.32430  0.85120  Biso   1.000  H
  C41      1.0000 0.52070  0.33037  0.73929  Biso   1.000  C
  C42      1.0000 0.39100  0.30260  0.70260  Biso   1.000  C
  H27      1.0000 0.35610  0.31690  0.64410  Biso   1.000  H
  C43      1.0000 0.31330  0.25480  0.75030  Biso   1.000  C
  H28      1.0000 0.22640  0.23580  0.72370  Biso   1.000  H
  C44      1.0000 0.78460  0.47630  0.67800  Biso   1.000  C
  H29      1.0000 0.85940  0.50590  0.70690  Biso   1.000  H
  C45      1.0000 0.71310  0.42782  0.72850  Biso   1.000  C
  H30      1.0000 0.73790  0.42520  0.79040  Biso   1.000  H
  C46      1.0000 0.60340  0.38240  0.68815  Biso   1.000  C
  C47      1.0000 0.57480  0.39000  0.59714  Biso   1.000  C
  H31      1.0000 0.50230  0.36000  0.56620  Biso   1.000  H
  C48      1.0000 0.65020  0.44010  0.55199  Biso   1.000  C
  H32      1.0000 0.62730  0.44420  0.49000  Biso   1.000  H
  Cd3      1.0000 0.13314  0.41974  0.48068  Biso   1.000  Cd
  O9       1.0000 0.25540  0.46110  0.61007  Biso   1.000  O
  O10      1.0000 0.31620  0.33224  0.46718  Biso   1.000  O
  O11      1.0000 0.15450  0.33848  0.35265  Biso   1.000  O
  O12      1.0000 0.06870  0.53398  0.59884  Biso   1.000  O
  N5       1.0000 0.00340  0.83394  0.95165  Biso   1.000  N
  N6       1.0000 0.75550  0.01573  0.09074  Biso   1.000  N
  C49      1.0000 0.18620  0.51733  0.63401  Biso   1.000  C
  C50      1.0000 0.25310  0.56705  0.70943  Biso   1.000  C
  C51      1.0000 0.17680  0.62247  0.74995  Biso   1.000  C
  H33      1.0000 0.08220  0.63070  0.72850  Biso   1.000  H
  C52      1.0000 0.23750  0.66626  0.82190  Biso   1.000  C
  C53      1.0000 0.37850  0.65450  0.85110  Biso   1.000  C
  H34      1.0000 0.42150  0.68380  0.89970  Biso   1.000  H
  C54      1.0000 0.45580  0.60040  0.80930  Biso   1.000  C
  H35      1.0000 0.55150  0.59380  0.82880  Biso   1.000  H
  C55      1.0000 0.39360  0.55590  0.73920  Biso   1.000  C
  H36      1.0000 0.44610  0.51810  0.71170  Biso   1.000  H
  C56      1.0000 0.98670  0.82541  0.86430  Biso   1.000  C
  H37      1.0000 0.92070  0.85790  0.83080  Biso   1.000  H
  C57      1.0000 0.05950  0.77233  0.81960  Biso   1.000  C
  H38      1.0000 0.04360  0.76900  0.75720  Biso   1.000  H
  C58      1.0000 0.15650  0.72364  0.86700  Biso   1.000  C
  C59      1.0000 0.17420  0.73270  0.95830  Biso   1.000  C
  H39      1.0000 0.23960  0.70100  0.99330  Biso   1.000  H
  C60      1.0000 0.09800  0.78690  0.99770  Biso   1.000  C
  H40      1.0000 0.11210  0.79170  0.06000  Biso   1.000  H
  C61      1.0000 0.27090  0.31540  0.38847  Biso   1.000  C
  C62      1.0000 0.35920  0.26620  0.33650  Biso   1.000  C
  C63      1.0000 0.48980  0.24040  0.37280  Biso   1.000  C
  H41      1.0000 0.52480  0.25570  0.43100  Biso   1.000  H
  C64      1.0000 0.56880  0.19280  0.32510  Biso   1.000  C
  H42      1.0000 0.65730  0.17570  0.35120  Biso   1.000  H
  C65      1.0000 0.52070  0.16963  0.23929  Biso   1.000  C
  C66      1.0000 0.39100  0.19740  0.20260  Biso   1.000  C
  H43      1.0000 0.35610  0.18310  0.14410  Biso   1.000  H
  C67      1.0000 0.31330  0.24520  0.25030  Biso   1.000  C
  H44      1.0000 0.22640  0.26420  0.22370  Biso   1.000  H
  C68      1.0000 0.78460  0.02370  0.17800  Biso   1.000  C
  H45      1.0000 0.85940  0.99410  0.20690  Biso   1.000  H
  C69      1.0000 0.71310  0.07218  0.22850  Biso   1.000  C
  H46      1.0000 0.73790  0.07480  0.29040  Biso   1.000  H
  C70      1.0000 0.60340  0.11760  0.18815  Biso   1.000  C
  C71      1.0000 0.57480  0.11000  0.09714  Biso   1.000  C
  H47      1.0000 0.50230  0.14000  0.06620  Biso   1.000  H
  C72      1.0000 0.65020  0.05990  0.05199  Biso   1.000  C
  H48      1.0000 0.62730  0.05580  0.99000  Biso   1.000  H
  Cd4      1.0000 0.86686  0.91974  0.01932  Biso   1.000  Cd
  O13      1.0000 0.74460  0.96110  0.88993  Biso   1.000  O
  O14      1.0000 0.68380  0.83224  0.03282  Biso   1.000  O
  O15      1.0000 0.84550  0.83848  0.14735  Biso   1.000  O
  O16      1.0000 0.93130  0.03398  0.90116  Biso   1.000  O
  N7       1.0000 0.99660  0.33394  0.54835  Biso   1.000  N
  N8       1.0000 0.24450  0.51573  0.40926  Biso   1.000  N
  C73      1.0000 0.81380  0.01733  0.86599  Biso   1.000  C
  C74      1.0000 0.74690  0.06705  0.79057  Biso   1.000  C
  C75      1.0000 0.82320  0.12247  0.75005  Biso   1.000  C
  H49      1.0000 0.91780  0.13070  0.77150  Biso   1.000  H
  C76      1.0000 0.76250  0.16626  0.67810  Biso   1.000  C
  C77      1.0000 0.62150  0.15450  0.64890  Biso   1.000  C
  H50      1.0000 0.57850  0.18380  0.60030  Biso   1.000  H
  C78      1.0000 0.54420  0.10040  0.69070  Biso   1.000  C
  H51      1.0000 0.44850  0.09380  0.67120  Biso   1.000  H
  C79      1.0000 0.60640  0.05590  0.76080  Biso   1.000  C
  H52      1.0000 0.55390  0.01810  0.78830  Biso   1.000  H
  C80      1.0000 0.01330  0.32541  0.63570  Biso   1.000  C
  H53      1.0000 0.07930  0.35790  0.66920  Biso   1.000  H
  C81      1.0000 0.94050  0.27233  0.68040  Biso   1.000  C
  H54      1.0000 0.95640  0.26900  0.74280  Biso   1.000  H
  C82      1.0000 0.84350  0.22364  0.63300  Biso   1.000  C
  C83      1.0000 0.82580  0.23270  0.54170  Biso   1.000  C
  H55      1.0000 0.76040  0.20100  0.50670  Biso   1.000  H
  C84      1.0000 0.90200  0.28690  0.50230  Biso   1.000  C
  H56      1.0000 0.88790  0.29170  0.44000  Biso   1.000  H
  C85      1.0000 0.72910  0.81540  0.11153  Biso   1.000  C
  C86      1.0000 0.64080  0.76620  0.16350  Biso   1.000  C
  C87      1.0000 0.51020  0.74040  0.12720  Biso   1.000  C
  H57      1.0000 0.47520  0.75570  0.06900  Biso   1.000  H
  C88      1.0000 0.43120  0.69280  0.17490  Biso   1.000  C
  H58      1.0000 0.34270  0.67570  0.14880  Biso   1.000  H
  C89      1.0000 0.47930  0.66963  0.26071  Biso   1.000  C
  C90      1.0000 0.60900  0.69740  0.29740  Biso   1.000  C
  H59      1.0000 0.64390  0.68310  0.35590  Biso   1.000  H
  C91      1.0000 0.68670  0.74520  0.24970  Biso   1.000  C
  H60      1.0000 0.77360  0.76420  0.27630  Biso   1.000  H
  C92      1.0000 0.21540  0.52370  0.32200  Biso   1.000  C
  H61      1.0000 0.14060  0.49410  0.29310  Biso   1.000  H
  C93      1.0000 0.28690  0.57218  0.27150  Biso   1.000  C
  H62      1.0000 0.26210  0.57480  0.20960  Biso   1.000  H
  C94      1.0000 0.39660  0.61760  0.31185  Biso   1.000  C
  C95      1.0000 0.42520  0.61000  0.40286  Biso   1.000  C
  H63      1.0000 0.49770  0.64000  0.43380  Biso   1.000  H
  C96      1.0000 0.34980  0.55990  0.44801  Biso   1.000  C
  H64      1.0000 0.37270  0.55580  0.51000  Biso   1.000  H
