data_image0
_cell_length_a       33.929
_cell_length_b       13.045
_cell_length_c       8.9713
_cell_angle_alpha    90
_cell_angle_beta     104.37
_cell_angle_gamma    90

_symmetry_space_group_name_H-M    "P 1"
_symmetry_int_tables_number       1

loop_
  _symmetry_equiv_pos_as_xyz
  'x, y, z'

loop_
  _atom_site_label
  _atom_site_occupancy
  _atom_site_fract_x
  _atom_site_fract_y
  _atom_site_fract_z
  _atom_site_thermal_displace_type
  _atom_site_B_iso_or_equiv
  _atom_site_type_symbol
  Mn1      1.0000 0.14770  0.10455  0.66062  Biso   1.000  Mn
  Mn2      1.0000 0.22899  0.85717  0.62707  Biso   1.000  Mn
  P1       1.0000 0.05116  0.11897  0.56630  Biso   1.000  P
  H1       1.0000 0.04650  0.22720  0.56300  Biso   1.000  H
  P2       1.0000 0.19505  0.94880  0.90430  Biso   1.000  P
  P3       1.0000 0.18009  0.70650  0.38430  Biso   1.000  P
  H2       1.0000 0.16110  0.61170  0.40100  Biso   1.000  H
  O1       1.0000 0.19220  0.73740  0.54790  Biso   1.000  O
  O2       1.0000 0.22456  0.87110  0.83280  Biso   1.000  O
  O3       1.0000 0.21860  0.04700  0.97120  Biso   1.000  O
  O4       1.0000 0.15683  0.97940  0.77770  Biso   1.000  O
  O5       1.0000 0.18398  0.88780  0.03070  Biso   1.000  O
  O6       1.0000 0.09316  0.09000  0.53880  Biso   1.000  O
  O7       1.0000 0.01617  0.10520  0.42480  Biso   1.000  O
  O8       1.0000 0.14620  0.77450  0.29040  Biso   1.000  O
  O9       1.0000 0.04420  0.07030  0.71180  Biso   1.000  O
  O10      1.0000 0.21390  0.69030  0.30750  Biso   1.000  O
  Zn1      1.0000 0.85230  0.10455  0.83938  Biso   1.000  Zn
  Zn2      1.0000 0.77101  0.85717  0.87293  Biso   1.000  Zn
  Mn3      1.0000 0.64770  0.60455  0.66062  Biso   1.000  Mn
  Mn4      1.0000 0.72899  0.35717  0.62707  Biso   1.000  Mn
  P4       1.0000 0.55116  0.61897  0.56630  Biso   1.000  P
  H3       1.0000 0.54650  0.72720  0.56300  Biso   1.000  H
  P5       1.0000 0.69505  0.44880  0.90430  Biso   1.000  P
  P6       1.0000 0.68009  0.20650  0.38430  Biso   1.000  P
  H4       1.0000 0.66110  0.11170  0.40100  Biso   1.000  H
  O11      1.0000 0.69220  0.23740  0.54790  Biso   1.000  O
  O12      1.0000 0.72456  0.37110  0.83280  Biso   1.000  O
  O13      1.0000 0.71860  0.54700  0.97120  Biso   1.000  O
  O14      1.0000 0.65683  0.47940  0.77770  Biso   1.000  O
  O15      1.0000 0.68398  0.38780  0.03070  Biso   1.000  O
  O16      1.0000 0.59316  0.59000  0.53880  Biso   1.000  O
  O17      1.0000 0.51617  0.60520  0.42480  Biso   1.000  O
  O18      1.0000 0.64620  0.27450  0.29040  Biso   1.000  O
  O19      1.0000 0.54420  0.57030  0.71180  Biso   1.000  O
  O20      1.0000 0.71390  0.19030  0.30750  Biso   1.000  O
  Zn3      1.0000 0.35230  0.60455  0.83938  Biso   1.000  Zn
  Zn4      1.0000 0.27101  0.35717  0.87293  Biso   1.000  Zn
  P7       1.0000 0.94884  0.11897  0.93370  Biso   1.000  P
  H5       1.0000 0.95350  0.22720  0.93700  Biso   1.000  H
  P8       1.0000 0.80495  0.94880  0.59570  Biso   1.000  P
  P9       1.0000 0.81991  0.70650  0.11570  Biso   1.000  P
  H6       1.0000 0.83890  0.61170  0.09900  Biso   1.000  H
  O21      1.0000 0.80780  0.73740  0.95210  Biso   1.000  O
  O22      1.0000 0.77544  0.87110  0.66720  Biso   1.000  O
  O23      1.0000 0.78140  0.04700  0.52880  Biso   1.000  O
  O24      1.0000 0.84317  0.97940  0.72230  Biso   1.000  O
  O25      1.0000 0.81602  0.88780  0.46930  Biso   1.000  O
  O26      1.0000 0.90684  0.09000  0.96120  Biso   1.000  O
  O27      1.0000 0.98383  0.10520  0.07520  Biso   1.000  O
  O28      1.0000 0.85380  0.77450  0.20960  Biso   1.000  O
  O29      1.0000 0.95580  0.07030  0.78820  Biso   1.000  O
  O30      1.0000 0.78610  0.69030  0.19250  Biso   1.000  O
  P10      1.0000 0.44884  0.61897  0.93370  Biso   1.000  P
  H7       1.0000 0.45350  0.72720  0.93700  Biso   1.000  H
  P11      1.0000 0.30495  0.44880  0.59570  Biso   1.000  P
  P12      1.0000 0.31991  0.20650  0.11570  Biso   1.000  P
  H8       1.0000 0.33890  0.11170  0.09900  Biso   1.000  H
  O31      1.0000 0.30780  0.23740  0.95210  Biso   1.000  O
  O32      1.0000 0.27544  0.37110  0.66720  Biso   1.000  O
  O33      1.0000 0.28140  0.54700  0.52880  Biso   1.000  O
  O34      1.0000 0.34317  0.47940  0.72230  Biso   1.000  O
  O35      1.0000 0.31602  0.38780  0.46930  Biso   1.000  O
  O36      1.0000 0.40684  0.59000  0.96120  Biso   1.000  O
  O37      1.0000 0.48383  0.60520  0.07520  Biso   1.000  O
  O38      1.0000 0.35380  0.27450  0.20960  Biso   1.000  O
  O39      1.0000 0.45580  0.57030  0.78820  Biso   1.000  O
  O40      1.0000 0.28610  0.19030  0.19250  Biso   1.000  O
  Mn5      1.0000 0.85230  0.89545  0.33938  Biso   1.000  Mn
  Mn6      1.0000 0.77101  0.14283  0.37293  Biso   1.000  Mn
  P13      1.0000 0.94884  0.88103  0.43370  Biso   1.000  P
  H9       1.0000 0.95350  0.77280  0.43700  Biso   1.000  H
  P14      1.0000 0.80495  0.05120  0.09570  Biso   1.000  P
  P15      1.0000 0.81991  0.29350  0.61570  Biso   1.000  P
  H10      1.0000 0.83890  0.38830  0.59900  Biso   1.000  H
  O41      1.0000 0.80780  0.26260  0.45210  Biso   1.000  O
  O42      1.0000 0.77544  0.12890  0.16720  Biso   1.000  O
  O43      1.0000 0.78140  0.95300  0.02880  Biso   1.000  O
  O44      1.0000 0.84317  0.02060  0.22230  Biso   1.000  O
  O45      1.0000 0.81602  0.11220  0.96930  Biso   1.000  O
  O46      1.0000 0.90684  0.91000  0.46120  Biso   1.000  O
  O47      1.0000 0.98383  0.89480  0.57520  Biso   1.000  O
  O48      1.0000 0.85380  0.22550  0.70960  Biso   1.000  O
  O49      1.0000 0.95580  0.92970  0.28820  Biso   1.000  O
  O50      1.0000 0.78610  0.30970  0.69250  Biso   1.000  O
  Zn5      1.0000 0.14770  0.89545  0.16062  Biso   1.000  Zn
  Zn6      1.0000 0.22899  0.14283  0.12707  Biso   1.000  Zn
  Mn7      1.0000 0.35230  0.39545  0.33938  Biso   1.000  Mn
  Mn8      1.0000 0.27101  0.64283  0.37293  Biso   1.000  Mn
  P16      1.0000 0.44884  0.38103  0.43370  Biso   1.000  P
  H11      1.0000 0.45350  0.27280  0.43700  Biso   1.000  H
  P17      1.0000 0.30495  0.55120  0.09570  Biso   1.000  P
  P18      1.0000 0.31991  0.79350  0.61570  Biso   1.000  P
  H12      1.0000 0.33890  0.88830  0.59900  Biso   1.000  H
  O51      1.0000 0.30780  0.76260  0.45210  Biso   1.000  O
  O52      1.0000 0.27544  0.62890  0.16720  Biso   1.000  O
  O53      1.0000 0.28140  0.45300  0.02880  Biso   1.000  O
  O54      1.0000 0.34317  0.52060  0.22230  Biso   1.000  O
  O55      1.0000 0.31602  0.61220  0.96930  Biso   1.000  O
  O56      1.0000 0.40684  0.41000  0.46120  Biso   1.000  O
  O57      1.0000 0.48383  0.39480  0.57520  Biso   1.000  O
  O58      1.0000 0.35380  0.72550  0.70960  Biso   1.000  O
  O59      1.0000 0.45580  0.42970  0.28820  Biso   1.000  O
  O60      1.0000 0.28610  0.80970  0.69250  Biso   1.000  O
  Zn7      1.0000 0.64770  0.39545  0.16062  Biso   1.000  Zn
  Zn8      1.0000 0.72899  0.64283  0.12707  Biso   1.000  Zn
  P19      1.0000 0.05116  0.88103  0.06630  Biso   1.000  P
  H13      1.0000 0.04650  0.77280  0.06300  Biso   1.000  H
  P20      1.0000 0.19505  0.05120  0.40430  Biso   1.000  P
  P21      1.0000 0.18009  0.29350  0.88430  Biso   1.000  P
  H14      1.0000 0.16110  0.38830  0.90100  Biso   1.000  H
  O61      1.0000 0.19220  0.26260  0.04790  Biso   1.000  O
  O62      1.0000 0.22456  0.12890  0.33280  Biso   1.000  O
  O63      1.0000 0.21860  0.95300  0.47120  Biso   1.000  O
  O64      1.0000 0.15683  0.02060  0.27770  Biso   1.000  O
  O65      1.0000 0.18398  0.11220  0.53070  Biso   1.000  O
  O66      1.0000 0.09316  0.91000  0.03880  Biso   1.000  O
  O67      1.0000 0.01617  0.89480  0.92480  Biso   1.000  O
  O68      1.0000 0.14620  0.22550  0.79040  Biso   1.000  O
  O69      1.0000 0.04420  0.92970  0.21180  Biso   1.000  O
  O70      1.0000 0.21390  0.30970  0.80750  Biso   1.000  O
  P22      1.0000 0.55116  0.38103  0.06630  Biso   1.000  P
  H15      1.0000 0.54650  0.27280  0.06300  Biso   1.000  H
  P23      1.0000 0.69505  0.55120  0.40430  Biso   1.000  P
  P24      1.0000 0.68009  0.79350  0.88430  Biso   1.000  P
  H16      1.0000 0.66110  0.88830  0.90100  Biso   1.000  H
  O71      1.0000 0.69220  0.76260  0.04790  Biso   1.000  O
  O72      1.0000 0.72456  0.62890  0.33280  Biso   1.000  O
  O73      1.0000 0.71860  0.45300  0.47120  Biso   1.000  O
  O74      1.0000 0.65683  0.52060  0.27770  Biso   1.000  O
  O75      1.0000 0.68398  0.61220  0.53070  Biso   1.000  O
  O76      1.0000 0.59316  0.41000  0.03880  Biso   1.000  O
  O77      1.0000 0.51617  0.39480  0.92480  Biso   1.000  O
  O78      1.0000 0.64620  0.72550  0.79040  Biso   1.000  O
  O79      1.0000 0.54420  0.42970  0.21180  Biso   1.000  O
  O80      1.0000 0.71390  0.80970  0.80750  Biso   1.000  O
  Mn9      1.0000 0.00000  0.01279  0.25000  Biso   1.000  Mn
  Mn10     1.0000 0.50000  0.51279  0.25000  Biso   1.000  Mn
  Mn11     1.0000 0.00000  0.98721  0.75000  Biso   1.000  Mn
  Mn12     1.0000 0.50000  0.48721  0.75000  Biso   1.000  Mn
