data_image0
_cell_length_a       19.2108
_cell_length_b       19.2108
_cell_length_c       19.2108
_cell_angle_alpha    90
_cell_angle_beta     90
_cell_angle_gamma    90

_symmetry_space_group_name_H-M    "P 1"
_symmetry_int_tables_number       1

loop_
  _symmetry_equiv_pos_as_xyz
  'x, y, z'

loop_
  _atom_site_label
  _atom_site_occupancy
  _atom_site_fract_x
  _atom_site_fract_y
  _atom_site_fract_z
  _atom_site_thermal_displace_type
  _atom_site_B_iso_or_equiv
  _atom_site_type_symbol
  Fe1      1.0000 0.85955  0.25738  0.10740  Biso   1.000  Fe
  C1       1.0000 0.76810  0.44310  0.82690  Biso   1.000  C
  H1       1.0000 0.74240  0.48090  0.81090  Biso   1.000  H
  C2       1.0000 0.77060  0.42960  0.89720  Biso   1.000  C
  H2       1.0000 0.74660  0.45770  0.92850  Biso   1.000  H
  C3       1.0000 0.80970  0.37340  0.92100  Biso   1.000  C
  C4       1.0000 0.84410  0.33080  0.87440  Biso   1.000  C
  H3       1.0000 0.87000  0.29320  0.89050  Biso   1.000  H
  C5       1.0000 0.83990  0.34410  0.80330  Biso   1.000  C
  C6       1.0000 0.80310  0.40150  0.77980  Biso   1.000  C
  H4       1.0000 0.80190  0.41190  0.73250  Biso   1.000  H
  C7       1.0000 0.81170  0.35700  0.99710  Biso   1.000  C
  C8       1.0000 0.87100  0.29380  0.75330  Biso   1.000  C
  O1       1.0000 0.84928  0.30658  0.01617  Biso   1.000  O
  O2       1.0000 0.77604  0.39451  0.03761  Biso   1.000  O
  O3       1.0000 0.86700  0.30826  0.68933  Biso   1.000  O
  O4       1.0000 0.89845  0.23927  0.77714  Biso   1.000  O
  Fe2      1.0000 0.64045  0.74262  0.60740  Biso   1.000  Fe
  C9       1.0000 0.73190  0.55690  0.32690  Biso   1.000  C
  H5       1.0000 0.75760  0.51910  0.31090  Biso   1.000  H
  C10      1.0000 0.72940  0.57040  0.39720  Biso   1.000  C
  H6       1.0000 0.75340  0.54230  0.42850  Biso   1.000  H
  C11      1.0000 0.69030  0.62660  0.42100  Biso   1.000  C
  C12      1.0000 0.65590  0.66920  0.37440  Biso   1.000  C
  H7       1.0000 0.63000  0.70680  0.39050  Biso   1.000  H
  C13      1.0000 0.66010  0.65590  0.30330  Biso   1.000  C
  C14      1.0000 0.69690  0.59850  0.27980  Biso   1.000  C
  H8       1.0000 0.69810  0.58810  0.23250  Biso   1.000  H
  C15      1.0000 0.68830  0.64300  0.49710  Biso   1.000  C
  C16      1.0000 0.62900  0.70620  0.25330  Biso   1.000  C
  O5       1.0000 0.65072  0.69342  0.51617  Biso   1.000  O
  O6       1.0000 0.72396  0.60549  0.53761  Biso   1.000  O
  O7       1.0000 0.63300  0.69174  0.18933  Biso   1.000  O
  O8       1.0000 0.60155  0.76073  0.27714  Biso   1.000  O
  Fe3      1.0000 0.14045  0.75738  0.39260  Biso   1.000  Fe
  C17      1.0000 0.23190  0.94310  0.67310  Biso   1.000  C
  H9       1.0000 0.25760  0.98090  0.68910  Biso   1.000  H
  C18      1.0000 0.22940  0.92960  0.60280  Biso   1.000  C
  H10      1.0000 0.25340  0.95770  0.57150  Biso   1.000  H
  C19      1.0000 0.19030  0.87340  0.57900  Biso   1.000  C
  C20      1.0000 0.15590  0.83080  0.62560  Biso   1.000  C
  H11      1.0000 0.13000  0.79320  0.60950  Biso   1.000  H
  C21      1.0000 0.16010  0.84410  0.69670  Biso   1.000  C
  C22      1.0000 0.19690  0.90150  0.72020  Biso   1.000  C
  H12      1.0000 0.19810  0.91190  0.76750  Biso   1.000  H
  C23      1.0000 0.18830  0.85700  0.50290  Biso   1.000  C
  C24      1.0000 0.12900  0.79380  0.74670  Biso   1.000  C
  O9       1.0000 0.15072  0.80658  0.48383  Biso   1.000  O
  O10      1.0000 0.22396  0.89451  0.46239  Biso   1.000  O
  O11      1.0000 0.13300  0.80826  0.81067  Biso   1.000  O
  O12      1.0000 0.10155  0.73927  0.72286  Biso   1.000  O
  Fe4      1.0000 0.35955  0.24262  0.89260  Biso   1.000  Fe
  C25      1.0000 0.26810  0.05690  0.17310  Biso   1.000  C
  H13      1.0000 0.24240  0.01910  0.18910  Biso   1.000  H
  C26      1.0000 0.27060  0.07040  0.10280  Biso   1.000  C
  H14      1.0000 0.24660  0.04230  0.07150  Biso   1.000  H
  C27      1.0000 0.30970  0.12660  0.07900  Biso   1.000  C
  C28      1.0000 0.34410  0.16920  0.12560  Biso   1.000  C
  H15      1.0000 0.37000  0.20680  0.10950  Biso   1.000  H
  C29      1.0000 0.33990  0.15590  0.19670  Biso   1.000  C
  C30      1.0000 0.30310  0.09850  0.22020  Biso   1.000  C
  H16      1.0000 0.30190  0.08810  0.26750  Biso   1.000  H
  C31      1.0000 0.31170  0.14300  0.00290  Biso   1.000  C
  C32      1.0000 0.37100  0.20620  0.24670  Biso   1.000  C
  O13      1.0000 0.34928  0.19342  0.98383  Biso   1.000  O
  O14      1.0000 0.27604  0.10549  0.96239  Biso   1.000  O
  O15      1.0000 0.36700  0.19174  0.31067  Biso   1.000  O
  O16      1.0000 0.39845  0.26073  0.22286  Biso   1.000  O
  Fe5      1.0000 0.10740  0.85955  0.25738  Biso   1.000  Fe
  C33      1.0000 0.82690  0.76810  0.44310  Biso   1.000  C
  H17      1.0000 0.81090  0.74240  0.48090  Biso   1.000  H
  C34      1.0000 0.89720  0.77060  0.42960  Biso   1.000  C
  H18      1.0000 0.92850  0.74660  0.45770  Biso   1.000  H
  C35      1.0000 0.92100  0.80970  0.37340  Biso   1.000  C
  C36      1.0000 0.87440  0.84410  0.33080  Biso   1.000  C
  H19      1.0000 0.89050  0.87000  0.29320  Biso   1.000  H
  C37      1.0000 0.80330  0.83990  0.34410  Biso   1.000  C
  C38      1.0000 0.77980  0.80310  0.40150  Biso   1.000  C
  H20      1.0000 0.73250  0.80190  0.41190  Biso   1.000  H
  C39      1.0000 0.99710  0.81170  0.35700  Biso   1.000  C
  C40      1.0000 0.75330  0.87100  0.29380  Biso   1.000  C
  O17      1.0000 0.01617  0.84928  0.30658  Biso   1.000  O
  O18      1.0000 0.03761  0.77604  0.39451  Biso   1.000  O
  O19      1.0000 0.68933  0.86700  0.30826  Biso   1.000  O
  O20      1.0000 0.77714  0.89845  0.23927  Biso   1.000  O
  Fe6      1.0000 0.60740  0.64045  0.74262  Biso   1.000  Fe
  C41      1.0000 0.32690  0.73190  0.55690  Biso   1.000  C
  H21      1.0000 0.31090  0.75760  0.51910  Biso   1.000  H
  C42      1.0000 0.39720  0.72940  0.57040  Biso   1.000  C
  H22      1.0000 0.42850  0.75340  0.54230  Biso   1.000  H
  C43      1.0000 0.42100  0.69030  0.62660  Biso   1.000  C
  C44      1.0000 0.37440  0.65590  0.66920  Biso   1.000  C
  H23      1.0000 0.39050  0.63000  0.70680  Biso   1.000  H
  C45      1.0000 0.30330  0.66010  0.65590  Biso   1.000  C
  C46      1.0000 0.27980  0.69690  0.59850  Biso   1.000  C
  H24      1.0000 0.23250  0.69810  0.58810  Biso   1.000  H
  C47      1.0000 0.49710  0.68830  0.64300  Biso   1.000  C
  C48      1.0000 0.25330  0.62900  0.70620  Biso   1.000  C
  O21      1.0000 0.51617  0.65072  0.69342  Biso   1.000  O
  O22      1.0000 0.53761  0.72396  0.60549  Biso   1.000  O
  O23      1.0000 0.18933  0.63300  0.69174  Biso   1.000  O
  O24      1.0000 0.27714  0.60155  0.76073  Biso   1.000  O
  Fe7      1.0000 0.39260  0.14045  0.75738  Biso   1.000  Fe
  C49      1.0000 0.67310  0.23190  0.94310  Biso   1.000  C
  H25      1.0000 0.68910  0.25760  0.98090  Biso   1.000  H
  C50      1.0000 0.60280  0.22940  0.92960  Biso   1.000  C
  H26      1.0000 0.57150  0.25340  0.95770  Biso   1.000  H
  C51      1.0000 0.57900  0.19030  0.87340  Biso   1.000  C
  C52      1.0000 0.62560  0.15590  0.83080  Biso   1.000  C
  H27      1.0000 0.60950  0.13000  0.79320  Biso   1.000  H
  C53      1.0000 0.69670  0.16010  0.84410  Biso   1.000  C
  C54      1.0000 0.72020  0.19690  0.90150  Biso   1.000  C
  H28      1.0000 0.76750  0.19810  0.91190  Biso   1.000  H
  C55      1.0000 0.50290  0.18830  0.85700  Biso   1.000  C
  C56      1.0000 0.74670  0.12900  0.79380  Biso   1.000  C
  O25      1.0000 0.48383  0.15072  0.80658  Biso   1.000  O
  O26      1.0000 0.46239  0.22396  0.89451  Biso   1.000  O
  O27      1.0000 0.81067  0.13300  0.80826  Biso   1.000  O
  O28      1.0000 0.72286  0.10155  0.73927  Biso   1.000  O
  Fe8      1.0000 0.89260  0.35955  0.24262  Biso   1.000  Fe
  C57      1.0000 0.17310  0.26810  0.05690  Biso   1.000  C
  H29      1.0000 0.18910  0.24240  0.01910  Biso   1.000  H
  C58      1.0000 0.10280  0.27060  0.07040  Biso   1.000  C
  H30      1.0000 0.07150  0.24660  0.04230  Biso   1.000  H
  C59      1.0000 0.07900  0.30970  0.12660  Biso   1.000  C
  C60      1.0000 0.12560  0.34410  0.16920  Biso   1.000  C
  H31      1.0000 0.10950  0.37000  0.20680  Biso   1.000  H
  C61      1.0000 0.19670  0.33990  0.15590  Biso   1.000  C
  C62      1.0000 0.22020  0.30310  0.09850  Biso   1.000  C
  H32      1.0000 0.26750  0.30190  0.08810  Biso   1.000  H
  C63      1.0000 0.00290  0.31170  0.14300  Biso   1.000  C
  C64      1.0000 0.24670  0.37100  0.20620  Biso   1.000  C
  O29      1.0000 0.98383  0.34928  0.19342  Biso   1.000  O
  O30      1.0000 0.96239  0.27604  0.10549  Biso   1.000  O
  O31      1.0000 0.31067  0.36700  0.19174  Biso   1.000  O
  O32      1.0000 0.22286  0.39845  0.26073  Biso   1.000  O
  Fe9      1.0000 0.25738  0.10740  0.85955  Biso   1.000  Fe
  C65      1.0000 0.44310  0.82690  0.76810  Biso   1.000  C
  H33      1.0000 0.48090  0.81090  0.74240  Biso   1.000  H
  C66      1.0000 0.42960  0.89720  0.77060  Biso   1.000  C
  H34      1.0000 0.45770  0.92850  0.74660  Biso   1.000  H
  C67      1.0000 0.37340  0.92100  0.80970  Biso   1.000  C
  C68      1.0000 0.33080  0.87440  0.84410  Biso   1.000  C
  H35      1.0000 0.29320  0.89050  0.87000  Biso   1.000  H
  C69      1.0000 0.34410  0.80330  0.83990  Biso   1.000  C
  C70      1.0000 0.40150  0.77980  0.80310  Biso   1.000  C
  H36      1.0000 0.41190  0.73250  0.80190  Biso   1.000  H
  C71      1.0000 0.35700  0.99710  0.81170  Biso   1.000  C
  C72      1.0000 0.29380  0.75330  0.87100  Biso   1.000  C
  O33      1.0000 0.30658  0.01617  0.84928  Biso   1.000  O
  O34      1.0000 0.39451  0.03761  0.77604  Biso   1.000  O
  O35      1.0000 0.30826  0.68933  0.86700  Biso   1.000  O
  O36      1.0000 0.23927  0.77714  0.89845  Biso   1.000  O
  Fe10     1.0000 0.74262  0.60740  0.64045  Biso   1.000  Fe
  C73      1.0000 0.55690  0.32690  0.73190  Biso   1.000  C
  H37      1.0000 0.51910  0.31090  0.75760  Biso   1.000  H
  C74      1.0000 0.57040  0.39720  0.72940  Biso   1.000  C
  H38      1.0000 0.54230  0.42850  0.75340  Biso   1.000  H
  C75      1.0000 0.62660  0.42100  0.69030  Biso   1.000  C
  C76      1.0000 0.66920  0.37440  0.65590  Biso   1.000  C
  H39      1.0000 0.70680  0.39050  0.63000  Biso   1.000  H
  C77      1.0000 0.65590  0.30330  0.66010  Biso   1.000  C
  C78      1.0000 0.59850  0.27980  0.69690  Biso   1.000  C
  H40      1.0000 0.58810  0.23250  0.69810  Biso   1.000  H
  C79      1.0000 0.64300  0.49710  0.68830  Biso   1.000  C
  C80      1.0000 0.70620  0.25330  0.62900  Biso   1.000  C
  O37      1.0000 0.69342  0.51617  0.65072  Biso   1.000  O
  O38      1.0000 0.60549  0.53761  0.72396  Biso   1.000  O
  O39      1.0000 0.69174  0.18933  0.63300  Biso   1.000  O
  O40      1.0000 0.76073  0.27714  0.60155  Biso   1.000  O
  Fe11     1.0000 0.75738  0.39260  0.14045  Biso   1.000  Fe
  C81      1.0000 0.94310  0.67310  0.23190  Biso   1.000  C
  H41      1.0000 0.98090  0.68910  0.25760  Biso   1.000  H
  C82      1.0000 0.92960  0.60280  0.22940  Biso   1.000  C
  H42      1.0000 0.95770  0.57150  0.25340  Biso   1.000  H
  C83      1.0000 0.87340  0.57900  0.19030  Biso   1.000  C
  C84      1.0000 0.83080  0.62560  0.15590  Biso   1.000  C
  H43      1.0000 0.79320  0.60950  0.13000  Biso   1.000  H
  C85      1.0000 0.84410  0.69670  0.16010  Biso   1.000  C
  C86      1.0000 0.90150  0.72020  0.19690  Biso   1.000  C
  H44      1.0000 0.91190  0.76750  0.19810  Biso   1.000  H
  C87      1.0000 0.85700  0.50290  0.18830  Biso   1.000  C
  C88      1.0000 0.79380  0.74670  0.12900  Biso   1.000  C
  O41      1.0000 0.80658  0.48383  0.15072  Biso   1.000  O
  O42      1.0000 0.89451  0.46239  0.22396  Biso   1.000  O
  O43      1.0000 0.80826  0.81067  0.13300  Biso   1.000  O
  O44      1.0000 0.73927  0.72286  0.10155  Biso   1.000  O
  Fe12     1.0000 0.24262  0.89260  0.35955  Biso   1.000  Fe
  C89      1.0000 0.05690  0.17310  0.26810  Biso   1.000  C
  H45      1.0000 0.01910  0.18910  0.24240  Biso   1.000  H
  C90      1.0000 0.07040  0.10280  0.27060  Biso   1.000  C
  H46      1.0000 0.04230  0.07150  0.24660  Biso   1.000  H
  C91      1.0000 0.12660  0.07900  0.30970  Biso   1.000  C
  C92      1.0000 0.16920  0.12560  0.34410  Biso   1.000  C
  H47      1.0000 0.20680  0.10950  0.37000  Biso   1.000  H
  C93      1.0000 0.15590  0.19670  0.33990  Biso   1.000  C
  C94      1.0000 0.09850  0.22020  0.30310  Biso   1.000  C
  H48      1.0000 0.08810  0.26750  0.30190  Biso   1.000  H
  C95      1.0000 0.14300  0.00290  0.31170  Biso   1.000  C
  C96      1.0000 0.20620  0.24670  0.37100  Biso   1.000  C
  O45      1.0000 0.19342  0.98383  0.34928  Biso   1.000  O
  O46      1.0000 0.10549  0.96239  0.27604  Biso   1.000  O
  O47      1.0000 0.19174  0.31067  0.36700  Biso   1.000  O
  O48      1.0000 0.26073  0.22286  0.39845  Biso   1.000  O
  Fe13     1.0000 0.14045  0.74262  0.89260  Biso   1.000  Fe
  C97      1.0000 0.23190  0.55690  0.17310  Biso   1.000  C
  H49      1.0000 0.25760  0.51910  0.18910  Biso   1.000  H
  C98      1.0000 0.22940  0.57040  0.10280  Biso   1.000  C
  H50      1.0000 0.25340  0.54230  0.07150  Biso   1.000  H
  C99      1.0000 0.19030  0.62660  0.07900  Biso   1.000  C
  C100     1.0000 0.15590  0.66920  0.12560  Biso   1.000  C
  H51      1.0000 0.13000  0.70680  0.10950  Biso   1.000  H
  C101     1.0000 0.16010  0.65590  0.19670  Biso   1.000  C
  C102     1.0000 0.19690  0.59850  0.22020  Biso   1.000  C
  H52      1.0000 0.19810  0.58810  0.26750  Biso   1.000  H
  C103     1.0000 0.18830  0.64300  0.00290  Biso   1.000  C
  C104     1.0000 0.12900  0.70620  0.24670  Biso   1.000  C
  O49      1.0000 0.15072  0.69342  0.98383  Biso   1.000  O
  O50      1.0000 0.22396  0.60549  0.96239  Biso   1.000  O
  O51      1.0000 0.13300  0.69174  0.31067  Biso   1.000  O
  O52      1.0000 0.10155  0.76073  0.22286  Biso   1.000  O
  Fe14     1.0000 0.35955  0.25738  0.39260  Biso   1.000  Fe
  C105     1.0000 0.26810  0.44310  0.67310  Biso   1.000  C
  H53      1.0000 0.24240  0.48090  0.68910  Biso   1.000  H
  C106     1.0000 0.27060  0.42960  0.60280  Biso   1.000  C
  H54      1.0000 0.24660  0.45770  0.57150  Biso   1.000  H
  C107     1.0000 0.30970  0.37340  0.57900  Biso   1.000  C
  C108     1.0000 0.34410  0.33080  0.62560  Biso   1.000  C
  H55      1.0000 0.37000  0.29320  0.60950  Biso   1.000  H
  C109     1.0000 0.33990  0.34410  0.69670  Biso   1.000  C
  C110     1.0000 0.30310  0.40150  0.72020  Biso   1.000  C
  H56      1.0000 0.30190  0.41190  0.76750  Biso   1.000  H
  C111     1.0000 0.31170  0.35700  0.50290  Biso   1.000  C
  C112     1.0000 0.37100  0.29380  0.74670  Biso   1.000  C
  O53      1.0000 0.34928  0.30658  0.48383  Biso   1.000  O
  O54      1.0000 0.27604  0.39451  0.46239  Biso   1.000  O
  O55      1.0000 0.36700  0.30826  0.81067  Biso   1.000  O
  O56      1.0000 0.39845  0.23927  0.72286  Biso   1.000  O
  Fe15     1.0000 0.85955  0.24262  0.60740  Biso   1.000  Fe
  C113     1.0000 0.76810  0.05690  0.32690  Biso   1.000  C
  H57      1.0000 0.74240  0.01910  0.31090  Biso   1.000  H
  C114     1.0000 0.77060  0.07040  0.39720  Biso   1.000  C
  H58      1.0000 0.74660  0.04230  0.42850  Biso   1.000  H
  C115     1.0000 0.80970  0.12660  0.42100  Biso   1.000  C
  C116     1.0000 0.84410  0.16920  0.37440  Biso   1.000  C
  H59      1.0000 0.87000  0.20680  0.39050  Biso   1.000  H
  C117     1.0000 0.83990  0.15590  0.30330  Biso   1.000  C
  C118     1.0000 0.80310  0.09850  0.27980  Biso   1.000  C
  H60      1.0000 0.80190  0.08810  0.23250  Biso   1.000  H
  C119     1.0000 0.81170  0.14300  0.49710  Biso   1.000  C
  C120     1.0000 0.87100  0.20620  0.25330  Biso   1.000  C
  O57      1.0000 0.84928  0.19342  0.51617  Biso   1.000  O
  O58      1.0000 0.77604  0.10549  0.53761  Biso   1.000  O
  O59      1.0000 0.86700  0.19174  0.18933  Biso   1.000  O
  O60      1.0000 0.89845  0.26073  0.27714  Biso   1.000  O
  Fe16     1.0000 0.64045  0.75738  0.10740  Biso   1.000  Fe
  C121     1.0000 0.73190  0.94310  0.82690  Biso   1.000  C
  H61      1.0000 0.75760  0.98090  0.81090  Biso   1.000  H
  C122     1.0000 0.72940  0.92960  0.89720  Biso   1.000  C
  H62      1.0000 0.75340  0.95770  0.92850  Biso   1.000  H
  C123     1.0000 0.69030  0.87340  0.92100  Biso   1.000  C
  C124     1.0000 0.65590  0.83080  0.87440  Biso   1.000  C
  H63      1.0000 0.63000  0.79320  0.89050  Biso   1.000  H
  C125     1.0000 0.66010  0.84410  0.80330  Biso   1.000  C
  C126     1.0000 0.69690  0.90150  0.77980  Biso   1.000  C
  H64      1.0000 0.69810  0.91190  0.73250  Biso   1.000  H
  C127     1.0000 0.68830  0.85700  0.99710  Biso   1.000  C
  C128     1.0000 0.62900  0.79380  0.75330  Biso   1.000  C
  O61      1.0000 0.65072  0.80658  0.01617  Biso   1.000  O
  O62      1.0000 0.72396  0.89451  0.03761  Biso   1.000  O
  O63      1.0000 0.63300  0.80826  0.68933  Biso   1.000  O
  O64      1.0000 0.60155  0.73927  0.77714  Biso   1.000  O
  Fe17     1.0000 0.89260  0.14045  0.74262  Biso   1.000  Fe
  C129     1.0000 0.17310  0.23190  0.55690  Biso   1.000  C
  H65      1.0000 0.18910  0.25760  0.51910  Biso   1.000  H
  C130     1.0000 0.10280  0.22940  0.57040  Biso   1.000  C
  H66      1.0000 0.07150  0.25340  0.54230  Biso   1.000  H
  C131     1.0000 0.07900  0.19030  0.62660  Biso   1.000  C
  C132     1.0000 0.12560  0.15590  0.66920  Biso   1.000  C
  H67      1.0000 0.10950  0.13000  0.70680  Biso   1.000  H
  C133     1.0000 0.19670  0.16010  0.65590  Biso   1.000  C
  C134     1.0000 0.22020  0.19690  0.59850  Biso   1.000  C
  H68      1.0000 0.26750  0.19810  0.58810  Biso   1.000  H
  C135     1.0000 0.00290  0.18830  0.64300  Biso   1.000  C
  C136     1.0000 0.24670  0.12900  0.70620  Biso   1.000  C
  O65      1.0000 0.98383  0.15072  0.69342  Biso   1.000  O
  O66      1.0000 0.96239  0.22396  0.60549  Biso   1.000  O
  O67      1.0000 0.31067  0.13300  0.69174  Biso   1.000  O
  O68      1.0000 0.22286  0.10155  0.76073  Biso   1.000  O
  Fe18     1.0000 0.39260  0.35955  0.25738  Biso   1.000  Fe
  C137     1.0000 0.67310  0.26810  0.44310  Biso   1.000  C
  H69      1.0000 0.68910  0.24240  0.48090  Biso   1.000  H
  C138     1.0000 0.60280  0.27060  0.42960  Biso   1.000  C
  H70      1.0000 0.57150  0.24660  0.45770  Biso   1.000  H
  C139     1.0000 0.57900  0.30970  0.37340  Biso   1.000  C
  C140     1.0000 0.62560  0.34410  0.33080  Biso   1.000  C
  H71      1.0000 0.60950  0.37000  0.29320  Biso   1.000  H
  C141     1.0000 0.69670  0.33990  0.34410  Biso   1.000  C
  C142     1.0000 0.72020  0.30310  0.40150  Biso   1.000  C
  H72      1.0000 0.76750  0.30190  0.41190  Biso   1.000  H
  C143     1.0000 0.50290  0.31170  0.35700  Biso   1.000  C
  C144     1.0000 0.74670  0.37100  0.29380  Biso   1.000  C
  O69      1.0000 0.48383  0.34928  0.30658  Biso   1.000  O
  O70      1.0000 0.46239  0.27604  0.39451  Biso   1.000  O
  O71      1.0000 0.81067  0.36700  0.30826  Biso   1.000  O
  O72      1.0000 0.72286  0.39845  0.23927  Biso   1.000  O
  Fe19     1.0000 0.60740  0.85955  0.24262  Biso   1.000  Fe
  C145     1.0000 0.32690  0.76810  0.05690  Biso   1.000  C
  H73      1.0000 0.31090  0.74240  0.01910  Biso   1.000  H
  C146     1.0000 0.39720  0.77060  0.07040  Biso   1.000  C
  H74      1.0000 0.42850  0.74660  0.04230  Biso   1.000  H
  C147     1.0000 0.42100  0.80970  0.12660  Biso   1.000  C
  C148     1.0000 0.37440  0.84410  0.16920  Biso   1.000  C
  H75      1.0000 0.39050  0.87000  0.20680  Biso   1.000  H
  C149     1.0000 0.30330  0.83990  0.15590  Biso   1.000  C
  C150     1.0000 0.27980  0.80310  0.09850  Biso   1.000  C
  H76      1.0000 0.23250  0.80190  0.08810  Biso   1.000  H
  C151     1.0000 0.49710  0.81170  0.14300  Biso   1.000  C
  C152     1.0000 0.25330  0.87100  0.20620  Biso   1.000  C
  O73      1.0000 0.51617  0.84928  0.19342  Biso   1.000  O
  O74      1.0000 0.53761  0.77604  0.10549  Biso   1.000  O
  O75      1.0000 0.18933  0.86700  0.19174  Biso   1.000  O
  O76      1.0000 0.27714  0.89845  0.26073  Biso   1.000  O
  Fe20     1.0000 0.10740  0.64045  0.75738  Biso   1.000  Fe
  C153     1.0000 0.82690  0.73190  0.94310  Biso   1.000  C
  H77      1.0000 0.81090  0.75760  0.98090  Biso   1.000  H
  C154     1.0000 0.89720  0.72940  0.92960  Biso   1.000  C
  H78      1.0000 0.92850  0.75340  0.95770  Biso   1.000  H
  C155     1.0000 0.92100  0.69030  0.87340  Biso   1.000  C
  C156     1.0000 0.87440  0.65590  0.83080  Biso   1.000  C
  H79      1.0000 0.89050  0.63000  0.79320  Biso   1.000  H
  C157     1.0000 0.80330  0.66010  0.84410  Biso   1.000  C
  C158     1.0000 0.77980  0.69690  0.90150  Biso   1.000  C
  H80      1.0000 0.73250  0.69810  0.91190  Biso   1.000  H
  C159     1.0000 0.99710  0.68830  0.85700  Biso   1.000  C
  C160     1.0000 0.75330  0.62900  0.79380  Biso   1.000  C
  O77      1.0000 0.01617  0.65072  0.80658  Biso   1.000  O
  O78      1.0000 0.03761  0.72396  0.89451  Biso   1.000  O
  O79      1.0000 0.68933  0.63300  0.80826  Biso   1.000  O
  O80      1.0000 0.77714  0.60155  0.73927  Biso   1.000  O
  Fe21     1.0000 0.74262  0.89260  0.14045  Biso   1.000  Fe
  C161     1.0000 0.55690  0.17310  0.23190  Biso   1.000  C
  H81      1.0000 0.51910  0.18910  0.25760  Biso   1.000  H
  C162     1.0000 0.57040  0.10280  0.22940  Biso   1.000  C
  H82      1.0000 0.54230  0.07150  0.25340  Biso   1.000  H
  C163     1.0000 0.62660  0.07900  0.19030  Biso   1.000  C
  C164     1.0000 0.66920  0.12560  0.15590  Biso   1.000  C
  H83      1.0000 0.70680  0.10950  0.13000  Biso   1.000  H
  C165     1.0000 0.65590  0.19670  0.16010  Biso   1.000  C
  C166     1.0000 0.59850  0.22020  0.19690  Biso   1.000  C
  H84      1.0000 0.58810  0.26750  0.19810  Biso   1.000  H
  C167     1.0000 0.64300  0.00290  0.18830  Biso   1.000  C
  C168     1.0000 0.70620  0.24670  0.12900  Biso   1.000  C
  O81      1.0000 0.69342  0.98383  0.15072  Biso   1.000  O
  O82      1.0000 0.60549  0.96239  0.22396  Biso   1.000  O
  O83      1.0000 0.69174  0.31067  0.13300  Biso   1.000  O
  O84      1.0000 0.76073  0.22286  0.10155  Biso   1.000  O
  Fe22     1.0000 0.25738  0.39260  0.35955  Biso   1.000  Fe
  C169     1.0000 0.44310  0.67310  0.26810  Biso   1.000  C
  H85      1.0000 0.48090  0.68910  0.24240  Biso   1.000  H
  C170     1.0000 0.42960  0.60280  0.27060  Biso   1.000  C
  H86      1.0000 0.45770  0.57150  0.24660  Biso   1.000  H
  C171     1.0000 0.37340  0.57900  0.30970  Biso   1.000  C
  C172     1.0000 0.33080  0.62560  0.34410  Biso   1.000  C
  H87      1.0000 0.29320  0.60950  0.37000  Biso   1.000  H
  C173     1.0000 0.34410  0.69670  0.33990  Biso   1.000  C
  C174     1.0000 0.40150  0.72020  0.30310  Biso   1.000  C
  H88      1.0000 0.41190  0.76750  0.30190  Biso   1.000  H
  C175     1.0000 0.35700  0.50290  0.31170  Biso   1.000  C
  C176     1.0000 0.29380  0.74670  0.37100  Biso   1.000  C
  O85      1.0000 0.30658  0.48383  0.34928  Biso   1.000  O
  O86      1.0000 0.39451  0.46239  0.27604  Biso   1.000  O
  O87      1.0000 0.30826  0.81067  0.36700  Biso   1.000  O
  O88      1.0000 0.23927  0.72286  0.39845  Biso   1.000  O
  Fe23     1.0000 0.24262  0.60740  0.85955  Biso   1.000  Fe
  C177     1.0000 0.05690  0.32690  0.76810  Biso   1.000  C
  H89      1.0000 0.01910  0.31090  0.74240  Biso   1.000  H
  C178     1.0000 0.07040  0.39720  0.77060  Biso   1.000  C
  H90      1.0000 0.04230  0.42850  0.74660  Biso   1.000  H
  C179     1.0000 0.12660  0.42100  0.80970  Biso   1.000  C
  C180     1.0000 0.16920  0.37440  0.84410  Biso   1.000  C
  H91      1.0000 0.20680  0.39050  0.87000  Biso   1.000  H
  C181     1.0000 0.15590  0.30330  0.83990  Biso   1.000  C
  C182     1.0000 0.09850  0.27980  0.80310  Biso   1.000  C
  H92      1.0000 0.08810  0.23250  0.80190  Biso   1.000  H
  C183     1.0000 0.14300  0.49710  0.81170  Biso   1.000  C
  C184     1.0000 0.20620  0.25330  0.87100  Biso   1.000  C
  O89      1.0000 0.19342  0.51617  0.84928  Biso   1.000  O
  O90      1.0000 0.10549  0.53761  0.77604  Biso   1.000  O
  O91      1.0000 0.19174  0.18933  0.86700  Biso   1.000  O
  O92      1.0000 0.26073  0.27714  0.89845  Biso   1.000  O
  Fe24     1.0000 0.75738  0.10740  0.64045  Biso   1.000  Fe
  C185     1.0000 0.94310  0.82690  0.73190  Biso   1.000  C
  H93      1.0000 0.98090  0.81090  0.75760  Biso   1.000  H
  C186     1.0000 0.92960  0.89720  0.72940  Biso   1.000  C
  H94      1.0000 0.95770  0.92850  0.75340  Biso   1.000  H
  C187     1.0000 0.87340  0.92100  0.69030  Biso   1.000  C
  C188     1.0000 0.83080  0.87440  0.65590  Biso   1.000  C
  H95      1.0000 0.79320  0.89050  0.63000  Biso   1.000  H
  C189     1.0000 0.84410  0.80330  0.66010  Biso   1.000  C
  C190     1.0000 0.90150  0.77980  0.69690  Biso   1.000  C
  H96      1.0000 0.91190  0.73250  0.69810  Biso   1.000  H
  C191     1.0000 0.85700  0.99710  0.68830  Biso   1.000  C
  C192     1.0000 0.79380  0.75330  0.62900  Biso   1.000  C
  O93      1.0000 0.80658  0.01617  0.65072  Biso   1.000  O
  O94      1.0000 0.89451  0.03761  0.72396  Biso   1.000  O
  O95      1.0000 0.80826  0.68933  0.63300  Biso   1.000  O
  O96      1.0000 0.73927  0.77714  0.60155  Biso   1.000  O
  O97      1.0000 0.83642  0.33642  0.16358  Biso   1.000  O
  O98      1.0000 0.66358  0.66358  0.66358  Biso   1.000  O
  O99      1.0000 0.16358  0.83642  0.33642  Biso   1.000  O
  O100     1.0000 0.33642  0.16358  0.83642  Biso   1.000  O
  O101     1.0000 0.16358  0.66358  0.83642  Biso   1.000  O
  O102     1.0000 0.33642  0.33642  0.33642  Biso   1.000  O
  O103     1.0000 0.83642  0.16358  0.66358  Biso   1.000  O
  O104     1.0000 0.66358  0.83642  0.16358  Biso   1.000  O
