data_image0
_cell_length_a       7.705
_cell_length_b       11.9893
_cell_length_c       12.1828
_cell_angle_alpha    112.143
_cell_angle_beta     89.979
_cell_angle_gamma    99.58

_symmetry_space_group_name_H-M    "P 1"
_symmetry_int_tables_number       1

loop_
  _symmetry_equiv_pos_as_xyz
  'x, y, z'

loop_
  _atom_site_label
  _atom_site_occupancy
  _atom_site_fract_x
  _atom_site_fract_y
  _atom_site_fract_z
  _atom_site_thermal_displace_type
  _atom_site_B_iso_or_equiv
  _atom_site_type_symbol
  Gd1      1.0000 0.99240  0.14628  0.85478  Biso   1.000  Gd
  Gd2      1.0000 0.49230  0.14571  0.75328  Biso   1.000  Gd
  C1       1.0000 0.64100  0.13700  0.01800  Biso   1.000  C
  C2       1.0000 0.77200  0.18300  0.22300  Biso   1.000  C
  H1       1.0000 0.74280  0.21360  0.30560  Biso   1.000  H
  H2       1.0000 0.85990  0.24630  0.21350  Biso   1.000  H
  C3       1.0000 0.85200  0.07400  0.20100  Biso   1.000  C
  C4       1.0000 0.64100  0.92600  0.64600  Biso   1.000  C
  C5       1.0000 0.71900  0.81200  0.59100  Biso   1.000  C
  H3       1.0000 0.63310  0.74840  0.53380  Biso   1.000  H
  H4       1.0000 0.74850  0.78360  0.65200  Biso   1.000  H
  C6       1.0000 0.75800  0.52900  0.13800  Biso   1.000  C
  H5       1.0000 0.88570  0.54970  0.15030  Biso   1.000  H
  H6       1.0000 0.71570  0.48140  0.18480  Biso   1.000  H
  C7       1.0000 0.68400  0.64200  0.17900  Biso   1.000  C
  C8       1.0000 0.85600  0.85900  0.41900  Biso   1.000  C
  C9       1.0000 0.89800  0.83800  0.52400  Biso   1.000  C
  H7       1.0000 0.97770  0.90840  0.57840  Biso   1.000  H
  H8       1.0000 0.95670  0.76760  0.50230  Biso   1.000  H
  C10      1.0000 0.70600  0.45100  0.00400  Biso   1.000  C
  H9       1.0000 0.58290  0.41200  0.99550  Biso   1.000  H
  H10      1.0000 0.71750  0.50450  0.96070  Biso   1.000  H
  C11      1.0000 0.81600  0.35600  0.95300  Biso   1.000  C
  O1       1.0000 0.77600  0.27350  0.84620  Biso   1.000  O
  O2       1.0000 0.95600  0.35200  0.00400  Biso   1.000  O
  O3       1.0000 0.75900  0.97700  0.20900  Biso   1.000  O
  O4       1.0000 0.01200  0.06600  0.17100  Biso   1.000  O
  O5       1.0000 0.54000  0.64600  0.24100  Biso   1.000  O
  O6       1.0000 0.72200  0.72500  0.14430  Biso   1.000  O
  O7       1.0000 0.50900  0.14900  0.97300  Biso   1.000  O
  O8       1.0000 0.77500  0.09900  0.97600  Biso   1.000  O
  O9       1.0000 0.98800  0.84500  0.35100  Biso   1.000  O
  O10      1.0000 0.72400  0.89000  0.39900  Biso   1.000  O
  O11      1.0000 0.73300  0.01900  0.72500  Biso   1.000  O
  O12      1.0000 0.48900  0.93000  0.62100  Biso   1.000  O
  C12      1.0000 0.60600  0.16700  0.14500  Biso   1.000  C
  H11      1.0000 0.51800  0.10170  0.15180  Biso   1.000  H
  H12      1.0000 0.55720  0.24160  0.17500  Biso   1.000  H
  Gd3      1.0000 0.00760  0.85372  0.14522  Biso   1.000  Gd
  Gd4      1.0000 0.50770  0.85429  0.24672  Biso   1.000  Gd
  C13      1.0000 0.35900  0.86300  0.98200  Biso   1.000  C
  C14      1.0000 0.22800  0.81700  0.77700  Biso   1.000  C
  H13      1.0000 0.25720  0.78640  0.69440  Biso   1.000  H
  H14      1.0000 0.14010  0.75370  0.78650  Biso   1.000  H
  C15      1.0000 0.14800  0.92600  0.79900  Biso   1.000  C
  C16      1.0000 0.35900  0.07400  0.35400  Biso   1.000  C
  C17      1.0000 0.28100  0.18800  0.40900  Biso   1.000  C
  H15      1.0000 0.36690  0.25160  0.46620  Biso   1.000  H
  H16      1.0000 0.25150  0.21640  0.34800  Biso   1.000  H
  C18      1.0000 0.24200  0.47100  0.86200  Biso   1.000  C
  H17      1.0000 0.11430  0.45030  0.84970  Biso   1.000  H
  H18      1.0000 0.28430  0.51860  0.81520  Biso   1.000  H
  C19      1.0000 0.31600  0.35800  0.82100  Biso   1.000  C
  C20      1.0000 0.14400  0.14100  0.58100  Biso   1.000  C
  C21      1.0000 0.10200  0.16200  0.47600  Biso   1.000  C
  H19      1.0000 0.02230  0.09160  0.42160  Biso   1.000  H
  H20      1.0000 0.04330  0.23240  0.49770  Biso   1.000  H
  C22      1.0000 0.29400  0.54900  0.99600  Biso   1.000  C
  H21      1.0000 0.41710  0.58800  0.00450  Biso   1.000  H
  H22      1.0000 0.28250  0.49550  0.03930  Biso   1.000  H
  C23      1.0000 0.18400  0.64400  0.04700  Biso   1.000  C
  O13      1.0000 0.22400  0.72650  0.15380  Biso   1.000  O
  O14      1.0000 0.04400  0.64800  0.99600  Biso   1.000  O
  O15      1.0000 0.24100  0.02300  0.79100  Biso   1.000  O
  O16      1.0000 0.98800  0.93400  0.82900  Biso   1.000  O
  O17      1.0000 0.46000  0.35400  0.75900  Biso   1.000  O
  O18      1.0000 0.27800  0.27500  0.85570  Biso   1.000  O
  O19      1.0000 0.49100  0.85100  0.02700  Biso   1.000  O
  O20      1.0000 0.22500  0.90100  0.02400  Biso   1.000  O
  O21      1.0000 0.01200  0.15500  0.64900  Biso   1.000  O
  O22      1.0000 0.27600  0.11000  0.60100  Biso   1.000  O
  O23      1.0000 0.26700  0.98100  0.27500  Biso   1.000  O
  O24      1.0000 0.51100  0.07000  0.37900  Biso   1.000  O
  C24      1.0000 0.39400  0.83300  0.85500  Biso   1.000  C
  H23      1.0000 0.48200  0.89830  0.84820  Biso   1.000  H
  H24      1.0000 0.44280  0.75840  0.82500  Biso   1.000  H
