data_image0
_cell_length_a       7.979
_cell_length_b       12.095
_cell_length_c       12.297
_cell_angle_alpha    111.681
_cell_angle_beta     89.932
_cell_angle_gamma    100.158

_symmetry_space_group_name_H-M    "P 1"
_symmetry_int_tables_number       1

loop_
  _symmetry_equiv_pos_as_xyz
  'x, y, z'

loop_
  _atom_site_label
  _atom_site_occupancy
  _atom_site_fract_x
  _atom_site_fract_y
  _atom_site_fract_z
  _atom_site_thermal_displace_type
  _atom_site_B_iso_or_equiv
  _atom_site_type_symbol
  C1       1.0000 0.64610  0.42430  0.14350  Biso   1.000  C
  C2       1.0000 0.71810  0.31100  0.08550  Biso   1.000  C
  H1       1.0000 0.73900  0.27760  0.14370  Biso   1.000  H
  H2       1.0000 0.63440  0.25140  0.02620  Biso   1.000  H
  C3       1.0000 0.88570  0.33370  0.02770  Biso   1.000  C
  H3       1.0000 0.96250  0.40250  0.08390  Biso   1.000  H
  H4       1.0000 0.93940  0.26360  0.00930  Biso   1.000  H
  C4       1.0000 0.86310  0.35810  0.91720  Biso   1.000  C
  C5       1.0000 0.14360  0.42350  0.30190  Biso   1.000  C
  C6       1.0000 0.21600  0.30790  0.27550  Biso   1.000  C
  C7       1.0000 0.38410  0.33030  0.34880  Biso   1.000  C
  C8       1.0000 0.36520  0.36060  0.47810  Biso   1.000  C
  C9       1.0000 0.32590  0.86530  0.32080  Biso   1.000  C
  C10      1.0000 0.24490  0.97410  0.36410  Biso   1.000  C
  H5       1.0000 0.28610  0.02710  0.32290  Biso   1.000  H
  H6       1.0000 0.12220  0.94920  0.34740  Biso   1.000  H
  C11      1.0000 0.28360  0.04220  0.49350  Biso   1.000  C
  H7       1.0000 0.40410  0.07840  0.50800  Biso   1.000  H
  H8       1.0000 0.26180  0.98520  0.53270  Biso   1.000  H
  C12      1.0000 0.18090  0.14100  0.54710  Biso   1.000  C
  La1      1.0000 0.99062  0.64541  0.35392  Biso   1.000  La
  La2      1.0000 0.49033  0.64508  0.25104  Biso   1.000  La
  O1       1.0000 0.73650  0.51570  0.21740  Biso   1.000  O
  O2       1.0000 0.49240  0.42460  0.11910  Biso   1.000  O
  O3       1.0000 0.23340  0.51540  0.29380  Biso   1.000  O
  O4       1.0000 0.99190  0.42600  0.32720  Biso   1.000  O
  O5       1.0000 0.27220  0.77960  0.35670  Biso   1.000  O
  O6       1.0000 0.44580  0.85780  0.25690  Biso   1.000  O
  O7       1.0000 0.73180  0.39350  0.90320  Biso   1.000  O
  O8       1.0000 0.98520  0.34570  0.85000  Biso   1.000  O
  O9       1.0000 0.23070  0.21960  0.64990  Biso   1.000  O
  O10      1.0000 0.05360  0.14650  0.49380  Biso   1.000  O
  O11      1.0000 0.48700  0.34910  0.53770  Biso   1.000  O
  O12      1.0000 0.23170  0.39720  0.52020  Biso   1.000  O
  C13      1.0000 0.35390  0.57570  0.85650  Biso   1.000  C
  C14      1.0000 0.28190  0.68900  0.91450  Biso   1.000  C
  H9       1.0000 0.26100  0.72240  0.85630  Biso   1.000  H
  H10      1.0000 0.36560  0.74860  0.97380  Biso   1.000  H
  C15      1.0000 0.11430  0.66630  0.97230  Biso   1.000  C
  H11      1.0000 0.03750  0.59750  0.91610  Biso   1.000  H
  H12      1.0000 0.06060  0.73640  0.99070  Biso   1.000  H
  C16      1.0000 0.13690  0.64190  0.08280  Biso   1.000  C
  C17      1.0000 0.85640  0.57650  0.69810  Biso   1.000  C
  C18      1.0000 0.78400  0.69210  0.72450  Biso   1.000  C
  C19      1.0000 0.61590  0.66970  0.65120  Biso   1.000  C
  C20      1.0000 0.63480  0.63940  0.52190  Biso   1.000  C
  C21      1.0000 0.67410  0.13470  0.67920  Biso   1.000  C
  C22      1.0000 0.75510  0.02590  0.63590  Biso   1.000  C
  H13      1.0000 0.71390  0.97290  0.67710  Biso   1.000  H
  H14      1.0000 0.87780  0.05080  0.65260  Biso   1.000  H
  C23      1.0000 0.71640  0.95780  0.50650  Biso   1.000  C
  H15      1.0000 0.59590  0.92160  0.49200  Biso   1.000  H
  H16      1.0000 0.73820  0.01480  0.46730  Biso   1.000  H
  C24      1.0000 0.81910  0.85900  0.45290  Biso   1.000  C
  La3      1.0000 0.00938  0.35459  0.64608  Biso   1.000  La
  La4      1.0000 0.50967  0.35492  0.74896  Biso   1.000  La
  O13      1.0000 0.26350  0.48430  0.78260  Biso   1.000  O
  O14      1.0000 0.50760  0.57540  0.88090  Biso   1.000  O
  O15      1.0000 0.76660  0.48460  0.70620  Biso   1.000  O
  O16      1.0000 0.00810  0.57400  0.67280  Biso   1.000  O
  O17      1.0000 0.72780  0.22040  0.64330  Biso   1.000  O
  O18      1.0000 0.55420  0.14220  0.74310  Biso   1.000  O
  O19      1.0000 0.26820  0.60650  0.09680  Biso   1.000  O
  O20      1.0000 0.01480  0.65430  0.15000  Biso   1.000  O
  O21      1.0000 0.76930  0.78040  0.35010  Biso   1.000  O
  O22      1.0000 0.94640  0.85350  0.50620  Biso   1.000  O
  O23      1.0000 0.51300  0.65090  0.46230  Biso   1.000  O
  O24      1.0000 0.76830  0.60280  0.47980  Biso   1.000  O
