data_IHIWIF_clean
_audit_creation_date              2014-07-02
_audit_creation_method            'Materials Studio'
_symmetry_space_group_name_H-M    'P1'
_symmetry_Int_Tables_number       1
_symmetry_cell_setting            triclinic
loop_
_symmetry_equiv_pos_as_xyz
  x,y,z
_cell_length_a                    10.9413
_cell_length_b                    17.5954
_cell_length_c                    18.5773
_cell_angle_alpha                 88.8500
_cell_angle_beta                  85.8130
_cell_angle_gamma                 76.5460
loop_
_atom_site_label
_atom_site_type_symbol
_atom_site_fract_x
_atom_site_fract_y
_atom_site_fract_z
_atom_site_U_iso_or_equiv
_atom_site_adp_type
_atom_site_occupancy
Ba1    Ba    0.59845   0.60756   0.50772   0.01267  Uiso   1.00
Ba2    Ba    0.44245   0.46567   0.24334   0.01267  Uiso   1.00
Ba3    Ba    0.14272   0.64815   0.03239   0.01267  Uiso   1.00
Ba4    Ba    0.20284   0.90452   0.01435   0.01267  Uiso   1.00
Ba5    Ba    0.88700   0.04048   0.73735   0.01267  Uiso   1.00
Ba6    Ba    0.79778   0.82288   0.54188   0.01267  Uiso   1.00
Ba7    Ba    0.40155   0.39244   0.49228   0.01267  Uiso   1.00
Ba8    Ba    0.55755   0.53433   0.75666   0.01267  Uiso   1.00
Ba9    Ba    0.85728   0.35185   0.96761   0.01267  Uiso   1.00
Ba10   Ba    0.79716   0.09548   0.98565   0.01267  Uiso   1.00
Ba11   Ba    0.11300   0.95952   0.26265   0.01267  Uiso   1.00
Ba12   Ba    0.20222   0.17712   0.45812   0.01267  Uiso   1.00
Cr1    Cr    0.88931   0.36475   0.63339   0.01267  Uiso   1.00
Cr2    Cr    0.60510   0.67782   0.17455   0.01267  Uiso   1.00
Cr3    Cr    0.74052   0.85518   0.87411   0.01267  Uiso   1.00
Cr4    Cr    0.25501   0.85378   0.67656   0.01267  Uiso   1.00
Cr5    Cr    0.11069   0.63525   0.36661   0.01267  Uiso   1.00
Cr6    Cr    0.39490   0.32218   0.82545   0.01267  Uiso   1.00
Cr7    Cr    0.25948   0.14482   0.12589   0.01267  Uiso   1.00
Cr8    Cr    0.74499   0.14622   0.32344   0.01267  Uiso   1.00
H1     H     0.21070   0.42420   0.35560   0.01267  Uiso   1.00
H2     H     0.29750   0.34270   0.33820   0.01267  Uiso   1.00
H3     H     0.63770   0.40460   0.36950   0.01267  Uiso   1.00
H4     H     0.59900   0.32970   0.34730   0.01267  Uiso   1.00
H5     H     0.37940   0.88060   0.15850   0.01267  Uiso   1.00
H6     H     0.35810   0.96940   0.14200   0.01267  Uiso   1.00
H7     H     0.05190   0.82980   0.15430   0.01267  Uiso   1.00
H8     H     0.95600   0.90630   0.13590   0.01267  Uiso   1.00
H9     H     0.78930   0.57580   0.64440   0.01267  Uiso   1.00
H10    H     0.70250   0.65730   0.66180   0.01267  Uiso   1.00
H11    H     0.36230   0.59540   0.63050   0.01267  Uiso   1.00
H12    H     0.40100   0.67030   0.65270   0.01267  Uiso   1.00
H13    H     0.62060   0.11940   0.84150   0.01267  Uiso   1.00
H14    H     0.64190   0.03060   0.85800   0.01267  Uiso   1.00
H15    H     0.94810   0.17020   0.84570   0.01267  Uiso   1.00
H16    H     0.04400   0.09370   0.86410   0.01267  Uiso   1.00
C1     C     0.70280   0.40850   0.53955   0.01267  Uiso   1.00
C2     C     0.70070   0.32366   0.56243   0.01267  Uiso   1.00
C3     C     0.89780   0.64948   0.45774   0.01267  Uiso   1.00
C4     C     0.90390   0.57695   0.41079   0.01267  Uiso   1.00
C5     C     0.19880   0.61866   0.22286   0.01267  Uiso   1.00
C6     C     0.08300   0.68840   0.22646   0.01267  Uiso   1.00
C7     C     0.54900   0.61416   0.30729   0.01267  Uiso   1.00
C8     C     0.61220   0.68169   0.32262   0.01267  Uiso   1.00
C9     C     0.37850   0.73256   0.11158   0.01267  Uiso   1.00
C10    C     0.45210   0.66123   0.06740   0.01267  Uiso   1.00
C11    C     0.85180   0.61827   0.12460   0.01267  Uiso   1.00
C12    C     0.81430   0.70336   0.09559   0.01267  Uiso   1.00
C13    C     0.96210   0.82150   0.94421   0.01267  Uiso   1.00
C14    C     0.88940   0.90345   0.96914   0.01267  Uiso   1.00
C15    C     0.53330   0.84736   0.96431   0.01267  Uiso   1.00
C16    C     0.49350   0.92157   0.91673   0.01267  Uiso   1.00
C17    C     0.75220   0.79695   0.73511   0.01267  Uiso   1.00
C18    C     0.81500   0.86738   0.72915   0.01267  Uiso   1.00
C19    C     0.26250   0.84599   0.82491   0.01267  Uiso   1.00
C20    C     0.14870   0.91354   0.81026   0.01267  Uiso   1.00
C21    C     0.48210   0.88622   0.62372   0.01267  Uiso   1.00
C22    C     0.48460   0.80240   0.59895   0.01267  Uiso   1.00
C23    C     0.08410   0.78276   0.62130   0.01267  Uiso   1.00
C24    C     0.09100   0.85322   0.57132   0.01267  Uiso   1.00
C25    C     0.29720   0.59150   0.46045   0.01267  Uiso   1.00
C26    C     0.29930   0.67634   0.43757   0.01267  Uiso   1.00
C27    C     0.10220   0.35052   0.54226   0.01267  Uiso   1.00
C28    C     0.09610   0.42305   0.58921   0.01267  Uiso   1.00
C29    C     0.80120   0.38134   0.77714   0.01267  Uiso   1.00
C30    C     0.91700   0.31160   0.77354   0.01267  Uiso   1.00
C31    C     0.45100   0.38584   0.69271   0.01267  Uiso   1.00
C32    C     0.38780   0.31831   0.67738   0.01267  Uiso   1.00
C33    C     0.62150   0.26744   0.88842   0.01267  Uiso   1.00
C34    C     0.54790   0.33877   0.93260   0.01267  Uiso   1.00
C35    C     0.14820   0.38173   0.87540   0.01267  Uiso   1.00
C36    C     0.18570   0.29664   0.90441   0.01267  Uiso   1.00
C37    C     0.03790   0.17850   0.05579   0.01267  Uiso   1.00
C38    C     0.11060   0.09655   0.03086   0.01267  Uiso   1.00
C39    C     0.46670   0.15264   0.03569   0.01267  Uiso   1.00
C40    C     0.50650   0.07843   0.08327   0.01267  Uiso   1.00
C41    C     0.24780   0.20305   0.26489   0.01267  Uiso   1.00
C42    C     0.18500   0.13262   0.27085   0.01267  Uiso   1.00
C43    C     0.73750   0.15401   0.17509   0.01267  Uiso   1.00
C44    C     0.85130   0.08646   0.18974   0.01267  Uiso   1.00
C45    C     0.51790   0.11378   0.37628   0.01267  Uiso   1.00
C46    C     0.51540   0.19760   0.40105   0.01267  Uiso   1.00
C47    C     0.91590   0.21724   0.37870   0.01267  Uiso   1.00
C48    C     0.90900   0.14678   0.42868   0.01267  Uiso   1.00
O1     O     0.78930   0.43577   0.56534   0.01267  Uiso   1.00
O2     O     0.62260   0.44515   0.50088   0.01267  Uiso   1.00
O3     O     0.77790   0.29645   0.61098   0.01267  Uiso   1.00
O4     O     0.62920   0.29000   0.53590   0.01267  Uiso   1.00
O5     O     0.98360   0.68639   0.44187   0.01267  Uiso   1.00
O6     O     0.81270   0.66846   0.50565   0.01267  Uiso   1.00
O7     O     0.99520   0.56373   0.36194   0.01267  Uiso   1.00
O8     O     0.82340   0.53888   0.42198   0.01267  Uiso   1.00
O9     O     0.22440   0.58572   0.28470   0.01267  Uiso   1.00
O10    O     0.26090   0.59876   0.16607   0.01267  Uiso   1.00
O11    O     0.03160   0.70482   0.29060   0.01267  Uiso   1.00
O12    O     0.04950   0.72211   0.17053   0.01267  Uiso   1.00
O13    O     0.52670   0.60905   0.24078   0.01267  Uiso   1.00
O14    O     0.52380   0.57077   0.35635   0.01267  Uiso   1.00
O15    O     0.63560   0.72101   0.26699   0.01267  Uiso   1.00
O16    O     0.63560   0.69297   0.38471   0.01267  Uiso   1.00
O17    O     0.43790   0.75092   0.16395   0.01267  Uiso   1.00
O18    O     0.27310   0.76627   0.09540   0.01267  Uiso   1.00
O19    O     0.56230   0.63112   0.08827   0.01267  Uiso   1.00
O20    O     0.40270   0.63780   0.01821   0.01267  Uiso   1.00
O21    O     0.76770   0.59910   0.16859   0.01267  Uiso   1.00
O22    O     0.95460   0.57588   0.10474   0.01267  Uiso   1.00
O23    O     0.70320   0.74097   0.11871   0.01267  Uiso   1.00
O24    O     0.88820   0.72850   0.05440   0.01267  Uiso   1.00
O25    O     0.90670   0.78986   0.89864   0.01267  Uiso   1.00
O26    O     0.06510   0.79382   0.96783   0.01267  Uiso   1.00
O27    O     0.78375   0.92904   0.94070   0.01267  Uiso   1.00
O28    O     0.93340   0.94067   0.01112   0.01267  Uiso   1.00
O29    O     0.64710   0.80825   0.94921   0.01267  Uiso   1.00
O30    O     0.45880   0.83109   0.01082   0.01267  Uiso   1.00
O31    O     0.57720   0.92966   0.86665   0.01267  Uiso   1.00
O32    O     0.38940   0.96560   0.92914   0.01267  Uiso   1.00
O33    O     0.82020   0.90058   0.78973   0.01267  Uiso   1.00
O34    O     0.85510   0.88886   0.67061   0.01267  Uiso   1.00
O35    O     0.71320   0.78277   0.80009   0.01267  Uiso   1.00
O36    O     0.74160   0.76213   0.68067   0.01267  Uiso   1.00
O37    O     0.32280   0.81270   0.76771   0.01267  Uiso   1.00
O38    O     0.28900   0.82664   0.88644   0.01267  Uiso   1.00
O39    O     0.13420   0.92758   0.74209   0.01267  Uiso   1.00
O40    O     0.08150   0.94784   0.85997   0.01267  Uiso   1.00
O41    O     0.37880   0.91954   0.66013   0.01267  Uiso   1.00
O42    O     0.57340   0.91435   0.60989   0.01267  Uiso   1.00
O43    O     0.38670   0.77798   0.62146   0.01267  Uiso   1.00
O44    O     0.57480   0.76425   0.56205   0.01267  Uiso   1.00
O45    O     0.14720   0.77839   0.67744   0.01267  Uiso   1.00
O46    O     0.02240   0.73668   0.60508   0.01267  Uiso   1.00
O47    O     0.16870   0.89299   0.58955   0.01267  Uiso   1.00
O48    O     0.02480   0.86672   0.52003   0.01267  Uiso   1.00
O49    O     0.29640   0.39491   0.35219   0.01267  Uiso   1.00
O50    O     0.56730   0.38341   0.36036   0.01267  Uiso   1.00
O51    O     0.31780   0.92668   0.14727   0.01267  Uiso   1.00
O52    O     0.04250   0.88426   0.14401   0.01267  Uiso   1.00
O53    O     0.21070   0.56423   0.43466   0.01267  Uiso   1.00
O54    O     0.37740   0.55485   0.49912   0.01267  Uiso   1.00
O55    O     0.22210   0.70355   0.38902   0.01267  Uiso   1.00
O56    O     0.37080   0.71000   0.46410   0.01267  Uiso   1.00
O57    O     0.01640   0.31361   0.55813   0.01267  Uiso   1.00
O58    O     0.18730   0.33154   0.49435   0.01267  Uiso   1.00
O59    O     0.00480   0.43627   0.63806   0.01267  Uiso   1.00
O60    O     0.17660   0.46112   0.57802   0.01267  Uiso   1.00
O61    O     0.77560   0.41428   0.71530   0.01267  Uiso   1.00
O62    O     0.73910   0.40124   0.83393   0.01267  Uiso   1.00
O63    O     0.96840   0.29518   0.70940   0.01267  Uiso   1.00
O64    O     0.95050   0.27789   0.82947   0.01267  Uiso   1.00
O65    O     0.47330   0.39095   0.75922   0.01267  Uiso   1.00
O66    O     0.47620   0.42923   0.64365   0.01267  Uiso   1.00
O67    O     0.36440   0.27899   0.73301   0.01267  Uiso   1.00
O68    O     0.36440   0.30703   0.61529   0.01267  Uiso   1.00
O69    O     0.56210   0.24908   0.83605   0.01267  Uiso   1.00
O70    O     0.72690   0.23373   0.90460   0.01267  Uiso   1.00
O71    O     0.43770   0.36888   0.91173   0.01267  Uiso   1.00
O72    O     0.59730   0.36220   0.98179   0.01267  Uiso   1.00
O73    O     0.23230   0.40090   0.83141   0.01267  Uiso   1.00
O74    O     0.04540   0.42412   0.89526   0.01267  Uiso   1.00
O75    O     0.29680   0.25903   0.88129   0.01267  Uiso   1.00
O76    O     0.11180   0.27150   0.94560   0.01267  Uiso   1.00
O77    O     0.09330   0.21014   0.10136   0.01267  Uiso   1.00
O78    O     0.93490   0.20618   0.03217   0.01267  Uiso   1.00
O79    O     0.21625   0.07096   0.05930   0.01267  Uiso   1.00
O80    O     0.06660   0.05933   0.98888   0.01267  Uiso   1.00
O81    O     0.35290   0.19175   0.05079   0.01267  Uiso   1.00
O82    O     0.54120   0.16891   0.98918   0.01267  Uiso   1.00
O83    O     0.42280   0.07034   0.13335   0.01267  Uiso   1.00
O84    O     0.61060   0.03440   0.07086   0.01267  Uiso   1.00
O85    O     0.17980   0.09942   0.21027   0.01267  Uiso   1.00
O86    O     0.14490   0.11114   0.32939   0.01267  Uiso   1.00
O87    O     0.28680   0.21723   0.19991   0.01267  Uiso   1.00
O88    O     0.25840   0.23787   0.31933   0.01267  Uiso   1.00
O89    O     0.67720   0.18730   0.23229   0.01267  Uiso   1.00
O90    O     0.71100   0.17336   0.11356   0.01267  Uiso   1.00
O91    O     0.86580   0.07242   0.25791   0.01267  Uiso   1.00
O92    O     0.91850   0.05216   0.14003   0.01267  Uiso   1.00
O93    O     0.62120   0.08046   0.33987   0.01267  Uiso   1.00
O94    O     0.42660   0.08565   0.39011   0.01267  Uiso   1.00
O95    O     0.61330   0.22202   0.37854   0.01267  Uiso   1.00
O96    O     0.42520   0.23575   0.43795   0.01267  Uiso   1.00
O97    O     0.85280   0.22161   0.32256   0.01267  Uiso   1.00
O98    O     0.97760   0.26332   0.39492   0.01267  Uiso   1.00
O99    O     0.83130   0.10701   0.41045   0.01267  Uiso   1.00
O100   O     0.97520   0.13328   0.47997   0.01267  Uiso   1.00
O101   O     0.70360   0.60509   0.64781   0.01267  Uiso   1.00
O102   O     0.43270   0.61659   0.63964   0.01267  Uiso   1.00
O103   O     0.68220   0.07332   0.85273   0.01267  Uiso   1.00
O104   O     0.95750   0.11574   0.85599   0.01267  Uiso   1.00
