data_IJANAJ_clean
_audit_creation_date              2014-07-02
_audit_creation_method            'Materials Studio'
_symmetry_space_group_name_H-M    'P1'
_symmetry_Int_Tables_number       1
_symmetry_cell_setting            triclinic
loop_
_symmetry_equiv_pos_as_xyz
  x,y,z
_cell_length_a                    9.3490
_cell_length_b                    10.4410
_cell_length_c                    12.1770
_cell_angle_alpha                 109.9560
_cell_angle_beta                  103.3880
_cell_angle_gamma                 90.2750
loop_
_atom_site_label
_atom_site_type_symbol
_atom_site_fract_x
_atom_site_fract_y
_atom_site_fract_z
_atom_site_U_iso_or_equiv
_atom_site_adp_type
_atom_site_occupancy
Zn1    Zn    0.26055   0.07308   0.48656   0.01267  Uiso   1.00
Zn2    Zn    0.73945   0.92692   0.51344   0.01267  Uiso   1.00
Zn3    Zn    0.50000   0.50000   0.50000   0.01267  Uiso   1.00
H1     H     0.44450   0.08270   0.17320   0.01267  Uiso   1.00
H2     H     0.60920   0.06770   0.05490   0.01267  Uiso   1.00
H3     H     0.85960   0.11780   0.14200   0.01267  Uiso   1.00
H4     H     0.11000   0.17650   0.67600   0.01267  Uiso   1.00
H5     H     0.15380   0.27440   0.88210   0.01267  Uiso   1.00
H6     H     0.58760   0.28720   0.90150   0.01267  Uiso   1.00
H7     H     0.53260   0.19120   0.69530   0.01267  Uiso   1.00
H8     H     0.19870   0.31700   0.06440   0.01267  Uiso   1.00
H9     H     0.24910   0.39120   0.26900   0.01267  Uiso   1.00
H10    H     0.66220   0.48390   0.29690   0.01267  Uiso   1.00
H11    H     0.62370   0.40410   0.09150   0.01267  Uiso   1.00
H12    H     0.55550   0.91730   0.82680   0.01267  Uiso   1.00
H13    H     0.39080   0.93230   0.94510   0.01267  Uiso   1.00
H14    H     0.14040   0.88220   0.85800   0.01267  Uiso   1.00
H15    H     0.89000   0.82350   0.32400   0.01267  Uiso   1.00
H16    H     0.84620   0.72560   0.11790   0.01267  Uiso   1.00
H17    H     0.41240   0.71280   0.09850   0.01267  Uiso   1.00
H18    H     0.46740   0.80880   0.30470   0.01267  Uiso   1.00
H19    H     0.80130   0.68300   0.93560   0.01267  Uiso   1.00
H20    H     0.75090   0.60880   0.73100   0.01267  Uiso   1.00
H21    H     0.33780   0.51610   0.70310   0.01267  Uiso   1.00
H22    H     0.37630   0.59590   0.90850   0.01267  Uiso   1.00
C1     C     0.84695   0.15978   0.31503   0.01267  Uiso   1.00
C2     C     0.74840   0.17321   0.38808   0.01267  Uiso   1.00
C3     C     0.59679   0.14923   0.33424   0.01267  Uiso   1.00
C4     C     0.54498   0.10495   0.20894   0.01267  Uiso   1.00
C5     C     0.64398   0.09435   0.13816   0.01267  Uiso   1.00
C6     C     0.79405   0.12297   0.19006   0.01267  Uiso   1.00
C7     C     0.01164   0.17676   0.36615   0.01267  Uiso   1.00
C8     C     0.80479   0.21360   0.52320   0.01267  Uiso   1.00
C9     C     0.48786   0.17313   0.41128   0.01267  Uiso   1.00
C10    C     0.20700   0.19860   0.72206   0.01267  Uiso   1.00
C11    C     0.23270   0.25750   0.84622   0.01267  Uiso   1.00
C12    C     0.37729   0.29137   0.91741   0.01267  Uiso   1.00
C13    C     0.48950   0.26535   0.85783   0.01267  Uiso   1.00
C14    C     0.45572   0.20698   0.73361   0.01267  Uiso   1.00
C15    C     0.40738   0.34913   0.05144   0.01267  Uiso   1.00
C16    C     0.29490   0.34860   0.10963   0.01267  Uiso   1.00
C17    C     0.32610   0.39450   0.23326   0.01267  Uiso   1.00
C18    C     0.56790   0.44782   0.24977   0.01267  Uiso   1.00
C19    C     0.54490   0.40068   0.12524   0.01267  Uiso   1.00
C20    C     0.15305   0.84022   0.68497   0.01267  Uiso   1.00
C21    C     0.25160   0.82679   0.61192   0.01267  Uiso   1.00
C22    C     0.40321   0.85077   0.66576   0.01267  Uiso   1.00
C23    C     0.45502   0.89505   0.79106   0.01267  Uiso   1.00
C24    C     0.35602   0.90565   0.86184   0.01267  Uiso   1.00
C25    C     0.20595   0.87703   0.80994   0.01267  Uiso   1.00
C26    C     0.98836   0.82324   0.63385   0.01267  Uiso   1.00
C27    C     0.19521   0.78640   0.47680   0.01267  Uiso   1.00
C28    C     0.51214   0.82687   0.58872   0.01267  Uiso   1.00
C29    C     0.79300   0.80140   0.27794   0.01267  Uiso   1.00
C30    C     0.76730   0.74250   0.15378   0.01267  Uiso   1.00
C31    C     0.62271   0.70863   0.08259   0.01267  Uiso   1.00
C32    C     0.51050   0.73465   0.14217   0.01267  Uiso   1.00
C33    C     0.54428   0.79302   0.26639   0.01267  Uiso   1.00
C34    C     0.59262   0.65087   0.94856   0.01267  Uiso   1.00
C35    C     0.70510   0.65140   0.89037   0.01267  Uiso   1.00
C36    C     0.67390   0.60550   0.76674   0.01267  Uiso   1.00
C37    C     0.43210   0.55218   0.75023   0.01267  Uiso   1.00
C38    C     0.45510   0.59932   0.87476   0.01267  Uiso   1.00
N1     N     0.31648   0.17215   0.66585   0.01267  Uiso   1.00
N2     N     0.46049   0.44390   0.30562   0.01267  Uiso   1.00
N3     N     0.68352   0.82785   0.33415   0.01267  Uiso   1.00
N4     N     0.53951   0.55610   0.69438   0.01267  Uiso   1.00
O1     O     0.05698   0.11285   0.43758   0.01267  Uiso   1.00
O2     O     0.09017   0.24499   0.33352   0.01267  Uiso   1.00
O3     O     0.87232   0.32819   0.58156   0.01267  Uiso   1.00
O4     O     0.77689   0.12910   0.57069   0.01267  Uiso   1.00
O5     O     0.48617   0.28799   0.48733   0.01267  Uiso   1.00
O6     O     0.40121   0.06933   0.39190   0.01267  Uiso   1.00
O7     O     0.94302   0.88715   0.56242   0.01267  Uiso   1.00
O8     O     0.90983   0.75501   0.66648   0.01267  Uiso   1.00
O9     O     0.12768   0.67181   0.41844   0.01267  Uiso   1.00
O10    O     0.22311   0.87090   0.42931   0.01267  Uiso   1.00
O11    O     0.51383   0.71201   0.51267   0.01267  Uiso   1.00
O12    O     0.59879   0.93067   0.60810   0.01267  Uiso   1.00
