data_IJANEN_clean
_audit_creation_date              2014-07-02
_audit_creation_method            'Materials Studio'
_symmetry_space_group_name_H-M    'P1'
_symmetry_Int_Tables_number       1
_symmetry_cell_setting            triclinic
loop_
_symmetry_equiv_pos_as_xyz
  x,y,z
_cell_length_a                    9.4720
_cell_length_b                    11.4977
_cell_length_c                    22.5039
_cell_angle_alpha                 78.4172
_cell_angle_beta                  77.8511
_cell_angle_gamma                 65.6753
loop_
_atom_site_label
_atom_site_type_symbol
_atom_site_fract_x
_atom_site_fract_y
_atom_site_fract_z
_atom_site_U_iso_or_equiv
_atom_site_adp_type
_atom_site_occupancy
Zn1    Zn    0.06707   0.83729   0.73863   0.01267  Uiso   1.00
Zn2    Zn    0.64299   0.66271   0.76137   0.01267  Uiso   1.00
Zn3    Zn    0.93293   0.16271   0.26137   0.01267  Uiso   1.00
Zn4    Zn    0.35701   0.33729   0.23863   0.01267  Uiso   1.00
Zn5    Zn    0.08435   0.25000   0.75000   0.01267  Uiso   1.00
Zn6    Zn    0.91565   0.75000   0.25000   0.01267  Uiso   1.00
H1     H     0.74670   0.05310   0.57090   0.01267  Uiso   1.00
H2     H     0.54080   0.06670   0.52570   0.01267  Uiso   1.00
H3     H     0.33740   0.01850   0.58510   0.01267  Uiso   1.00
H4     H     0.74860   0.16710   0.16790   0.01267  Uiso   1.00
H5     H     0.77110   0.17290   0.06350   0.01267  Uiso   1.00
H6     H     0.20290   0.16570   0.04910   0.01267  Uiso   1.00
H7     H     0.16710   0.16240   0.15300   0.01267  Uiso   1.00
H8     H     0.78280   0.27680   0.96480   0.01267  Uiso   1.00
H9     H     0.82170   0.29790   0.86030   0.01267  Uiso   1.00
H10    H     0.26800   0.10340   0.85700   0.01267  Uiso   1.00
H11    H     0.24340   0.07950   0.96070   0.01267  Uiso   1.00
H12    H     0.37070   0.44690   0.92910   0.01267  Uiso   1.00
H13    H     0.13320   0.43330   0.97430   0.01267  Uiso   1.00
H14    H     0.94100   0.48150   0.91490   0.01267  Uiso   1.00
H15    H     0.08360   0.33290   0.33210   0.01267  Uiso   1.00
H16    H     0.00750   0.32710   0.43650   0.01267  Uiso   1.00
H17    H     0.41770   0.33430   0.45090   0.01267  Uiso   1.00
H18    H     0.48250   0.33760   0.34700   0.01267  Uiso   1.00
H19    H     0.02440   0.22320   0.53520   0.01267  Uiso   1.00
H20    H     0.97990   0.20210   0.63970   0.01267  Uiso   1.00
H21    H     0.22840   0.39660   0.64300   0.01267  Uiso   1.00
H22    H     0.28360   0.42050   0.53930   0.01267  Uiso   1.00
H23    H     0.25330   0.94690   0.42910   0.01267  Uiso   1.00
H24    H     0.45920   0.93330   0.47430   0.01267  Uiso   1.00
H25    H     0.66260   0.98150   0.41490   0.01267  Uiso   1.00
H26    H     0.25140   0.83290   0.83210   0.01267  Uiso   1.00
H27    H     0.22890   0.82710   0.93650   0.01267  Uiso   1.00
H28    H     0.79710   0.83430   0.95090   0.01267  Uiso   1.00
H29    H     0.83290   0.83760   0.84700   0.01267  Uiso   1.00
H30    H     0.21720   0.72320   0.03520   0.01267  Uiso   1.00
H31    H     0.17830   0.70210   0.13970   0.01267  Uiso   1.00
H32    H     0.73200   0.89660   0.14300   0.01267  Uiso   1.00
H33    H     0.75660   0.92050   0.03930   0.01267  Uiso   1.00
H34    H     0.62930   0.55310   0.07090   0.01267  Uiso   1.00
H35    H     0.86680   0.56670   0.02570   0.01267  Uiso   1.00
H36    H     0.05900   0.51850   0.08510   0.01267  Uiso   1.00
H37    H     0.91640   0.66710   0.66790   0.01267  Uiso   1.00
H38    H     0.99250   0.67290   0.56350   0.01267  Uiso   1.00
H39    H     0.58230   0.66570   0.54910   0.01267  Uiso   1.00
H40    H     0.51750   0.66240   0.65300   0.01267  Uiso   1.00
H41    H     0.97560   0.77680   0.46480   0.01267  Uiso   1.00
H42    H     0.02010   0.79790   0.36030   0.01267  Uiso   1.00
H43    H     0.77160   0.60340   0.35700   0.01267  Uiso   1.00
H44    H     0.71640   0.57950   0.46070   0.01267  Uiso   1.00
C1     C     0.66352   0.03525   0.59489   0.01267  Uiso   1.00
C2     C     0.54022   0.04356   0.56772   0.01267  Uiso   1.00
C3     C     0.41737   0.01731   0.60343   0.01267  Uiso   1.00
C4     C     0.41174   0.98887   0.66687   0.01267  Uiso   1.00
C5     C     0.53592   0.97815   0.69447   0.01267  Uiso   1.00
C6     C     0.66323   0.00069   0.65741   0.01267  Uiso   1.00
C7     C     0.80573   0.98147   0.68239   0.01267  Uiso   1.00
C8     C     0.53238   0.94479   0.76251   0.01267  Uiso   1.00
C9     C     0.26795   0.97356   0.70452   0.01267  Uiso   1.00
C10    C     0.84105   0.16690   0.14344   0.01267  Uiso   1.00
C11    C     0.85386   0.17024   0.08056   0.01267  Uiso   1.00
C12    C     0.99035   0.16954   0.04366   0.01267  Uiso   1.00
C13    C     0.10892   0.16617   0.07229   0.01267  Uiso   1.00
C14    C     0.08705   0.16376   0.13464   0.01267  Uiso   1.00
C15    C     0.01015   0.17611   0.97625   0.01267  Uiso   1.00
C16    C     0.88351   0.24155   0.94389   0.01267  Uiso   1.00
C17    C     0.90793   0.25389   0.88097   0.01267  Uiso   1.00
C18    C     0.16893   0.14065   0.87889   0.01267  Uiso   1.00
C19    C     0.15484   0.12497   0.94149   0.01267  Uiso   1.00
C20    C     0.29366   0.46475   0.90511   0.01267  Uiso   1.00
C21    C     0.15150   0.45644   0.93228   0.01267  Uiso   1.00
C22    C     0.03811   0.48269   0.89657   0.01267  Uiso   1.00
C23    C     0.06748   0.51113   0.83313   0.01267  Uiso   1.00
C24    C     0.20854   0.52185   0.80553   0.01267  Uiso   1.00
C25    C     0.32133   0.49931   0.84259   0.01267  Uiso   1.00
C26    C     0.46959   0.51853   0.81761   0.01267  Uiso   1.00
C27    C     0.23968   0.55521   0.73749   0.01267  Uiso   1.00
C28    C     0.94603   0.52644   0.79548   0.01267  Uiso   1.00
C29    C     0.15139   0.33310   0.35656   0.01267  Uiso   1.00
C30    C     0.10466   0.32976   0.41944   0.01267  Uiso   1.00
C31    C     0.20355   0.33046   0.45634   0.01267  Uiso   1.00
C32    C     0.34738   0.33383   0.42771   0.01267  Uiso   1.00
C33    C     0.38545   0.33624   0.36536   0.01267  Uiso   1.00
C34    C     0.16251   0.32389   0.52375   0.01267  Uiso   1.00
C35    C     0.06895   0.25845   0.55611   0.01267  Uiso   1.00
C36    C     0.04279   0.24611   0.61903   0.01267  Uiso   1.00
C37    C     0.18847   0.35935   0.62111   0.01267  Uiso   1.00
C38    C     0.22130   0.37503   0.55851   0.01267  Uiso   1.00
C39    C     0.33648   0.96475   0.40511   0.01267  Uiso   1.00
C40    C     0.45978   0.95644   0.43228   0.01267  Uiso   1.00
C41    C     0.58263   0.98269   0.39657   0.01267  Uiso   1.00
C42    C     0.58826   0.01113   0.33313   0.01267  Uiso   1.00
C43    C     0.46408   0.02185   0.30553   0.01267  Uiso   1.00
C44    C     0.33677   0.99931   0.34259   0.01267  Uiso   1.00
C45    C     0.19427   0.01853   0.31761   0.01267  Uiso   1.00
C46    C     0.46762   0.05521   0.23749   0.01267  Uiso   1.00
C47    C     0.73205   0.02644   0.29548   0.01267  Uiso   1.00
C48    C     0.15895   0.83310   0.85656   0.01267  Uiso   1.00
C49    C     0.14614   0.82976   0.91944   0.01267  Uiso   1.00
C50    C     0.00965   0.83046   0.95634   0.01267  Uiso   1.00
C51    C     0.89108   0.83383   0.92771   0.01267  Uiso   1.00
C52    C     0.91295   0.83624   0.86536   0.01267  Uiso   1.00
C53    C     0.98985   0.82389   0.02375   0.01267  Uiso   1.00
C54    C     0.11649   0.75845   0.05611   0.01267  Uiso   1.00
C55    C     0.09207   0.74611   0.11903   0.01267  Uiso   1.00
C56    C     0.83107   0.85935   0.12111   0.01267  Uiso   1.00
C57    C     0.84516   0.87503   0.05851   0.01267  Uiso   1.00
C58    C     0.70634   0.53525   0.09489   0.01267  Uiso   1.00
C59    C     0.84850   0.54356   0.06772   0.01267  Uiso   1.00
C60    C     0.96189   0.51731   0.10343   0.01267  Uiso   1.00
C61    C     0.93252   0.48887   0.16687   0.01267  Uiso   1.00
C62    C     0.79146   0.47815   0.19447   0.01267  Uiso   1.00
C63    C     0.67867   0.50069   0.15741   0.01267  Uiso   1.00
C64    C     0.53041   0.48147   0.18239   0.01267  Uiso   1.00
C65    C     0.76032   0.44479   0.26251   0.01267  Uiso   1.00
C66    C     0.05397   0.47356   0.20452   0.01267  Uiso   1.00
C67    C     0.84861   0.66690   0.64344   0.01267  Uiso   1.00
C68    C     0.89534   0.67024   0.58056   0.01267  Uiso   1.00
C69    C     0.79645   0.66954   0.54366   0.01267  Uiso   1.00
C70    C     0.65262   0.66617   0.57229   0.01267  Uiso   1.00
C71    C     0.61455   0.66376   0.63464   0.01267  Uiso   1.00
C72    C     0.83749   0.67611   0.47625   0.01267  Uiso   1.00
C73    C     0.93105   0.74155   0.44389   0.01267  Uiso   1.00
C74    C     0.95721   0.75389   0.38097   0.01267  Uiso   1.00
C75    C     0.81153   0.64065   0.37889   0.01267  Uiso   1.00
C76    C     0.77870   0.62497   0.44149   0.01267  Uiso   1.00
N1     N     0.95492   0.16340   0.16998   0.01267  Uiso   1.00
N2     N     0.04994   0.20561   0.84765   0.01267  Uiso   1.00
N3     N     0.28830   0.33660   0.33002   0.01267  Uiso   1.00
N4     N     0.10320   0.29439   0.65235   0.01267  Uiso   1.00
N5     N     0.04508   0.83660   0.83002   0.01267  Uiso   1.00
N6     N     0.95006   0.79439   0.15235   0.01267  Uiso   1.00
N7     N     0.71170   0.66340   0.66998   0.01267  Uiso   1.00
N8     N     0.89680   0.70561   0.34765   0.01267  Uiso   1.00
O1     O     0.85174   0.88968   0.72312   0.01267  Uiso   1.00
O2     O     0.83943   0.08673   0.67421   0.01267  Uiso   1.00
O3     O     0.52172   0.02924   0.79278   0.01267  Uiso   1.00
O4     O     0.53182   0.83692   0.78724   0.01267  Uiso   1.00
O5     O     0.23589   0.88546   0.69200   0.01267  Uiso   1.00
O6     O     0.18859   0.04439   0.74423   0.01267  Uiso   1.00
O7     O     0.46454   0.61032   0.77688   0.01267  Uiso   1.00
O8     O     0.60037   0.41327   0.82579   0.01267  Uiso   1.00
O9     O     0.34374   0.47076   0.70722   0.01267  Uiso   1.00
O10    O     0.15598   0.66308   0.71276   0.01267  Uiso   1.00
O11    O     0.81335   0.61454   0.80800   0.01267  Uiso   1.00
O12    O     0.97721   0.45561   0.75577   0.01267  Uiso   1.00
O13    O     0.14826   0.11032   0.27688   0.01267  Uiso   1.00
O14    O     0.16057   0.91327   0.32579   0.01267  Uiso   1.00
O15    O     0.47828   0.97076   0.20722   0.01267  Uiso   1.00
O16    O     0.46818   0.16308   0.21276   0.01267  Uiso   1.00
O17    O     0.76411   0.11454   0.30800   0.01267  Uiso   1.00
O18    O     0.81141   0.95561   0.25577   0.01267  Uiso   1.00
O19    O     0.53546   0.38968   0.22312   0.01267  Uiso   1.00
O20    O     0.39963   0.58673   0.17421   0.01267  Uiso   1.00
O21    O     0.65626   0.52924   0.29278   0.01267  Uiso   1.00
O22    O     0.84402   0.33692   0.28724   0.01267  Uiso   1.00
O23    O     0.18665   0.38546   0.19200   0.01267  Uiso   1.00
O24    O     0.02279   0.54439   0.24423   0.01267  Uiso   1.00
