data_IJASES01_clean
_audit_creation_date              2014-07-02
_audit_creation_method            'Materials Studio'
_symmetry_space_group_name_H-M    'P1'
_symmetry_Int_Tables_number       1
_symmetry_cell_setting            triclinic
loop_
_symmetry_equiv_pos_as_xyz
  x,y,z
_cell_length_a                    8.6514
_cell_length_b                    10.1531
_cell_length_c                    11.1703
_cell_angle_alpha                 65.4370
_cell_angle_beta                  71.6660
_cell_angle_gamma                 78.4210
loop_
_atom_site_label
_atom_site_type_symbol
_atom_site_fract_x
_atom_site_fract_y
_atom_site_fract_z
_atom_site_U_iso_or_equiv
_atom_site_adp_type
_atom_site_occupancy
Tm1    Tm    0.13211   0.44027   0.65278   0.01267  Uiso   1.00
Tm2    Tm    0.86789   0.55973   0.34722   0.01267  Uiso   1.00
H1     H     0.63360   0.11180   0.77310   0.01267  Uiso   1.00
H2     H     0.23030   0.07020   0.08110   0.01267  Uiso   1.00
H3     H     0.54390   0.35450   0.87690   0.01267  Uiso   1.00
H4     H     0.71320   0.61830   0.98470   0.01267  Uiso   1.00
H5     H     0.92590   0.78210   0.68010   0.01267  Uiso   1.00
H6     H     0.02070   0.02710   0.27950   0.01267  Uiso   1.00
H7     H     0.36640   0.88820   0.22690   0.01267  Uiso   1.00
H8     H     0.76970   0.92980   0.91890   0.01267  Uiso   1.00
H9     H     0.45610   0.64550   0.12310   0.01267  Uiso   1.00
H10    H     0.28680   0.38170   0.01530   0.01267  Uiso   1.00
H11    H     0.07410   0.21790   0.31990   0.01267  Uiso   1.00
H12    H     0.97930   0.97290   0.72050   0.01267  Uiso   1.00
C1     C     0.32580   0.23140   0.82090   0.01267  Uiso   1.00
C2     C     0.41810   0.11180   0.91100   0.01267  Uiso   1.00
C3     C     0.57930   0.06740   0.86440   0.01267  Uiso   1.00
C4     C     0.33930   0.04220   0.04810   0.01267  Uiso   1.00
C5     C     0.82020   0.46150   0.83090   0.01267  Uiso   1.00
C6     C     0.65420   0.48290   0.91740   0.01267  Uiso   1.00
C7     C     0.52610   0.41290   0.92660   0.01267  Uiso   1.00
C8     C     0.62790   0.57080   0.99090   0.01267  Uiso   1.00
C9     C     0.92990   0.76610   0.44760   0.01267  Uiso   1.00
C10    C     0.96610   0.88600   0.47640   0.01267  Uiso   1.00
C11    C     0.95510   0.86920   0.60800   0.01267  Uiso   1.00
C12    C     0.01200   0.01650   0.36810   0.01267  Uiso   1.00
C13    C     0.67420   0.76860   0.17910   0.01267  Uiso   1.00
C14    C     0.58190   0.88820   0.08900   0.01267  Uiso   1.00
C15    C     0.42070   0.93260   0.13560   0.01267  Uiso   1.00
C16    C     0.66070   0.95780   0.95190   0.01267  Uiso   1.00
C17    C     0.17980   0.53850   0.16910   0.01267  Uiso   1.00
C18    C     0.34580   0.51710   0.08260   0.01267  Uiso   1.00
C19    C     0.47390   0.58710   0.07340   0.01267  Uiso   1.00
C20    C     0.37210   0.42920   0.00910   0.01267  Uiso   1.00
C21    C     0.07010   0.23390   0.55240   0.01267  Uiso   1.00
C22    C     0.03390   0.11400   0.52360   0.01267  Uiso   1.00
C23    C     0.04490   0.13080   0.39200   0.01267  Uiso   1.00
C24    C     0.98800   0.98350   0.63190   0.01267  Uiso   1.00
O1     O     0.39780   0.29890   0.69610   0.01267  Uiso   1.00
O2     O     0.17870   0.26560   0.86850   0.01267  Uiso   1.00
O3     O     0.84330   0.38130   0.76370   0.01267  Uiso   1.00
O4     O     0.93550   0.52360   0.82510   0.01267  Uiso   1.00
O5     O     0.96230   0.63430   0.51890   0.01267  Uiso   1.00
O6     O     0.86800   0.79940   0.35000   0.01267  Uiso   1.00
O7     O     0.60220   0.70110   0.30390   0.01267  Uiso   1.00
O8     O     0.82130   0.73440   0.13150   0.01267  Uiso   1.00
O9     O     0.15670   0.61870   0.23630   0.01267  Uiso   1.00
O10    O     0.06450   0.47640   0.17490   0.01267  Uiso   1.00
O11    O     0.03770   0.36570   0.48110   0.01267  Uiso   1.00
O12    O     0.13200   0.20060   0.65000   0.01267  Uiso   1.00
