data_IJASES_clean
_audit_creation_date              2014-07-02
_audit_creation_method            'Materials Studio'
_symmetry_space_group_name_H-M    'P1'
_symmetry_Int_Tables_number       1
_symmetry_cell_setting            triclinic
loop_
_symmetry_equiv_pos_as_xyz
  x,y,z
_cell_length_a                    8.6514
_cell_length_b                    10.1531
_cell_length_c                    11.1703
_cell_angle_alpha                 65.4370
_cell_angle_beta                  71.6660
_cell_angle_gamma                 78.4210
loop_
_atom_site_label
_atom_site_type_symbol
_atom_site_fract_x
_atom_site_fract_y
_atom_site_fract_z
_atom_site_U_iso_or_equiv
_atom_site_adp_type
_atom_site_occupancy
Tm1    Tm    0.13213   0.44028   0.65276   0.01267  Uiso   1.00
Tm2    Tm    0.86787   0.55972   0.34724   0.01267  Uiso   1.00
H1     H     0.63470   0.11250   0.77080   0.01267  Uiso   1.00
H2     H     0.22800   0.07210   0.08180   0.01267  Uiso   1.00
H3     H     0.54430   0.35310   0.87560   0.01267  Uiso   1.00
H4     H     0.71530   0.61880   0.98520   0.01267  Uiso   1.00
H5     H     0.92500   0.78040   0.68190   0.01267  Uiso   1.00
H6     H     0.01990   0.02730   0.27770   0.01267  Uiso   1.00
H7     H     0.36530   0.88750   0.22920   0.01267  Uiso   1.00
H8     H     0.77200   0.92790   0.91820   0.01267  Uiso   1.00
H9     H     0.45570   0.64690   0.12440   0.01267  Uiso   1.00
H10    H     0.28470   0.38120   0.01480   0.01267  Uiso   1.00
H11    H     0.07500   0.21960   0.31810   0.01267  Uiso   1.00
H12    H     0.98010   0.97270   0.72230   0.01267  Uiso   1.00
C1     C     0.32660   0.23160   0.82040   0.01267  Uiso   1.00
C2     C     0.41830   0.11200   0.91060   0.01267  Uiso   1.00
C3     C     0.57930   0.06730   0.86400   0.01267  Uiso   1.00
C4     C     0.33900   0.04300   0.04820   0.01267  Uiso   1.00
C5     C     0.82030   0.46160   0.83120   0.01267  Uiso   1.00
C6     C     0.65400   0.48280   0.91740   0.01267  Uiso   1.00
C7     C     0.52610   0.41280   0.92630   0.01267  Uiso   1.00
C8     C     0.62800   0.57060   0.99130   0.01267  Uiso   1.00
C9     C     0.93020   0.76680   0.44730   0.01267  Uiso   1.00
C10    C     0.96670   0.88560   0.47590   0.01267  Uiso   1.00
C11    C     0.95520   0.86920   0.60800   0.01267  Uiso   1.00
C12    C     0.01170   0.01620   0.36810   0.01267  Uiso   1.00
C13    C     0.67340   0.76840   0.17960   0.01267  Uiso   1.00
C14    C     0.58170   0.88800   0.08940   0.01267  Uiso   1.00
C15    C     0.42070   0.93270   0.13600   0.01267  Uiso   1.00
C16    C     0.66100   0.95700   0.95180   0.01267  Uiso   1.00
C17    C     0.17970   0.53840   0.16880   0.01267  Uiso   1.00
C18    C     0.34600   0.51720   0.08260   0.01267  Uiso   1.00
C19    C     0.47390   0.58720   0.07370   0.01267  Uiso   1.00
C20    C     0.37200   0.42940   0.00870   0.01267  Uiso   1.00
C21    C     0.06980   0.23320   0.55270   0.01267  Uiso   1.00
C22    C     0.03330   0.11440   0.52410   0.01267  Uiso   1.00
C23    C     0.04480   0.13080   0.39200   0.01267  Uiso   1.00
C24    C     0.98830   0.98380   0.63190   0.01267  Uiso   1.00
O1     O     0.39830   0.29890   0.69600   0.01267  Uiso   1.00
O2     O     0.17880   0.26550   0.86880   0.01267  Uiso   1.00
O3     O     0.84320   0.38130   0.76360   0.01267  Uiso   1.00
O4     O     0.93530   0.52390   0.82500   0.01267  Uiso   1.00
O5     O     0.96210   0.63430   0.51870   0.01267  Uiso   1.00
O6     O     0.86840   0.79950   0.34980   0.01267  Uiso   1.00
O7     O     0.60170   0.70110   0.30400   0.01267  Uiso   1.00
O8     O     0.82120   0.73450   0.13120   0.01267  Uiso   1.00
O9     O     0.15680   0.61870   0.23640   0.01267  Uiso   1.00
O10    O     0.06470   0.47610   0.17500   0.01267  Uiso   1.00
O11    O     0.03790   0.36570   0.48130   0.01267  Uiso   1.00
O12    O     0.13160   0.20050   0.65020   0.01267  Uiso   1.00
