data_image0
_cell_length_a       10.391
_cell_length_b       15.056
_cell_length_c       10.121
_cell_angle_alpha    101.363
_cell_angle_beta     101.115
_cell_angle_gamma    105.737

_symmetry_space_group_name_H-M    "P 1"
_symmetry_int_tables_number       1

loop_
  _symmetry_equiv_pos_as_xyz
  'x, y, z'

loop_
  _atom_site_label
  _atom_site_occupancy
  _atom_site_fract_x
  _atom_site_fract_y
  _atom_site_fract_z
  _atom_site_thermal_displace_type
  _atom_site_B_iso_or_equiv
  _atom_site_type_symbol
  Pr1      1.0000 0.03242  0.19445  0.78012  Biso   1.000  Pr
  Pr2      1.0000 0.00639  0.22275  0.28923  Biso   1.000  Pr
  O1       1.0000 0.19890  0.32360  0.22780  Biso   1.000  O
  O2       1.0000 0.18120  0.25960  0.00750  Biso   1.000  O
  O3       1.0000 0.84070  0.64350  0.23840  Biso   1.000  O
  O4       1.0000 0.84500  0.53770  0.05070  Biso   1.000  O
  O5       1.0000 0.84220  0.10320  0.85670  Biso   1.000  O
  O6       1.0000 0.83580  0.15640  0.07270  Biso   1.000  O
  O7       1.0000 0.10930  0.94190  0.68930  Biso   1.000  O
  O8       1.0000 0.12180  0.06560  0.85760  Biso   1.000  O
  O9       1.0000 0.88070  0.21840  0.59320  Biso   1.000  O
  O10      1.0000 0.82190  0.24530  0.38750  Biso   1.000  O
  O11      1.0000 0.22380  0.18290  0.68120  Biso   1.000  O
  O12      1.0000 0.15900  0.19530  0.46940  Biso   1.000  O
  N1       1.0000 0.39270  0.49650  0.34720  Biso   1.000  N
  N2       1.0000 0.65900  0.37100  0.96900  Biso   1.000  N
  N3       1.0000 0.60110  0.99140  0.66710  Biso   1.000  N
  N4       1.0000 0.35800  0.13100  0.05800  Biso   1.000  N
  N5       1.0000 0.59950  0.29300  0.31870  Biso   1.000  N
  N6       1.0000 0.49700  0.24410  0.79700  Biso   1.000  N
  C1       1.0000 0.24620  0.31830  0.12320  Biso   1.000  C
  C2       1.0000 0.38660  0.38290  0.13610  Biso   1.000  C
  C3       1.0000 0.45490  0.35670  0.03470  Biso   1.000  C
  H1       1.0000 0.40950  0.30130  0.96260  Biso   1.000  H
  C4       1.0000 0.58860  0.41120  0.03930  Biso   1.000  C
  C5       1.0000 0.64970  0.49680  0.14530  Biso   1.000  C
  C6       1.0000 0.58460  0.52380  0.24270  Biso   1.000  C
  H2       1.0000 0.62830  0.58120  0.31130  Biso   1.000  H
  C7       1.0000 0.45270  0.46670  0.24220  Biso   1.000  C
  C8       1.0000 0.78880  0.56380  0.14420  Biso   1.000  C
  C9       1.0000 0.77820  0.11720  0.94680  Biso   1.000  C
  C10      1.0000 0.62260  0.08620  0.90180  Biso   1.000  C
  C11      1.0000 0.55410  0.12130  0.99630  Biso   1.000  C
  H3       1.0000 0.60640  0.16040  0.08410  Biso   1.000  H
  C12      1.0000 0.41150  0.09980  0.96390  Biso   1.000  C
  C13      1.0000 0.33350  0.03780  0.83300  Biso   1.000  C
  C14      1.0000 0.39820  0.00110  0.73900  Biso   1.000  C
  H4       1.0000 0.34480  0.95910  0.65350  Biso   1.000  H
  C15      1.0000 0.54460  0.02630  0.77010  Biso   1.000  C
  C16      1.0000 0.17870  0.01410  0.79220  Biso   1.000  C
  C17      1.0000 0.79750  0.23410  0.50120  Biso   1.000  C
  C18      1.0000 0.66090  0.23720  0.52380  Biso   1.000  C
  C19      1.0000 0.62670  0.21860  0.64360  Biso   1.000  C
  H5       1.0000 0.69260  0.21000  0.71190  Biso   1.000  H
  C20      1.0000 0.49660  0.21230  0.66470  Biso   1.000  C
  C21      1.0000 0.39710  0.22160  0.56060  Biso   1.000  C
  C22      1.0000 0.43100  0.24410  0.44340  Biso   1.000  C
  H6       1.0000 0.36380  0.25080  0.37440  Biso   1.000  H
  C23      1.0000 0.56440  0.25690  0.42660  Biso   1.000  C
  C24      1.0000 0.25070  0.19920  0.57180  Biso   1.000  C
  Pr3      1.0000 0.96758  0.80555  0.21988  Biso   1.000  Pr
  Pr4      1.0000 0.99361  0.77725  0.71077  Biso   1.000  Pr
  O13      1.0000 0.80110  0.67640  0.77220  Biso   1.000  O
  O14      1.0000 0.81880  0.74040  0.99250  Biso   1.000  O
  O15      1.0000 0.15930  0.35650  0.76160  Biso   1.000  O
  O16      1.0000 0.15500  0.46230  0.94930  Biso   1.000  O
  O17      1.0000 0.15780  0.89680  0.14330  Biso   1.000  O
  O18      1.0000 0.16420  0.84360  0.92730  Biso   1.000  O
  O19      1.0000 0.89070  0.05810  0.31070  Biso   1.000  O
  O20      1.0000 0.87820  0.93440  0.14240  Biso   1.000  O
  O21      1.0000 0.11930  0.78160  0.40680  Biso   1.000  O
  O22      1.0000 0.17810  0.75470  0.61250  Biso   1.000  O
  O23      1.0000 0.77620  0.81710  0.31880  Biso   1.000  O
  O24      1.0000 0.84100  0.80470  0.53060  Biso   1.000  O
  N7       1.0000 0.60730  0.50350  0.65280  Biso   1.000  N
  N8       1.0000 0.34100  0.62900  0.03100  Biso   1.000  N
  N9       1.0000 0.39890  0.00860  0.33290  Biso   1.000  N
  N10      1.0000 0.64200  0.86900  0.94200  Biso   1.000  N
  N11      1.0000 0.40050  0.70700  0.68130  Biso   1.000  N
  N12      1.0000 0.50300  0.75590  0.20300  Biso   1.000  N
  C25      1.0000 0.75380  0.68170  0.87680  Biso   1.000  C
  C26      1.0000 0.61340  0.61710  0.86390  Biso   1.000  C
  C27      1.0000 0.54510  0.64330  0.96530  Biso   1.000  C
  H7       1.0000 0.59050  0.69870  0.03740  Biso   1.000  H
  C28      1.0000 0.41140  0.58880  0.96070  Biso   1.000  C
  C29      1.0000 0.35030  0.50320  0.85470  Biso   1.000  C
  C30      1.0000 0.41540  0.47620  0.75730  Biso   1.000  C
  H8       1.0000 0.37170  0.41880  0.68870  Biso   1.000  H
  C31      1.0000 0.54730  0.53330  0.75780  Biso   1.000  C
  C32      1.0000 0.21120  0.43620  0.85580  Biso   1.000  C
  C33      1.0000 0.22180  0.88280  0.05320  Biso   1.000  C
  C34      1.0000 0.37740  0.91380  0.09820  Biso   1.000  C
  C35      1.0000 0.44590  0.87870  0.00370  Biso   1.000  C
  H9       1.0000 0.39360  0.83960  0.91590  Biso   1.000  H
  C36      1.0000 0.58850  0.90020  0.03610  Biso   1.000  C
  C37      1.0000 0.66650  0.96220  0.16700  Biso   1.000  C
  C38      1.0000 0.60180  0.99890  0.26100  Biso   1.000  C
  H10      1.0000 0.65520  0.04090  0.34650  Biso   1.000  H
  C39      1.0000 0.45540  0.97370  0.22990  Biso   1.000  C
  C40      1.0000 0.82130  0.98590  0.20780  Biso   1.000  C
  C41      1.0000 0.20250  0.76590  0.49880  Biso   1.000  C
  C42      1.0000 0.33910  0.76280  0.47620  Biso   1.000  C
  C43      1.0000 0.37330  0.78140  0.35640  Biso   1.000  C
  H11      1.0000 0.30740  0.79000  0.28810  Biso   1.000  H
  C44      1.0000 0.50340  0.78770  0.33530  Biso   1.000  C
  C45      1.0000 0.60290  0.77840  0.43940  Biso   1.000  C
  C46      1.0000 0.56900  0.75590  0.55660  Biso   1.000  C
  H12      1.0000 0.63620  0.74920  0.62560  Biso   1.000  H
  C47      1.0000 0.43560  0.74310  0.57340  Biso   1.000  C
  C48      1.0000 0.74930  0.80080  0.42820  Biso   1.000  C
