data_image0
_cell_length_a       18.845
_cell_length_b       29.996
_cell_length_c       12.41
_cell_angle_alpha    90
_cell_angle_beta     90
_cell_angle_gamma    90

_symmetry_space_group_name_H-M    "P 1"
_symmetry_int_tables_number       1

loop_
  _symmetry_equiv_pos_as_xyz
  'x, y, z'

loop_
  _atom_site_label
  _atom_site_occupancy
  _atom_site_fract_x
  _atom_site_fract_y
  _atom_site_fract_z
  _atom_site_thermal_displace_type
  _atom_site_B_iso_or_equiv
  _atom_site_type_symbol
  Cd1      1.0000 0.09219  0.65333  0.56054  Biso   1.000  Cd
  Cd2      1.0000 0.17650  0.61020  0.81729  Biso   1.000  Cd
  Cd3      1.0000 0.36493  0.61401  0.82189  Biso   1.000  Cd
  O1       1.0000 0.20460  0.67765  0.48910  Biso   1.000  O
  O2       1.0000 0.12790  0.64475  0.38220  Biso   1.000  O
  O3       1.0000 0.17720  0.62781  0.99340  Biso   1.000  O
  O4       1.0000 0.27800  0.65177  0.92330  Biso   1.000  O
  O5       1.0000 0.62090  0.66794  0.26630  Biso   1.000  O
  O6       1.0000 0.64770  0.71807  0.14280  Biso   1.000  O
  O7       1.0000 0.26660  0.61000  0.69450  Biso   1.000  O
  O8       1.0000 0.16850  0.58856  0.61220  Biso   1.000  O
  O9       1.0000 0.47320  0.64765  0.47490  Biso   1.000  O
  O10      1.0000 0.50720  0.59885  0.35440  Biso   1.000  O
  O11      1.0000 0.34670  0.56130  0.94410  Biso   1.000  O
  O12      1.0000 0.23840  0.54759  0.87890  Biso   1.000  O
  N1       1.0000 0.42870  0.56541  0.71510  Biso   1.000  N
  C1       1.0000 0.18680  0.66490  0.39700  Biso   1.000  C
  C2       1.0000 0.23390  0.67210  0.30190  Biso   1.000  C
  C3       1.0000 0.29800  0.69582  0.31300  Biso   1.000  C
  H1       1.0000 0.31050  0.70760  0.37970  Biso   1.000  H
  C4       1.0000 0.34280  0.70177  0.22500  Biso   1.000  C
  C5       1.0000 0.32330  0.68490  0.12460  Biso   1.000  C
  H2       1.0000 0.35330  0.68860  0.06580  Biso   1.000  H
  C6       1.0000 0.25920  0.66256  0.11190  Biso   1.000  C
  C7       1.0000 0.21520  0.65610  0.20060  Biso   1.000  C
  H3       1.0000 0.17260  0.64080  0.19210  Biso   1.000  H
  C8       1.0000 0.23730  0.64633  0.00230  Biso   1.000  C
  C9       1.0000 0.41130  0.72742  0.23750  Biso   1.000  C
  C10      1.0000 0.47560  0.70513  0.22400  Biso   1.000  C
  H4       1.0000 0.47550  0.67500  0.20600  Biso   1.000  H
  C11      1.0000 0.53970  0.72714  0.23710  Biso   1.000  C
  C12      1.0000 0.60860  0.70348  0.21300  Biso   1.000  C
  C13      1.0000 0.23470  0.59500  0.61200  Biso   1.000  C
  C14      1.0000 0.27830  0.58442  0.51540  Biso   1.000  C
  C15      1.0000 0.34450  0.60446  0.50530  Biso   1.000  C
  H5       1.0000 0.35970  0.62480  0.55690  Biso   1.000  H
  C16      1.0000 0.38790  0.59430  0.41860  Biso   1.000  C
  C17      1.0000 0.46020  0.61550  0.41420  Biso   1.000  C
  C18      1.0000 0.36450  0.56414  0.34110  Biso   1.000  C
  H6       1.0000 0.39490  0.55610  0.28530  Biso   1.000  H
  C19      1.0000 0.29630  0.54565  0.34480  Biso   1.000  C
  C20      1.0000 0.25320  0.55580  0.43400  Biso   1.000  C
  H7       1.0000 0.20800  0.54360  0.43920  Biso   1.000  H
  C21      1.0000 0.27040  0.51983  0.24920  Biso   1.000  C
  C22      1.0000 0.28830  0.53883  0.14870  Biso   1.000  C
  H8       1.0000 0.31400  0.56530  0.14800  Biso   1.000  H
  C23      1.0000 0.26920  0.51990  0.05120  Biso   1.000  C
  C24      1.0000 0.28610  0.54410  0.94890  Biso   1.000  C
  C25      1.0000 0.49130  0.57540  0.66920  Biso   1.000  C
  H9       1.0000 0.51560  0.60050  0.69340  Biso   1.000  H
  C26      1.0000 0.52160  0.55030  0.58760  Biso   1.000  C
  H10      1.0000 0.56560  0.55840  0.56000  Biso   1.000  H
  C27      1.0000 0.48640  0.51289  0.54650  Biso   1.000  C
  C28      1.0000 0.42300  0.50151  0.59720  Biso   1.000  C
  H11      1.0000 0.39810  0.47630  0.57530  Biso   1.000  H
  C29      1.0000 0.39700  0.52780  0.68070  Biso   1.000  C
  H12      1.0000 0.35530  0.51890  0.71460  Biso   1.000  H
  Cd4      1.0000 0.40781  0.34667  0.56054  Biso   1.000  Cd
  Cd5      1.0000 0.32350  0.38980  0.81729  Biso   1.000  Cd
  Cd6      1.0000 0.13507  0.38599  0.82189  Biso   1.000  Cd
  O13      1.0000 0.29540  0.32235  0.48910  Biso   1.000  O
  O14      1.0000 0.37210  0.35525  0.38220  Biso   1.000  O
  O15      1.0000 0.32280  0.37219  0.99340  Biso   1.000  O
  O16      1.0000 0.22200  0.34823  0.92330  Biso   1.000  O
  O17      1.0000 0.87910  0.33206  0.26630  Biso   1.000  O
  O18      1.0000 0.85230  0.28193  0.14280  Biso   1.000  O
  O19      1.0000 0.23340  0.39000  0.69450  Biso   1.000  O
  O20      1.0000 0.33150  0.41144  0.61220  Biso   1.000  O
  O21      1.0000 0.02680  0.35235  0.47490  Biso   1.000  O
  O22      1.0000 0.99280  0.40115  0.35440  Biso   1.000  O
  O23      1.0000 0.15330  0.43870  0.94410  Biso   1.000  O
  O24      1.0000 0.26160  0.45241  0.87890  Biso   1.000  O
  N2       1.0000 0.07130  0.43459  0.71510  Biso   1.000  N
  C30      1.0000 0.31320  0.33510  0.39700  Biso   1.000  C
  C31      1.0000 0.26610  0.32790  0.30190  Biso   1.000  C
  C32      1.0000 0.20200  0.30418  0.31300  Biso   1.000  C
  H13      1.0000 0.18950  0.29240  0.37970  Biso   1.000  H
  C33      1.0000 0.15720  0.29823  0.22500  Biso   1.000  C
  C34      1.0000 0.17670  0.31510  0.12460  Biso   1.000  C
  H14      1.0000 0.14670  0.31140  0.06580  Biso   1.000  H
  C35      1.0000 0.24080  0.33744  0.11190  Biso   1.000  C
  C36      1.0000 0.28480  0.34390  0.20060  Biso   1.000  C
  H15      1.0000 0.32740  0.35920  0.19210  Biso   1.000  H
  C37      1.0000 0.26270  0.35367  0.00230  Biso   1.000  C
  C38      1.0000 0.08870  0.27258  0.23750  Biso   1.000  C
  C39      1.0000 0.02440  0.29487  0.22400  Biso   1.000  C
  H16      1.0000 0.02450  0.32500  0.20600  Biso   1.000  H
  C40      1.0000 0.96030  0.27286  0.23710  Biso   1.000  C
  C41      1.0000 0.89140  0.29652  0.21300  Biso   1.000  C
  C42      1.0000 0.26530  0.40500  0.61200  Biso   1.000  C
  C43      1.0000 0.22170  0.41558  0.51540  Biso   1.000  C
  C44      1.0000 0.15550  0.39554  0.50530  Biso   1.000  C
  H17      1.0000 0.14030  0.37520  0.55690  Biso   1.000  H
  C45      1.0000 0.11210  0.40570  0.41860  Biso   1.000  C
  C46      1.0000 0.03980  0.38450  0.41420  Biso   1.000  C
  C47      1.0000 0.13550  0.43586  0.34110  Biso   1.000  C
  H18      1.0000 0.10510  0.44390  0.28530  Biso   1.000  H
  C48      1.0000 0.20370  0.45435  0.34480  Biso   1.000  C
  C49      1.0000 0.24680  0.44420  0.43400  Biso   1.000  C
  H19      1.0000 0.29200  0.45640  0.43920  Biso   1.000  H
  C50      1.0000 0.22960  0.48017  0.24920  Biso   1.000  C
  C51      1.0000 0.21170  0.46117  0.14870  Biso   1.000  C
  H20      1.0000 0.18600  0.43470  0.14800  Biso   1.000  H
  C52      1.0000 0.23080  0.48010  0.05120  Biso   1.000  C
  C53      1.0000 0.21390  0.45590  0.94890  Biso   1.000  C
  C54      1.0000 0.00870  0.42460  0.66920  Biso   1.000  C
  H21      1.0000 0.98440  0.39950  0.69340  Biso   1.000  H
  C55      1.0000 0.97840  0.44970  0.58760  Biso   1.000  C
  H22      1.0000 0.93440  0.44160  0.56000  Biso   1.000  H
  C56      1.0000 0.01360  0.48711  0.54650  Biso   1.000  C
  C57      1.0000 0.07700  0.49849  0.59720  Biso   1.000  C
  H23      1.0000 0.10190  0.52370  0.57530  Biso   1.000  H
  C58      1.0000 0.10300  0.47220  0.68070  Biso   1.000  C
  H24      1.0000 0.14470  0.48110  0.71460  Biso   1.000  H
  Cd7      1.0000 0.40781  0.15333  0.93946  Biso   1.000  Cd
  Cd8      1.0000 0.32350  0.11020  0.68271  Biso   1.000  Cd
  Cd9      1.0000 0.13507  0.11401  0.67811  Biso   1.000  Cd
  O25      1.0000 0.29540  0.17765  0.01090  Biso   1.000  O
  O26      1.0000 0.37210  0.14475  0.11780  Biso   1.000  O
  O27      1.0000 0.32280  0.12781  0.50660  Biso   1.000  O
  O28      1.0000 0.22200  0.15177  0.57670  Biso   1.000  O
  O29      1.0000 0.87910  0.16794  0.23370  Biso   1.000  O
  O30      1.0000 0.85230  0.21807  0.35720  Biso   1.000  O
  O31      1.0000 0.23340  0.11000  0.80550  Biso   1.000  O
  O32      1.0000 0.33150  0.08856  0.88780  Biso   1.000  O
  O33      1.0000 0.02680  0.14765  0.02510  Biso   1.000  O
  O34      1.0000 0.99280  0.09885  0.14560  Biso   1.000  O
  O35      1.0000 0.15330  0.06130  0.55590  Biso   1.000  O
  O36      1.0000 0.26160  0.04759  0.62110  Biso   1.000  O
  N3       1.0000 0.07130  0.06541  0.78490  Biso   1.000  N
  C59      1.0000 0.31320  0.16490  0.10300  Biso   1.000  C
  C60      1.0000 0.26610  0.17210  0.19810  Biso   1.000  C
  C61      1.0000 0.20200  0.19582  0.18700  Biso   1.000  C
  H25      1.0000 0.18950  0.20760  0.12030  Biso   1.000  H
  C62      1.0000 0.15720  0.20177  0.27500  Biso   1.000  C
  C63      1.0000 0.17670  0.18490  0.37540  Biso   1.000  C
  H26      1.0000 0.14670  0.18860  0.43420  Biso   1.000  H
  C64      1.0000 0.24080  0.16256  0.38810  Biso   1.000  C
  C65      1.0000 0.28480  0.15610  0.29940  Biso   1.000  C
  H27      1.0000 0.32740  0.14080  0.30790  Biso   1.000  H
  C66      1.0000 0.26270  0.14633  0.49770  Biso   1.000  C
  C67      1.0000 0.08870  0.22742  0.26250  Biso   1.000  C
  C68      1.0000 0.02440  0.20513  0.27600  Biso   1.000  C
  H28      1.0000 0.02450  0.17500  0.29400  Biso   1.000  H
  C69      1.0000 0.96030  0.22714  0.26290  Biso   1.000  C
  C70      1.0000 0.89140  0.20348  0.28700  Biso   1.000  C
  C71      1.0000 0.26530  0.09500  0.88800  Biso   1.000  C
  C72      1.0000 0.22170  0.08442  0.98460  Biso   1.000  C
  C73      1.0000 0.15550  0.10446  0.99470  Biso   1.000  C
  H29      1.0000 0.14030  0.12480  0.94310  Biso   1.000  H
  C74      1.0000 0.11210  0.09430  0.08140  Biso   1.000  C
  C75      1.0000 0.03980  0.11550  0.08580  Biso   1.000  C
  C76      1.0000 0.13550  0.06414  0.15890  Biso   1.000  C
  H30      1.0000 0.10510  0.05610  0.21470  Biso   1.000  H
  C77      1.0000 0.20370  0.04565  0.15520  Biso   1.000  C
  C78      1.0000 0.24680  0.05580  0.06600  Biso   1.000  C
  H31      1.0000 0.29200  0.04360  0.06080  Biso   1.000  H
  C79      1.0000 0.22960  0.01983  0.25080  Biso   1.000  C
  C80      1.0000 0.21170  0.03883  0.35130  Biso   1.000  C
  H32      1.0000 0.18600  0.06530  0.35200  Biso   1.000  H
  C81      1.0000 0.23080  0.01990  0.44880  Biso   1.000  C
  C82      1.0000 0.21390  0.04410  0.55110  Biso   1.000  C
  C83      1.0000 0.00870  0.07540  0.83080  Biso   1.000  C
  H33      1.0000 0.98440  0.10050  0.80660  Biso   1.000  H
  C84      1.0000 0.97840  0.05030  0.91240  Biso   1.000  C
  H34      1.0000 0.93440  0.05840  0.94000  Biso   1.000  H
  C85      1.0000 0.01360  0.01289  0.95350  Biso   1.000  C
  C86      1.0000 0.07700  0.00151  0.90280  Biso   1.000  C
  H35      1.0000 0.10190  0.97630  0.92470  Biso   1.000  H
  C87      1.0000 0.10300  0.02780  0.81930  Biso   1.000  C
  H36      1.0000 0.14470  0.01890  0.78540  Biso   1.000  H
  Cd10     1.0000 0.09219  0.84667  0.93946  Biso   1.000  Cd
  Cd11     1.0000 0.17650  0.88980  0.68271  Biso   1.000  Cd
  Cd12     1.0000 0.36493  0.88599  0.67811  Biso   1.000  Cd
  O37      1.0000 0.20460  0.82235  0.01090  Biso   1.000  O
  O38      1.0000 0.12790  0.85525  0.11780  Biso   1.000  O
  O39      1.0000 0.17720  0.87219  0.50660  Biso   1.000  O
  O40      1.0000 0.27800  0.84823  0.57670  Biso   1.000  O
  O41      1.0000 0.62090  0.83206  0.23370  Biso   1.000  O
  O42      1.0000 0.64770  0.78193  0.35720  Biso   1.000  O
  O43      1.0000 0.26660  0.89000  0.80550  Biso   1.000  O
  O44      1.0000 0.16850  0.91144  0.88780  Biso   1.000  O
  O45      1.0000 0.47320  0.85235  0.02510  Biso   1.000  O
  O46      1.0000 0.50720  0.90115  0.14560  Biso   1.000  O
  O47      1.0000 0.34670  0.93870  0.55590  Biso   1.000  O
  O48      1.0000 0.23840  0.95241  0.62110  Biso   1.000  O
  N4       1.0000 0.42870  0.93459  0.78490  Biso   1.000  N
  C88      1.0000 0.18680  0.83510  0.10300  Biso   1.000  C
  C89      1.0000 0.23390  0.82790  0.19810  Biso   1.000  C
  C90      1.0000 0.29800  0.80418  0.18700  Biso   1.000  C
  H37      1.0000 0.31050  0.79240  0.12030  Biso   1.000  H
  C91      1.0000 0.34280  0.79823  0.27500  Biso   1.000  C
  C92      1.0000 0.32330  0.81510  0.37540  Biso   1.000  C
  H38      1.0000 0.35330  0.81140  0.43420  Biso   1.000  H
  C93      1.0000 0.25920  0.83744  0.38810  Biso   1.000  C
  C94      1.0000 0.21520  0.84390  0.29940  Biso   1.000  C
  H39      1.0000 0.17260  0.85920  0.30790  Biso   1.000  H
  C95      1.0000 0.23730  0.85367  0.49770  Biso   1.000  C
  C96      1.0000 0.41130  0.77258  0.26250  Biso   1.000  C
  C97      1.0000 0.47560  0.79487  0.27600  Biso   1.000  C
  H40      1.0000 0.47550  0.82500  0.29400  Biso   1.000  H
  C98      1.0000 0.53970  0.77286  0.26290  Biso   1.000  C
  C99      1.0000 0.60860  0.79652  0.28700  Biso   1.000  C
  C100     1.0000 0.23470  0.90500  0.88800  Biso   1.000  C
  C101     1.0000 0.27830  0.91558  0.98460  Biso   1.000  C
  C102     1.0000 0.34450  0.89554  0.99470  Biso   1.000  C
  H41      1.0000 0.35970  0.87520  0.94310  Biso   1.000  H
  C103     1.0000 0.38790  0.90570  0.08140  Biso   1.000  C
  C104     1.0000 0.46020  0.88450  0.08580  Biso   1.000  C
  C105     1.0000 0.36450  0.93586  0.15890  Biso   1.000  C
  H42      1.0000 0.39490  0.94390  0.21470  Biso   1.000  H
  C106     1.0000 0.29630  0.95435  0.15520  Biso   1.000  C
  C107     1.0000 0.25320  0.94420  0.06600  Biso   1.000  C
  H43      1.0000 0.20800  0.95640  0.06080  Biso   1.000  H
  C108     1.0000 0.27040  0.98017  0.25080  Biso   1.000  C
  C109     1.0000 0.28830  0.96117  0.35130  Biso   1.000  C
  H44      1.0000 0.31400  0.93470  0.35200  Biso   1.000  H
  C110     1.0000 0.26920  0.98010  0.44880  Biso   1.000  C
  C111     1.0000 0.28610  0.95590  0.55110  Biso   1.000  C
  C112     1.0000 0.49130  0.92460  0.83080  Biso   1.000  C
  H45      1.0000 0.51560  0.89950  0.80660  Biso   1.000  H
  C113     1.0000 0.52160  0.94970  0.91240  Biso   1.000  C
  H46      1.0000 0.56560  0.94160  0.94000  Biso   1.000  H
  C114     1.0000 0.48640  0.98711  0.95350  Biso   1.000  C
  C115     1.0000 0.42300  0.99849  0.90280  Biso   1.000  C
  H47      1.0000 0.39810  0.02370  0.92470  Biso   1.000  H
  C116     1.0000 0.39700  0.97220  0.81930  Biso   1.000  C
  H48      1.0000 0.35530  0.98110  0.78540  Biso   1.000  H
  Cd13     1.0000 0.90781  0.34667  0.43946  Biso   1.000  Cd
  Cd14     1.0000 0.82350  0.38980  0.18271  Biso   1.000  Cd
  Cd15     1.0000 0.63507  0.38599  0.17811  Biso   1.000  Cd
  O49      1.0000 0.79540  0.32235  0.51090  Biso   1.000  O
  O50      1.0000 0.87210  0.35525  0.61780  Biso   1.000  O
  O51      1.0000 0.82280  0.37219  0.00660  Biso   1.000  O
  O52      1.0000 0.72200  0.34823  0.07670  Biso   1.000  O
  O53      1.0000 0.37910  0.33206  0.73370  Biso   1.000  O
  O54      1.0000 0.35230  0.28193  0.85720  Biso   1.000  O
  O55      1.0000 0.73340  0.39000  0.30550  Biso   1.000  O
  O56      1.0000 0.83150  0.41144  0.38780  Biso   1.000  O
  O57      1.0000 0.52680  0.35235  0.52510  Biso   1.000  O
  O58      1.0000 0.49280  0.40115  0.64560  Biso   1.000  O
  O59      1.0000 0.65330  0.43870  0.05590  Biso   1.000  O
  O60      1.0000 0.76160  0.45241  0.12110  Biso   1.000  O
  N5       1.0000 0.57130  0.43459  0.28490  Biso   1.000  N
  C117     1.0000 0.81320  0.33510  0.60300  Biso   1.000  C
  C118     1.0000 0.76610  0.32790  0.69810  Biso   1.000  C
  C119     1.0000 0.70200  0.30418  0.68700  Biso   1.000  C
  H49      1.0000 0.68950  0.29240  0.62030  Biso   1.000  H
  C120     1.0000 0.65720  0.29823  0.77500  Biso   1.000  C
  C121     1.0000 0.67670  0.31510  0.87540  Biso   1.000  C
  H50      1.0000 0.64670  0.31140  0.93420  Biso   1.000  H
  C122     1.0000 0.74080  0.33744  0.88810  Biso   1.000  C
  C123     1.0000 0.78480  0.34390  0.79940  Biso   1.000  C
  H51      1.0000 0.82740  0.35920  0.80790  Biso   1.000  H
  C124     1.0000 0.76270  0.35367  0.99770  Biso   1.000  C
  C125     1.0000 0.58870  0.27258  0.76250  Biso   1.000  C
  C126     1.0000 0.52440  0.29487  0.77600  Biso   1.000  C
  H52      1.0000 0.52450  0.32500  0.79400  Biso   1.000  H
  C127     1.0000 0.46030  0.27286  0.76290  Biso   1.000  C
  C128     1.0000 0.39140  0.29652  0.78700  Biso   1.000  C
  C129     1.0000 0.76530  0.40500  0.38800  Biso   1.000  C
  C130     1.0000 0.72170  0.41558  0.48460  Biso   1.000  C
  C131     1.0000 0.65550  0.39554  0.49470  Biso   1.000  C
  H53      1.0000 0.64030  0.37520  0.44310  Biso   1.000  H
  C132     1.0000 0.61210  0.40570  0.58140  Biso   1.000  C
  C133     1.0000 0.53980  0.38450  0.58580  Biso   1.000  C
  C134     1.0000 0.63550  0.43586  0.65890  Biso   1.000  C
  H54      1.0000 0.60510  0.44390  0.71470  Biso   1.000  H
  C135     1.0000 0.70370  0.45435  0.65520  Biso   1.000  C
  C136     1.0000 0.74680  0.44420  0.56600  Biso   1.000  C
  H55      1.0000 0.79200  0.45640  0.56080  Biso   1.000  H
  C137     1.0000 0.72960  0.48017  0.75080  Biso   1.000  C
  C138     1.0000 0.71170  0.46117  0.85130  Biso   1.000  C
  H56      1.0000 0.68600  0.43470  0.85200  Biso   1.000  H
  C139     1.0000 0.73080  0.48010  0.94880  Biso   1.000  C
  C140     1.0000 0.71390  0.45590  0.05110  Biso   1.000  C
  C141     1.0000 0.50870  0.42460  0.33080  Biso   1.000  C
  H57      1.0000 0.48440  0.39950  0.30660  Biso   1.000  H
  C142     1.0000 0.47840  0.44970  0.41240  Biso   1.000  C
  H58      1.0000 0.43440  0.44160  0.44000  Biso   1.000  H
  C143     1.0000 0.51360  0.48711  0.45350  Biso   1.000  C
  C144     1.0000 0.57700  0.49849  0.40280  Biso   1.000  C
  H59      1.0000 0.60190  0.52370  0.42470  Biso   1.000  H
  C145     1.0000 0.60300  0.47220  0.31930  Biso   1.000  C
  H60      1.0000 0.64470  0.48110  0.28540  Biso   1.000  H
  Cd16     1.0000 0.59219  0.65333  0.43946  Biso   1.000  Cd
  Cd17     1.0000 0.67650  0.61020  0.18271  Biso   1.000  Cd
  Cd18     1.0000 0.86493  0.61401  0.17811  Biso   1.000  Cd
  O61      1.0000 0.70460  0.67765  0.51090  Biso   1.000  O
  O62      1.0000 0.62790  0.64475  0.61780  Biso   1.000  O
  O63      1.0000 0.67720  0.62781  0.00660  Biso   1.000  O
  O64      1.0000 0.77800  0.65177  0.07670  Biso   1.000  O
  O65      1.0000 0.12090  0.66794  0.73370  Biso   1.000  O
  O66      1.0000 0.14770  0.71807  0.85720  Biso   1.000  O
  O67      1.0000 0.76660  0.61000  0.30550  Biso   1.000  O
  O68      1.0000 0.66850  0.58856  0.38780  Biso   1.000  O
  O69      1.0000 0.97320  0.64765  0.52510  Biso   1.000  O
  O70      1.0000 0.00720  0.59885  0.64560  Biso   1.000  O
  O71      1.0000 0.84670  0.56130  0.05590  Biso   1.000  O
  O72      1.0000 0.73840  0.54759  0.12110  Biso   1.000  O
  N6       1.0000 0.92870  0.56541  0.28490  Biso   1.000  N
  C146     1.0000 0.68680  0.66490  0.60300  Biso   1.000  C
  C147     1.0000 0.73390  0.67210  0.69810  Biso   1.000  C
  C148     1.0000 0.79800  0.69582  0.68700  Biso   1.000  C
  H61      1.0000 0.81050  0.70760  0.62030  Biso   1.000  H
  C149     1.0000 0.84280  0.70177  0.77500  Biso   1.000  C
  C150     1.0000 0.82330  0.68490  0.87540  Biso   1.000  C
  H62      1.0000 0.85330  0.68860  0.93420  Biso   1.000  H
  C151     1.0000 0.75920  0.66256  0.88810  Biso   1.000  C
  C152     1.0000 0.71520  0.65610  0.79940  Biso   1.000  C
  H63      1.0000 0.67260  0.64080  0.80790  Biso   1.000  H
  C153     1.0000 0.73730  0.64633  0.99770  Biso   1.000  C
  C154     1.0000 0.91130  0.72742  0.76250  Biso   1.000  C
  C155     1.0000 0.97560  0.70513  0.77600  Biso   1.000  C
  H64      1.0000 0.97550  0.67500  0.79400  Biso   1.000  H
  C156     1.0000 0.03970  0.72714  0.76290  Biso   1.000  C
  C157     1.0000 0.10860  0.70348  0.78700  Biso   1.000  C
  C158     1.0000 0.73470  0.59500  0.38800  Biso   1.000  C
  C159     1.0000 0.77830  0.58442  0.48460  Biso   1.000  C
  C160     1.0000 0.84450  0.60446  0.49470  Biso   1.000  C
  H65      1.0000 0.85970  0.62480  0.44310  Biso   1.000  H
  C161     1.0000 0.88790  0.59430  0.58140  Biso   1.000  C
  C162     1.0000 0.96020  0.61550  0.58580  Biso   1.000  C
  C163     1.0000 0.86450  0.56414  0.65890  Biso   1.000  C
  H66      1.0000 0.89490  0.55610  0.71470  Biso   1.000  H
  C164     1.0000 0.79630  0.54565  0.65520  Biso   1.000  C
  C165     1.0000 0.75320  0.55580  0.56600  Biso   1.000  C
  H67      1.0000 0.70800  0.54360  0.56080  Biso   1.000  H
  C166     1.0000 0.77040  0.51983  0.75080  Biso   1.000  C
  C167     1.0000 0.78830  0.53883  0.85130  Biso   1.000  C
  H68      1.0000 0.81400  0.56530  0.85200  Biso   1.000  H
  C168     1.0000 0.76920  0.51990  0.94880  Biso   1.000  C
  C169     1.0000 0.78610  0.54410  0.05110  Biso   1.000  C
  C170     1.0000 0.99130  0.57540  0.33080  Biso   1.000  C
  H69      1.0000 0.01560  0.60050  0.30660  Biso   1.000  H
  C171     1.0000 0.02160  0.55030  0.41240  Biso   1.000  C
  H70      1.0000 0.06560  0.55840  0.44000  Biso   1.000  H
  C172     1.0000 0.98640  0.51289  0.45350  Biso   1.000  C
  C173     1.0000 0.92300  0.50151  0.40280  Biso   1.000  C
  H71      1.0000 0.89810  0.47630  0.42470  Biso   1.000  H
  C174     1.0000 0.89700  0.52780  0.31930  Biso   1.000  C
  H72      1.0000 0.85530  0.51890  0.28540  Biso   1.000  H
  Cd19     1.0000 0.59219  0.84667  0.06054  Biso   1.000  Cd
  Cd20     1.0000 0.67650  0.88980  0.31729  Biso   1.000  Cd
  Cd21     1.0000 0.86493  0.88599  0.32189  Biso   1.000  Cd
  O73      1.0000 0.70460  0.82235  0.98910  Biso   1.000  O
  O74      1.0000 0.62790  0.85525  0.88220  Biso   1.000  O
  O75      1.0000 0.67720  0.87219  0.49340  Biso   1.000  O
  O76      1.0000 0.77800  0.84823  0.42330  Biso   1.000  O
  O77      1.0000 0.12090  0.83206  0.76630  Biso   1.000  O
  O78      1.0000 0.14770  0.78193  0.64280  Biso   1.000  O
  O79      1.0000 0.76660  0.89000  0.19450  Biso   1.000  O
  O80      1.0000 0.66850  0.91144  0.11220  Biso   1.000  O
  O81      1.0000 0.97320  0.85235  0.97490  Biso   1.000  O
  O82      1.0000 0.00720  0.90115  0.85440  Biso   1.000  O
  O83      1.0000 0.84670  0.93870  0.44410  Biso   1.000  O
  O84      1.0000 0.73840  0.95241  0.37890  Biso   1.000  O
  N7       1.0000 0.92870  0.93459  0.21510  Biso   1.000  N
  C175     1.0000 0.68680  0.83510  0.89700  Biso   1.000  C
  C176     1.0000 0.73390  0.82790  0.80190  Biso   1.000  C
  C177     1.0000 0.79800  0.80418  0.81300  Biso   1.000  C
  H73      1.0000 0.81050  0.79240  0.87970  Biso   1.000  H
  C178     1.0000 0.84280  0.79823  0.72500  Biso   1.000  C
  C179     1.0000 0.82330  0.81510  0.62460  Biso   1.000  C
  H74      1.0000 0.85330  0.81140  0.56580  Biso   1.000  H
  C180     1.0000 0.75920  0.83744  0.61190  Biso   1.000  C
  C181     1.0000 0.71520  0.84390  0.70060  Biso   1.000  C
  H75      1.0000 0.67260  0.85920  0.69210  Biso   1.000  H
  C182     1.0000 0.73730  0.85367  0.50230  Biso   1.000  C
  C183     1.0000 0.91130  0.77258  0.73750  Biso   1.000  C
  C184     1.0000 0.97560  0.79487  0.72400  Biso   1.000  C
  H76      1.0000 0.97550  0.82500  0.70600  Biso   1.000  H
  C185     1.0000 0.03970  0.77286  0.73710  Biso   1.000  C
  C186     1.0000 0.10860  0.79652  0.71300  Biso   1.000  C
  C187     1.0000 0.73470  0.90500  0.11200  Biso   1.000  C
  C188     1.0000 0.77830  0.91558  0.01540  Biso   1.000  C
  C189     1.0000 0.84450  0.89554  0.00530  Biso   1.000  C
  H77      1.0000 0.85970  0.87520  0.05690  Biso   1.000  H
  C190     1.0000 0.88790  0.90570  0.91860  Biso   1.000  C
  C191     1.0000 0.96020  0.88450  0.91420  Biso   1.000  C
  C192     1.0000 0.86450  0.93586  0.84110  Biso   1.000  C
  H78      1.0000 0.89490  0.94390  0.78530  Biso   1.000  H
  C193     1.0000 0.79630  0.95435  0.84480  Biso   1.000  C
  C194     1.0000 0.75320  0.94420  0.93400  Biso   1.000  C
  H79      1.0000 0.70800  0.95640  0.93920  Biso   1.000  H
  C195     1.0000 0.77040  0.98017  0.74920  Biso   1.000  C
  C196     1.0000 0.78830  0.96117  0.64870  Biso   1.000  C
  H80      1.0000 0.81400  0.93470  0.64800  Biso   1.000  H
  C197     1.0000 0.76920  0.98010  0.55120  Biso   1.000  C
  C198     1.0000 0.78610  0.95590  0.44890  Biso   1.000  C
  C199     1.0000 0.99130  0.92460  0.16920  Biso   1.000  C
  H81      1.0000 0.01560  0.89950  0.19340  Biso   1.000  H
  C200     1.0000 0.02160  0.94970  0.08760  Biso   1.000  C
  H82      1.0000 0.06560  0.94160  0.06000  Biso   1.000  H
  C201     1.0000 0.98640  0.98711  0.04650  Biso   1.000  C
  C202     1.0000 0.92300  0.99849  0.09720  Biso   1.000  C
  H83      1.0000 0.89810  0.02370  0.07530  Biso   1.000  H
  C203     1.0000 0.89700  0.97220  0.18070  Biso   1.000  C
  H84      1.0000 0.85530  0.98110  0.21460  Biso   1.000  H
  Cd22     1.0000 0.90781  0.15333  0.06054  Biso   1.000  Cd
  Cd23     1.0000 0.82350  0.11020  0.31729  Biso   1.000  Cd
  Cd24     1.0000 0.63507  0.11401  0.32189  Biso   1.000  Cd
  O85      1.0000 0.79540  0.17765  0.98910  Biso   1.000  O
  O86      1.0000 0.87210  0.14475  0.88220  Biso   1.000  O
  O87      1.0000 0.82280  0.12781  0.49340  Biso   1.000  O
  O88      1.0000 0.72200  0.15177  0.42330  Biso   1.000  O
  O89      1.0000 0.37910  0.16794  0.76630  Biso   1.000  O
  O90      1.0000 0.35230  0.21807  0.64280  Biso   1.000  O
  O91      1.0000 0.73340  0.11000  0.19450  Biso   1.000  O
  O92      1.0000 0.83150  0.08856  0.11220  Biso   1.000  O
  O93      1.0000 0.52680  0.14765  0.97490  Biso   1.000  O
  O94      1.0000 0.49280  0.09885  0.85440  Biso   1.000  O
  O95      1.0000 0.65330  0.06130  0.44410  Biso   1.000  O
  O96      1.0000 0.76160  0.04759  0.37890  Biso   1.000  O
  N8       1.0000 0.57130  0.06541  0.21510  Biso   1.000  N
  C204     1.0000 0.81320  0.16490  0.89700  Biso   1.000  C
  C205     1.0000 0.76610  0.17210  0.80190  Biso   1.000  C
  C206     1.0000 0.70200  0.19582  0.81300  Biso   1.000  C
  H85      1.0000 0.68950  0.20760  0.87970  Biso   1.000  H
  C207     1.0000 0.65720  0.20177  0.72500  Biso   1.000  C
  C208     1.0000 0.67670  0.18490  0.62460  Biso   1.000  C
  H86      1.0000 0.64670  0.18860  0.56580  Biso   1.000  H
  C209     1.0000 0.74080  0.16256  0.61190  Biso   1.000  C
  C210     1.0000 0.78480  0.15610  0.70060  Biso   1.000  C
  H87      1.0000 0.82740  0.14080  0.69210  Biso   1.000  H
  C211     1.0000 0.76270  0.14633  0.50230  Biso   1.000  C
  C212     1.0000 0.58870  0.22742  0.73750  Biso   1.000  C
  C213     1.0000 0.52440  0.20513  0.72400  Biso   1.000  C
  H88      1.0000 0.52450  0.17500  0.70600  Biso   1.000  H
  C214     1.0000 0.46030  0.22714  0.73710  Biso   1.000  C
  C215     1.0000 0.39140  0.20348  0.71300  Biso   1.000  C
  C216     1.0000 0.76530  0.09500  0.11200  Biso   1.000  C
  C217     1.0000 0.72170  0.08442  0.01540  Biso   1.000  C
  C218     1.0000 0.65550  0.10446  0.00530  Biso   1.000  C
  H89      1.0000 0.64030  0.12480  0.05690  Biso   1.000  H
  C219     1.0000 0.61210  0.09430  0.91860  Biso   1.000  C
  C220     1.0000 0.53980  0.11550  0.91420  Biso   1.000  C
  C221     1.0000 0.63550  0.06414  0.84110  Biso   1.000  C
  H90      1.0000 0.60510  0.05610  0.78530  Biso   1.000  H
  C222     1.0000 0.70370  0.04565  0.84480  Biso   1.000  C
  C223     1.0000 0.74680  0.05580  0.93400  Biso   1.000  C
  H91      1.0000 0.79200  0.04360  0.93920  Biso   1.000  H
  C224     1.0000 0.72960  0.01983  0.74920  Biso   1.000  C
  C225     1.0000 0.71170  0.03883  0.64870  Biso   1.000  C
  H92      1.0000 0.68600  0.06530  0.64800  Biso   1.000  H
  C226     1.0000 0.73080  0.01990  0.55120  Biso   1.000  C
  C227     1.0000 0.71390  0.04410  0.44890  Biso   1.000  C
  C228     1.0000 0.50870  0.07540  0.16920  Biso   1.000  C
  H93      1.0000 0.48440  0.10050  0.19340  Biso   1.000  H
  C229     1.0000 0.47840  0.05030  0.08760  Biso   1.000  C
  H94      1.0000 0.43440  0.05840  0.06000  Biso   1.000  H
  C230     1.0000 0.51360  0.01289  0.04650  Biso   1.000  C
  C231     1.0000 0.57700  0.00151  0.09720  Biso   1.000  C
  H95      1.0000 0.60190  0.97630  0.07530  Biso   1.000  H
  C232     1.0000 0.60300  0.02780  0.18070  Biso   1.000  C
  H96      1.0000 0.64470  0.01890  0.21460  Biso   1.000  H
