data_image0
_cell_length_a       10.143
_cell_length_b       16.127
_cell_length_c       22.937
_cell_angle_alpha    79.015
_cell_angle_beta     84.963
_cell_angle_gamma    77.484

_symmetry_space_group_name_H-M    "P 1"
_symmetry_int_tables_number       1

loop_
  _symmetry_equiv_pos_as_xyz
  'x, y, z'

loop_
  _atom_site_label
  _atom_site_occupancy
  _atom_site_fract_x
  _atom_site_fract_y
  _atom_site_fract_z
  _atom_site_thermal_displace_type
  _atom_site_B_iso_or_equiv
  _atom_site_type_symbol
  Cd1      1.0000 0.20449  0.97191  0.21140  Biso   1.000  Cd
  Cd2      1.0000 0.13597  0.44438  0.19551  Biso   1.000  Cd
  Cd3      1.0000 0.42404  0.03628  0.30690  Biso   1.000  Cd
  Cd4      1.0000 0.49880  0.68616  0.23099  Biso   1.000  Cd
  Cd5      1.0000 0.32378  0.52314  0.28797  Biso   1.000  Cd
  C1       1.0000 0.93420  0.02900  0.17910  Biso   1.000  C
  C2       1.0000 0.80230  0.06440  0.15040  Biso   1.000  C
  C3       1.0000 0.79480  0.12620  0.09900  Biso   1.000  C
  H1       1.0000 0.87040  0.14930  0.08510  Biso   1.000  H
  C4       1.0000 0.67730  0.15440  0.06780  Biso   1.000  C
  C5       1.0000 0.56480  0.12350  0.09040  Biso   1.000  C
  H2       1.0000 0.48590  0.14190  0.06970  Biso   1.000  H
  C6       1.0000 0.56520  0.06470  0.14400  Biso   1.000  C
  C7       1.0000 0.68510  0.03410  0.17300  Biso   1.000  C
  H3       1.0000 0.68790  0.99320  0.20770  Biso   1.000  H
  C8       1.0000 0.44050  0.03200  0.16720  Biso   1.000  C
  C9       1.0000 0.43210  0.41640  0.17380  Biso   1.000  C
  C10      1.0000 0.56230  0.39800  0.13850  Biso   1.000  C
  C11      1.0000 0.57330  0.35610  0.09040  Biso   1.000  C
  H4       1.0000 0.49840  0.33790  0.08060  Biso   1.000  H
  C12      1.0000 0.69410  0.34060  0.05640  Biso   1.000  C
  C13      1.0000 0.80790  0.36630  0.07290  Biso   1.000  C
  H5       1.0000 0.88970  0.35530  0.05120  Biso   1.000  H
  C14      1.0000 0.79830  0.40830  0.12200  Biso   1.000  C
  C15      1.0000 0.67450  0.42610  0.15410  Biso   1.000  C
  H6       1.0000 0.66640  0.45620  0.18540  Biso   1.000  H
  C16      1.0000 0.92010  0.42760  0.14250  Biso   1.000  C
  C17      1.0000 0.70190  0.29860  0.00370  Biso   1.000  C
  C18      1.0000 0.72250  0.34560  0.94670  Biso   1.000  C
  H7       1.0000 0.73630  0.40150  0.94350  Biso   1.000  H
  C19      1.0000 0.72340  0.31350  0.89550  Biso   1.000  C
  C20      1.0000 0.70250  0.22690  0.90050  Biso   1.000  C
  C21      1.0000 0.68570  0.17980  0.95840  Biso   1.000  C
  H8       1.0000 0.67560  0.12300  0.96230  Biso   1.000  H
  C22      1.0000 0.68360  0.21400  0.00890  Biso   1.000  C
  C23      1.0000 0.74650  0.36900  0.83760  Biso   1.000  C
  C24      1.0000 0.71340  0.17860  0.84910  Biso   1.000  C
  C25      1.0000 0.28390  0.86910  0.34430  Biso   1.000  C
  C26      1.0000 0.24430  0.81210  0.40050  Biso   1.000  C
  C27      1.0000 0.24430  0.72610  0.40310  Biso   1.000  C
  C28      1.0000 0.20840  0.67760  0.45620  Biso   1.000  C
  H9       1.0000 0.20700  0.61980  0.45750  Biso   1.000  H
  C29      1.0000 0.17360  0.71330  0.50860  Biso   1.000  C
  C30      1.0000 0.16910  0.80100  0.50430  Biso   1.000  C
  C31      1.0000 0.20210  0.84890  0.45060  Biso   1.000  C
  H10      1.0000 0.19580  0.90790  0.44790  Biso   1.000  H
  C32      1.0000 0.29410  0.67980  0.35020  Biso   1.000  C
  C33      1.0000 0.14340  0.84540  0.55670  Biso   1.000  C
  C34      1.0000 0.01950  0.85440  0.59050  Biso   1.000  C
  H11      1.0000 0.95010  0.83050  0.58120  Biso   1.000  H
  C35      1.0000 0.00200  0.89890  0.63770  Biso   1.000  C
  C36      1.0000 0.10570  0.93200  0.65410  Biso   1.000  C
  H12      1.0000 0.09350  0.95970  0.68680  Biso   1.000  H
  C37      1.0000 0.23070  0.92320  0.62050  Biso   1.000  C
  C38      1.0000 0.24880  0.88190  0.57340  Biso   1.000  C
  H13      1.0000 0.33080  0.87710  0.55140  Biso   1.000  H
  C39      1.0000 0.35070  0.95240  0.63710  Biso   1.000  C
  C40      1.0000 0.86520  0.91340  0.66930  Biso   1.000  C
  C41      1.0000 0.15790  0.65230  0.56580  Biso   1.000  C
  C42      1.0000 0.03330  0.63630  0.58940  Biso   1.000  C
  H14      1.0000 0.95570  0.66600  0.56990  Biso   1.000  H
  C43      1.0000 0.02100  0.57690  0.64140  Biso   1.000  C
  C44      1.0000 0.13530  0.53400  0.67030  Biso   1.000  C
  H15      1.0000 0.12760  0.49610  0.70590  Biso   1.000  H
  C45      1.0000 0.26190  0.54600  0.64770  Biso   1.000  C
  C46      1.0000 0.27250  0.60690  0.59530  Biso   1.000  C
  H16      1.0000 0.35710  0.61660  0.58030  Biso   1.000  H
  C47      1.0000 0.38730  0.49690  0.67890  Biso   1.000  C
  C48      1.0000 0.88530  0.55780  0.66350  Biso   1.000  C
  O1       1.0000 0.94540  0.96720  0.22210  Biso   1.000  O
  O2       1.0000 0.03350  0.06250  0.15950  Biso   1.000  O
  O3       1.0000 0.43650  0.98820  0.22000  Biso   1.000  O
  O4       1.0000 0.34090  0.04820  0.13570  Biso   1.000  O
  O5       1.0000 0.33150  0.40670  0.14940  Biso   1.000  O
  O6       1.0000 0.42990  0.43420  0.22420  Biso   1.000  O
  O7       1.0000 0.91140  0.46430  0.18640  Biso   1.000  O
  O8       1.0000 0.03380  0.40290  0.11620  Biso   1.000  O
  O9       1.0000 0.83240  0.41310  0.83600  Biso   1.000  O
  O10      1.0000 0.68130  0.36890  0.79390  Biso   1.000  O
  O11      1.0000 0.61720  0.18830  0.81770  Biso   1.000  O
  O12      1.0000 0.81730  0.12820  0.84340  Biso   1.000  O
  O13      1.0000 0.21170  0.88260  0.30070  Biso   1.000  O
  O14      1.0000 0.38060  0.90380  0.34720  Biso   1.000  O
  O15      1.0000 0.38830  0.70530  0.31840  Biso   1.000  O
  O16      1.0000 0.23410  0.62170  0.34470  Biso   1.000  O
  O17      1.0000 0.45280  0.94930  0.60280  Biso   1.000  O
  O18      1.0000 0.34400  0.97840  0.68600  Biso   1.000  O
  O19      1.0000 0.85010  0.92500  0.72210  Biso   1.000  O
  O20      1.0000 0.76210  0.91450  0.63910  Biso   1.000  O
  O21      1.0000 0.49550  0.51970  0.65960  Biso   1.000  O
  O22      1.0000 0.37650  0.43770  0.72240  Biso   1.000  O
  O23      1.0000 0.87980  0.51130  0.71490  Biso   1.000  O
  O24      1.0000 0.78880  0.57970  0.63110  Biso   1.000  O
  Cd6      1.0000 0.79551  0.02809  0.78860  Biso   1.000  Cd
  Cd7      1.0000 0.86403  0.55562  0.80449  Biso   1.000  Cd
  Cd8      1.0000 0.57596  0.96372  0.69310  Biso   1.000  Cd
  Cd9      1.0000 0.50120  0.31384  0.76901  Biso   1.000  Cd
  Cd10     1.0000 0.67622  0.47686  0.71203  Biso   1.000  Cd
  C49      1.0000 0.06580  0.97100  0.82090  Biso   1.000  C
  C50      1.0000 0.19770  0.93560  0.84960  Biso   1.000  C
  C51      1.0000 0.20520  0.87380  0.90100  Biso   1.000  C
  H17      1.0000 0.12960  0.85070  0.91490  Biso   1.000  H
  C52      1.0000 0.32270  0.84560  0.93220  Biso   1.000  C
  C53      1.0000 0.43520  0.87650  0.90960  Biso   1.000  C
  H18      1.0000 0.51410  0.85810  0.93030  Biso   1.000  H
  C54      1.0000 0.43480  0.93530  0.85600  Biso   1.000  C
  C55      1.0000 0.31490  0.96590  0.82700  Biso   1.000  C
  H19      1.0000 0.31210  0.00680  0.79230  Biso   1.000  H
  C56      1.0000 0.55950  0.96800  0.83280  Biso   1.000  C
  C57      1.0000 0.56790  0.58360  0.82620  Biso   1.000  C
  C58      1.0000 0.43770  0.60200  0.86150  Biso   1.000  C
  C59      1.0000 0.42670  0.64390  0.90960  Biso   1.000  C
  H20      1.0000 0.50160  0.66210  0.91940  Biso   1.000  H
  C60      1.0000 0.30590  0.65940  0.94360  Biso   1.000  C
  C61      1.0000 0.19210  0.63370  0.92710  Biso   1.000  C
  H21      1.0000 0.11030  0.64470  0.94880  Biso   1.000  H
  C62      1.0000 0.20170  0.59170  0.87800  Biso   1.000  C
  C63      1.0000 0.32550  0.57390  0.84590  Biso   1.000  C
  H22      1.0000 0.33360  0.54380  0.81460  Biso   1.000  H
  C64      1.0000 0.07990  0.57240  0.85750  Biso   1.000  C
  C65      1.0000 0.29810  0.70140  0.99630  Biso   1.000  C
  C66      1.0000 0.27750  0.65440  0.05330  Biso   1.000  C
  H23      1.0000 0.26370  0.59850  0.05650  Biso   1.000  H
  C67      1.0000 0.27660  0.68650  0.10450  Biso   1.000  C
  C68      1.0000 0.29750  0.77310  0.09950  Biso   1.000  C
  C69      1.0000 0.31430  0.82020  0.04160  Biso   1.000  C
  H24      1.0000 0.32440  0.87700  0.03770  Biso   1.000  H
  C70      1.0000 0.31640  0.78600  0.99110  Biso   1.000  C
  C71      1.0000 0.25350  0.63100  0.16240  Biso   1.000  C
  C72      1.0000 0.28660  0.82140  0.15090  Biso   1.000  C
  C73      1.0000 0.71610  0.13090  0.65570  Biso   1.000  C
  C74      1.0000 0.75570  0.18790  0.59950  Biso   1.000  C
  C75      1.0000 0.75570  0.27390  0.59690  Biso   1.000  C
  C76      1.0000 0.79160  0.32240  0.54380  Biso   1.000  C
  H25      1.0000 0.79300  0.38020  0.54250  Biso   1.000  H
  C77      1.0000 0.82640  0.28670  0.49140  Biso   1.000  C
  C78      1.0000 0.83090  0.19900  0.49570  Biso   1.000  C
  C79      1.0000 0.79790  0.15110  0.54940  Biso   1.000  C
  H26      1.0000 0.80420  0.09210  0.55210  Biso   1.000  H
  C80      1.0000 0.70590  0.32020  0.64980  Biso   1.000  C
  C81      1.0000 0.85660  0.15460  0.44330  Biso   1.000  C
  C82      1.0000 0.98050  0.14560  0.40950  Biso   1.000  C
  H27      1.0000 0.04990  0.16950  0.41880  Biso   1.000  H
  C83      1.0000 0.99800  0.10110  0.36230  Biso   1.000  C
  C84      1.0000 0.89430  0.06800  0.34590  Biso   1.000  C
  H28      1.0000 0.90650  0.04030  0.31320  Biso   1.000  H
  C85      1.0000 0.76930  0.07680  0.37950  Biso   1.000  C
  C86      1.0000 0.75120  0.11810  0.42660  Biso   1.000  C
  H29      1.0000 0.66920  0.12290  0.44860  Biso   1.000  H
  C87      1.0000 0.64930  0.04760  0.36290  Biso   1.000  C
  C88      1.0000 0.13480  0.08660  0.33070  Biso   1.000  C
  C89      1.0000 0.84210  0.34770  0.43420  Biso   1.000  C
  C90      1.0000 0.96670  0.36370  0.41060  Biso   1.000  C
  H30      1.0000 0.04430  0.33400  0.43010  Biso   1.000  H
  C91      1.0000 0.97900  0.42310  0.35860  Biso   1.000  C
  C92      1.0000 0.86470  0.46600  0.32970  Biso   1.000  C
  H31      1.0000 0.87240  0.50390  0.29410  Biso   1.000  H
  C93      1.0000 0.73810  0.45400  0.35230  Biso   1.000  C
  C94      1.0000 0.72750  0.39310  0.40470  Biso   1.000  C
  H32      1.0000 0.64290  0.38340  0.41970  Biso   1.000  H
  C95      1.0000 0.61270  0.50310  0.32110  Biso   1.000  C
  C96      1.0000 0.11470  0.44220  0.33650  Biso   1.000  C
  O25      1.0000 0.05460  0.03280  0.77790  Biso   1.000  O
  O26      1.0000 0.96650  0.93750  0.84050  Biso   1.000  O
  O27      1.0000 0.56350  0.01180  0.78000  Biso   1.000  O
  O28      1.0000 0.65910  0.95180  0.86430  Biso   1.000  O
  O29      1.0000 0.66850  0.59330  0.85060  Biso   1.000  O
  O30      1.0000 0.57010  0.56580  0.77580  Biso   1.000  O
  O31      1.0000 0.08860  0.53570  0.81360  Biso   1.000  O
  O32      1.0000 0.96620  0.59710  0.88380  Biso   1.000  O
  O33      1.0000 0.16760  0.58690  0.16400  Biso   1.000  O
  O34      1.0000 0.31870  0.63110  0.20610  Biso   1.000  O
  O35      1.0000 0.38280  0.81170  0.18230  Biso   1.000  O
  O36      1.0000 0.18270  0.87180  0.15660  Biso   1.000  O
  O37      1.0000 0.78830  0.11740  0.69930  Biso   1.000  O
  O38      1.0000 0.61940  0.09620  0.65280  Biso   1.000  O
  O39      1.0000 0.61170  0.29470  0.68160  Biso   1.000  O
  O40      1.0000 0.76590  0.37830  0.65530  Biso   1.000  O
  O41      1.0000 0.54720  0.05070  0.39720  Biso   1.000  O
  O42      1.0000 0.65600  0.02160  0.31400  Biso   1.000  O
  O43      1.0000 0.14990  0.07500  0.27790  Biso   1.000  O
  O44      1.0000 0.23790  0.08550  0.36090  Biso   1.000  O
  O45      1.0000 0.50450  0.48030  0.34040  Biso   1.000  O
  O46      1.0000 0.62350  0.56230  0.27760  Biso   1.000  O
  O47      1.0000 0.12020  0.48870  0.28510  Biso   1.000  O
  O48      1.0000 0.21120  0.42030  0.36890  Biso   1.000  O
  Cd11     1.0000 0.50000  0.00000  0.50000  Biso   1.000  Cd
