data_IJEXUR_clean
_audit_creation_date              2014-07-02
_audit_creation_method            'Materials Studio'
_symmetry_space_group_name_H-M    'P1'
_symmetry_Int_Tables_number       1
_symmetry_cell_setting            triclinic
loop_
_symmetry_equiv_pos_as_xyz
  x,y,z
_cell_length_a                    10.7882
_cell_length_b                    12.3072
_cell_length_c                    14.2893
_cell_angle_alpha                 83.1830
_cell_angle_beta                  69.5900
_cell_angle_gamma                 65.1740
loop_
_atom_site_label
_atom_site_type_symbol
_atom_site_fract_x
_atom_site_fract_y
_atom_site_fract_z
_atom_site_U_iso_or_equiv
_atom_site_adp_type
_atom_site_occupancy
Zn1    Zn    0.24843   0.44568   0.96180   0.01267  Uiso   1.00
Zn2    Zn    0.21081   0.20392   0.09321   0.01267  Uiso   1.00
Zn3    Zn    0.75157   0.55432   0.03820   0.01267  Uiso   1.00
Zn4    Zn    0.78919   0.79608   0.90679   0.01267  Uiso   1.00
Zn5    Zn    0.50000   0.50000   0.00000   0.01267  Uiso   1.00
H1     H     0.50190   0.68140   0.02230   0.01267  Uiso   1.00
H2     H     0.07400   0.35520   0.00310   0.01267  Uiso   1.00
H3     H     0.45400   0.28470   0.32970   0.01267  Uiso   1.00
H4     H     0.49310   0.31360   0.16200   0.01267  Uiso   1.00
H5     H     0.32820   0.65860   0.19970   0.01267  Uiso   1.00
H6     H     0.38090   0.31310   0.61730   0.01267  Uiso   1.00
H7     H     0.86050   0.77380   0.12740   0.01267  Uiso   1.00
H8     H     0.20200   0.85750   0.05820   0.01267  Uiso   1.00
H9     H     0.22420   0.63980   0.81200   0.01267  Uiso   1.00
H10    H     0.28400   0.63920   0.36790   0.01267  Uiso   1.00
H11    H     0.12550   0.22640   0.45550   0.01267  Uiso   1.00
H12    H     0.01280   0.54260   0.32580   0.01267  Uiso   1.00
H13    H     0.79240   0.10050   0.19440   0.01267  Uiso   1.00
H14    H     0.19760   0.13630   0.30700   0.01267  Uiso   1.00
H15    H     0.34920   0.29690   0.78500   0.01267  Uiso   1.00
H16    H     0.24980   0.66680   0.64730   0.01267  Uiso   1.00
H17    H     0.09170   0.44290   0.17750   0.01267  Uiso   1.00
H18    H     0.49810   0.31860   0.97770   0.01267  Uiso   1.00
H19    H     0.92600   0.64480   0.99690   0.01267  Uiso   1.00
H20    H     0.54600   0.71530   0.67030   0.01267  Uiso   1.00
H21    H     0.50690   0.68640   0.83800   0.01267  Uiso   1.00
H22    H     0.67180   0.34140   0.80030   0.01267  Uiso   1.00
H23    H     0.61910   0.68690   0.38270   0.01267  Uiso   1.00
H24    H     0.13950   0.22620   0.87260   0.01267  Uiso   1.00
H25    H     0.79800   0.14250   0.94180   0.01267  Uiso   1.00
H26    H     0.77580   0.36020   0.18800   0.01267  Uiso   1.00
H27    H     0.71600   0.36080   0.63210   0.01267  Uiso   1.00
H28    H     0.87450   0.77360   0.54450   0.01267  Uiso   1.00
H29    H     0.98720   0.45740   0.67420   0.01267  Uiso   1.00
H30    H     0.20760   0.89950   0.80560   0.01267  Uiso   1.00
H31    H     0.80240   0.86370   0.69300   0.01267  Uiso   1.00
H32    H     0.65080   0.70310   0.21500   0.01267  Uiso   1.00
H33    H     0.75020   0.33320   0.35270   0.01267  Uiso   1.00
H34    H     0.90830   0.55710   0.82250   0.01267  Uiso   1.00
C1     C     0.15750   0.67420   0.03610   0.01267  Uiso   1.00
C2     C     0.42900   0.36140   0.30460   0.01267  Uiso   1.00
C3     C     0.45140   0.38050   0.20450   0.01267  Uiso   1.00
C4     C     0.04780   0.79640   0.08550   0.01267  Uiso   1.00
C5     C     0.35490   0.58250   0.22580   0.01267  Uiso   1.00
C6     C     0.34770   0.38080   0.65690   0.01267  Uiso   1.00
C7     C     0.89730   0.82980   0.12760   0.01267  Uiso   1.00
C8     C     0.10300   0.87740   0.08500   0.01267  Uiso   1.00
C9     C     0.00490   0.99290   0.12660   0.01267  Uiso   1.00
C10    C     0.25430   0.57350   0.77150   0.01267  Uiso   1.00
C11    C     0.80180   0.94350   0.16940   0.01267  Uiso   1.00
C12    C     0.06070   0.39470   0.40690   0.01267  Uiso   1.00
C13    C     0.32870   0.57140   0.32610   0.01267  Uiso   1.00
C14    C     0.11730   0.27200   0.39950   0.01267  Uiso   1.00
C15    C     0.06210   0.08220   0.12300   0.01267  Uiso   1.00
C16    C     0.05090   0.45940   0.32270   0.01267  Uiso   1.00
C17    C     0.31720   0.49360   0.61560   0.01267  Uiso   1.00
C18    C     0.85470   0.02360   0.16800   0.01267  Uiso   1.00
C19    C     0.16020   0.21950   0.31130   0.01267  Uiso   1.00
C20    C     0.32790   0.37180   0.75670   0.01267  Uiso   1.00
C21    C     0.36860   0.45970   0.36460   0.01267  Uiso   1.00
C22    C     0.27030   0.59080   0.67360   0.01267  Uiso   1.00
C23    C     0.09780   0.39950   0.23480   0.01267  Uiso   1.00
C24    C     0.84250   0.32580   0.96390   0.01267  Uiso   1.00
C25    C     0.57100   0.63860   0.69540   0.01267  Uiso   1.00
C26    C     0.54860   0.61950   0.79550   0.01267  Uiso   1.00
C27    C     0.95220   0.20360   0.91450   0.01267  Uiso   1.00
C28    C     0.64510   0.41750   0.77420   0.01267  Uiso   1.00
C29    C     0.65230   0.61920   0.34310   0.01267  Uiso   1.00
C30    C     0.10270   0.17020   0.87240   0.01267  Uiso   1.00
C31    C     0.89700   0.12260   0.91500   0.01267  Uiso   1.00
C32    C     0.99510   0.00710   0.87340   0.01267  Uiso   1.00
C33    C     0.74570   0.42650   0.22850   0.01267  Uiso   1.00
C34    C     0.19820   0.05650   0.83060   0.01267  Uiso   1.00
C35    C     0.93930   0.60530   0.59310   0.01267  Uiso   1.00
C36    C     0.67130   0.42860   0.67390   0.01267  Uiso   1.00
C37    C     0.88270   0.72800   0.60050   0.01267  Uiso   1.00
C38    C     0.93790   0.91780   0.87700   0.01267  Uiso   1.00
C39    C     0.94910   0.54060   0.67730   0.01267  Uiso   1.00
C40    C     0.68280   0.50640   0.38440   0.01267  Uiso   1.00
C41    C     0.14530   0.97640   0.83200   0.01267  Uiso   1.00
C42    C     0.83980   0.78050   0.68870   0.01267  Uiso   1.00
C43    C     0.67210   0.62820   0.24330   0.01267  Uiso   1.00
C44    C     0.63140   0.54030   0.63540   0.01267  Uiso   1.00
C45    C     0.72970   0.40920   0.32640   0.01267  Uiso   1.00
C46    C     0.90220   0.60050   0.76520   0.01267  Uiso   1.00
S1     S     0.60390   0.98570   0.22340   0.01267  Uiso   1.00
S2     S     0.39610   0.01430   0.77660   0.01267  Uiso   1.00
N1     N     0.41820   0.48680   0.16410   0.01267  Uiso   1.00
N2     N     0.27910   0.46740   0.81340   0.01267  Uiso   1.00
N3     N     0.15230   0.28060   0.22830   0.01267  Uiso   1.00
N4     N     0.33250   0.51840   0.51160   0.01267  Uiso   1.00
N5     N     0.35200   0.43570   0.46930   0.01267  Uiso   1.00
N6     N     0.01660   0.44560   0.50020   0.01267  Uiso   1.00
N7     N     0.58180   0.51320   0.83590   0.01267  Uiso   1.00
N8     N     0.72090   0.53260   0.18660   0.01267  Uiso   1.00
N9     N     0.84770   0.71940   0.77170   0.01267  Uiso   1.00
N10    N     0.66750   0.48160   0.48840   0.01267  Uiso   1.00
N11    N     0.64800   0.56430   0.53070   0.01267  Uiso   1.00
N12    N     0.98340   0.55440   0.49980   0.01267  Uiso   1.00
O1     O     0.57880   0.91040   0.17450   0.01267  Uiso   1.00
O2     O     0.57230   0.95410   0.32050   0.01267  Uiso   1.00
O3     O     0.53560   0.10190   0.19320   0.01267  Uiso   1.00
O4     O     0.10250   0.60430   0.03110   0.01267  Uiso   1.00
O5     O     0.29120   0.64950   0.00410   0.01267  Uiso   1.00
O6     O     0.57550   0.61480   0.01000   0.01267  Uiso   1.00
O7     O     0.15550   0.33730   0.00990   0.01267  Uiso   1.00
O8     O     0.19970   0.04940   0.09570   0.01267  Uiso   1.00
O9     O     0.97830   0.18760   0.14370   0.01267  Uiso   1.00
O10    O     0.42120   0.08960   0.82550   0.01267  Uiso   1.00
O11    O     0.42770   0.04590   0.67950   0.01267  Uiso   1.00
O12    O     0.46440   0.89810   0.80680   0.01267  Uiso   1.00
O13    O     0.89750   0.39570   0.96890   0.01267  Uiso   1.00
O14    O     0.70880   0.35050   0.99590   0.01267  Uiso   1.00
O15    O     0.42450   0.38520   0.99000   0.01267  Uiso   1.00
O16    O     0.84450   0.66270   0.99010   0.01267  Uiso   1.00
O17    O     0.80030   0.95060   0.90430   0.01267  Uiso   1.00
O18    O     0.02170   0.81240   0.85630   0.01267  Uiso   1.00
