data_image0
_cell_length_a       16.379
_cell_length_b       16.361
_cell_length_c       28.999
_cell_angle_alpha    90
_cell_angle_beta     90
_cell_angle_gamma    90

_symmetry_space_group_name_H-M    "P 1"
_symmetry_int_tables_number       1

loop_
  _symmetry_equiv_pos_as_xyz
  'x, y, z'

loop_
  _atom_site_label
  _atom_site_occupancy
  _atom_site_fract_x
  _atom_site_fract_y
  _atom_site_fract_z
  _atom_site_thermal_displace_type
  _atom_site_B_iso_or_equiv
  _atom_site_type_symbol
  O1       1.0000 0.41471  0.71506  0.72163  Biso   1.000  O
  C1       1.0000 0.44061  0.64204  0.72849  Biso   1.000  C
  C2       1.0000 0.39975  0.59785  0.76793  Biso   1.000  C
  C3       1.0000 0.29652  0.59312  0.82711  Biso   1.000  C
  C4       1.0000 0.42830  0.52215  0.78220  Biso   1.000  C
  H1       1.0000 0.47250  0.49840  0.76710  Biso   1.000  H
  C5       1.0000 0.32515  0.51764  0.84116  Biso   1.000  C
  H2       1.0000 0.30010  0.49080  0.86560  Biso   1.000  H
  C6       1.0000 0.39151  0.48150  0.81880  Biso   1.000  C
  C7       1.0000 0.42168  0.39983  0.83397  Biso   1.000  C
  O2       1.0000 0.48483  0.37227  0.81348  Biso   1.000  O
  O3       1.0000 0.38343  0.36317  0.86509  Biso   1.000  O
  O4       1.0000 0.17972  0.59221  0.87606  Biso   1.000  O
  Zn1      1.0000 0.54027  0.15991  0.92001  Biso   1.000  Zn
  Zn2      1.0000 0.54947  0.27750  0.83072  Biso   1.000  Zn
  Zn3      1.0000 0.37289  0.24667  0.88234  Biso   1.000  Zn
  O5       1.0000 0.35022  0.24145  0.94835  Biso   1.000  O
  O6       1.0000 0.21953  0.71053  0.84632  Biso   1.000  O
  O7       1.0000 0.48011  0.19942  0.86589  Biso   1.000  O
  O8       1.0000 0.42905  0.95061  0.07404  Biso   1.000  O
  C8       1.0000 0.23347  0.16516  0.07123  Biso   1.000  C
  O9       1.0000 0.46100  0.17183  0.97040  Biso   1.000  O
  C9       1.0000 0.26333  0.09348  0.09137  Biso   1.000  C
  H3       1.0000 0.23630  0.07060  0.11640  Biso   1.000  H
  C10      1.0000 0.34413  0.16251  0.01659  Biso   1.000  C
  C11      1.0000 0.27319  0.19836  0.03324  Biso   1.000  C
  H4       1.0000 0.25220  0.24470  0.01890  Biso   1.000  H
  C12      1.0000 0.37360  0.09270  0.03740  Biso   1.000  C
  H5       1.0000 0.42170  0.06940  0.02660  Biso   1.000  H
  C13      1.0000 0.38813  0.19515  0.97512  Biso   1.000  C
  C14      1.0000 0.33329  0.05636  0.07406  Biso   1.000  C
  O10      1.0000 0.49426  0.60692  0.70655  Biso   1.000  O
  C15      1.0000 0.33400  0.63245  0.79061  Biso   1.000  C
  H6       1.0000 0.31460  0.68320  0.78110  Biso   1.000  H
  O11      1.0000 0.32675  0.94001  0.12317  Biso   1.000  O
  C16      1.0000 0.22637  0.63272  0.85205  Biso   1.000  C
  C17      1.0000 0.36361  0.97582  0.09318  Biso   1.000  C
  C18      1.0000 0.15954  0.20638  0.09106  Biso   1.000  C
  O12      1.0000 0.12666  0.26130  0.06701  Biso   1.000  O
  O13      1.0000 0.13613  0.18309  0.13019  Biso   1.000  O
  H7       1.0000 0.48100  0.16530  0.84470  Biso   1.000  H
  O14      1.0000 0.08529  0.28494  0.22163  Biso   1.000  O
  C19      1.0000 0.05939  0.35796  0.22849  Biso   1.000  C
  C20      1.0000 0.10025  0.40215  0.26793  Biso   1.000  C
  C21      1.0000 0.20348  0.40688  0.32711  Biso   1.000  C
  C22      1.0000 0.07170  0.47785  0.28220  Biso   1.000  C
  H8       1.0000 0.02750  0.50160  0.26710  Biso   1.000  H
  C23      1.0000 0.17485  0.48236  0.34116  Biso   1.000  C
  H9       1.0000 0.19990  0.50920  0.36560  Biso   1.000  H
  C24      1.0000 0.10849  0.51850  0.31880  Biso   1.000  C
  C25      1.0000 0.07832  0.60017  0.33397  Biso   1.000  C
  O15      1.0000 0.01517  0.62773  0.31348  Biso   1.000  O
  O16      1.0000 0.11657  0.63683  0.36509  Biso   1.000  O
  O17      1.0000 0.32028  0.40779  0.37606  Biso   1.000  O
  Zn4      1.0000 0.95973  0.84009  0.42001  Biso   1.000  Zn
  Zn5      1.0000 0.95052  0.72250  0.33072  Biso   1.000  Zn
  Zn6      1.0000 0.12711  0.75333  0.38234  Biso   1.000  Zn
  O18      1.0000 0.14978  0.75855  0.44835  Biso   1.000  O
  O19      1.0000 0.28047  0.28947  0.34632  Biso   1.000  O
  O20      1.0000 0.01989  0.80058  0.36589  Biso   1.000  O
  O21      1.0000 0.07095  0.04939  0.57404  Biso   1.000  O
  C26      1.0000 0.26653  0.83484  0.57123  Biso   1.000  C
  O22      1.0000 0.03900  0.82817  0.47040  Biso   1.000  O
  C27      1.0000 0.23667  0.90652  0.59137  Biso   1.000  C
  H10      1.0000 0.26370  0.92940  0.61640  Biso   1.000  H
  C28      1.0000 0.15587  0.83749  0.51659  Biso   1.000  C
  C29      1.0000 0.22681  0.80164  0.53324  Biso   1.000  C
  H11      1.0000 0.24780  0.75530  0.51890  Biso   1.000  H
  C30      1.0000 0.12640  0.90730  0.53740  Biso   1.000  C
  H12      1.0000 0.07830  0.93060  0.52660  Biso   1.000  H
  C31      1.0000 0.11187  0.80485  0.47512  Biso   1.000  C
  C32      1.0000 0.16671  0.94364  0.57406  Biso   1.000  C
  O23      1.0000 0.00574  0.39308  0.20655  Biso   1.000  O
  C33      1.0000 0.16600  0.36755  0.29061  Biso   1.000  C
  H13      1.0000 0.18540  0.31680  0.28110  Biso   1.000  H
  O24      1.0000 0.17325  0.05999  0.62317  Biso   1.000  O
  C34      1.0000 0.27363  0.36728  0.35205  Biso   1.000  C
  C35      1.0000 0.13639  0.02418  0.59318  Biso   1.000  C
  C36      1.0000 0.34046  0.79362  0.59106  Biso   1.000  C
  O25      1.0000 0.37334  0.73870  0.56701  Biso   1.000  O
  O26      1.0000 0.36387  0.81691  0.63019  Biso   1.000  O
  H14      1.0000 0.01900  0.83470  0.34470  Biso   1.000  H
  O27      1.0000 0.58529  0.21506  0.77837  Biso   1.000  O
  C37      1.0000 0.55939  0.14204  0.77151  Biso   1.000  C
  C38      1.0000 0.60025  0.09785  0.73207  Biso   1.000  C
  C39      1.0000 0.70348  0.09312  0.67289  Biso   1.000  C
  C40      1.0000 0.57170  0.02215  0.71780  Biso   1.000  C
  H15      1.0000 0.52750  0.99840  0.73290  Biso   1.000  H
  C41      1.0000 0.67485  0.01764  0.65884  Biso   1.000  C
  H16      1.0000 0.69990  0.99080  0.63440  Biso   1.000  H
  C42      1.0000 0.60849  0.98150  0.68120  Biso   1.000  C
  C43      1.0000 0.57832  0.89983  0.66603  Biso   1.000  C
  O28      1.0000 0.51517  0.87227  0.68652  Biso   1.000  O
  O29      1.0000 0.61657  0.86317  0.63491  Biso   1.000  O
  O30      1.0000 0.82028  0.09221  0.62394  Biso   1.000  O
  Zn7      1.0000 0.45973  0.65991  0.57999  Biso   1.000  Zn
  Zn8      1.0000 0.45052  0.77750  0.66928  Biso   1.000  Zn
  Zn9      1.0000 0.62711  0.74667  0.61766  Biso   1.000  Zn
  O31      1.0000 0.64978  0.74145  0.55165  Biso   1.000  O
  O32      1.0000 0.78047  0.21053  0.65368  Biso   1.000  O
  O33      1.0000 0.51989  0.69942  0.63411  Biso   1.000  O
  O34      1.0000 0.57095  0.45061  0.42596  Biso   1.000  O
  C44      1.0000 0.76653  0.66516  0.42877  Biso   1.000  C
  O35      1.0000 0.53900  0.67183  0.52960  Biso   1.000  O
  C45      1.0000 0.73667  0.59348  0.40863  Biso   1.000  C
  H17      1.0000 0.76370  0.57060  0.38360  Biso   1.000  H
  C46      1.0000 0.65587  0.66251  0.48341  Biso   1.000  C
  C47      1.0000 0.72681  0.69836  0.46676  Biso   1.000  C
  H18      1.0000 0.74780  0.74470  0.48110  Biso   1.000  H
  C48      1.0000 0.62640  0.59270  0.46260  Biso   1.000  C
  H19      1.0000 0.57830  0.56940  0.47340  Biso   1.000  H
  C49      1.0000 0.61187  0.69515  0.52488  Biso   1.000  C
  C50      1.0000 0.66671  0.55636  0.42594  Biso   1.000  C
  O36      1.0000 0.50574  0.10692  0.79345  Biso   1.000  O
  C51      1.0000 0.66600  0.13245  0.70939  Biso   1.000  C
  H20      1.0000 0.68540  0.18320  0.71890  Biso   1.000  H
  O37      1.0000 0.67325  0.44001  0.37683  Biso   1.000  O
  C52      1.0000 0.77363  0.13272  0.64795  Biso   1.000  C
  C53      1.0000 0.63639  0.47582  0.40682  Biso   1.000  C
  C54      1.0000 0.84046  0.70638  0.40894  Biso   1.000  C
  O38      1.0000 0.87334  0.76130  0.43299  Biso   1.000  O
  O39      1.0000 0.86387  0.68309  0.36981  Biso   1.000  O
  H21      1.0000 0.51900  0.66530  0.65530  Biso   1.000  H
  O40      1.0000 0.91471  0.78494  0.27837  Biso   1.000  O
  C55      1.0000 0.94061  0.85796  0.27151  Biso   1.000  C
  C56      1.0000 0.89975  0.90215  0.23207  Biso   1.000  C
  C57      1.0000 0.79652  0.90688  0.17289  Biso   1.000  C
  C58      1.0000 0.92830  0.97785  0.21780  Biso   1.000  C
  H22      1.0000 0.97250  0.00160  0.23290  Biso   1.000  H
  C59      1.0000 0.82515  0.98236  0.15884  Biso   1.000  C
  H23      1.0000 0.80010  0.00920  0.13440  Biso   1.000  H
  C60      1.0000 0.89151  0.01850  0.18120  Biso   1.000  C
  C61      1.0000 0.92168  0.10017  0.16603  Biso   1.000  C
  O41      1.0000 0.98483  0.12773  0.18652  Biso   1.000  O
  O42      1.0000 0.88343  0.13683  0.13491  Biso   1.000  O
  O43      1.0000 0.67972  0.90779  0.12394  Biso   1.000  O
  Zn10     1.0000 0.04027  0.34009  0.07999  Biso   1.000  Zn
  Zn11     1.0000 0.04947  0.22250  0.16928  Biso   1.000  Zn
  Zn12     1.0000 0.87289  0.25333  0.11766  Biso   1.000  Zn
  O44      1.0000 0.85022  0.25855  0.05165  Biso   1.000  O
  O45      1.0000 0.71953  0.78947  0.15368  Biso   1.000  O
  O46      1.0000 0.98011  0.30058  0.13411  Biso   1.000  O
  O47      1.0000 0.92905  0.54939  0.92596  Biso   1.000  O
  C62      1.0000 0.73347  0.33484  0.92877  Biso   1.000  C
  O48      1.0000 0.96100  0.32817  0.02960  Biso   1.000  O
  C63      1.0000 0.76333  0.40652  0.90863  Biso   1.000  C
  H24      1.0000 0.73630  0.42940  0.88360  Biso   1.000  H
  C64      1.0000 0.84413  0.33749  0.98341  Biso   1.000  C
  C65      1.0000 0.77319  0.30164  0.96676  Biso   1.000  C
  H25      1.0000 0.75220  0.25530  0.98110  Biso   1.000  H
  C66      1.0000 0.87360  0.40730  0.96260  Biso   1.000  C
  H26      1.0000 0.92170  0.43060  0.97340  Biso   1.000  H
  C67      1.0000 0.88813  0.30485  0.02488  Biso   1.000  C
  C68      1.0000 0.83329  0.44364  0.92594  Biso   1.000  C
  O49      1.0000 0.99426  0.89308  0.29345  Biso   1.000  O
  C69      1.0000 0.83400  0.86755  0.20939  Biso   1.000  C
  H27      1.0000 0.81460  0.81680  0.21890  Biso   1.000  H
  O50      1.0000 0.82675  0.55999  0.87683  Biso   1.000  O
  C70      1.0000 0.72637  0.86728  0.14795  Biso   1.000  C
  C71      1.0000 0.86361  0.52418  0.90682  Biso   1.000  C
  C72      1.0000 0.65954  0.29362  0.90894  Biso   1.000  C
  O51      1.0000 0.62666  0.23870  0.93299  Biso   1.000  O
  O52      1.0000 0.63613  0.31691  0.86981  Biso   1.000  O
  H28      1.0000 0.98100  0.33470  0.15530  Biso   1.000  H
  O53      1.0000 0.58529  0.28494  0.27837  Biso   1.000  O
  C73      1.0000 0.55939  0.35796  0.27151  Biso   1.000  C
  C74      1.0000 0.60025  0.40215  0.23207  Biso   1.000  C
  C75      1.0000 0.70348  0.40688  0.17289  Biso   1.000  C
  C76      1.0000 0.57170  0.47785  0.21780  Biso   1.000  C
  H29      1.0000 0.52750  0.50160  0.23290  Biso   1.000  H
  C77      1.0000 0.67485  0.48236  0.15884  Biso   1.000  C
  H30      1.0000 0.69990  0.50920  0.13440  Biso   1.000  H
  C78      1.0000 0.60849  0.51850  0.18120  Biso   1.000  C
  C79      1.0000 0.57832  0.60017  0.16603  Biso   1.000  C
  O54      1.0000 0.51517  0.62773  0.18652  Biso   1.000  O
  O55      1.0000 0.61657  0.63683  0.13491  Biso   1.000  O
  O56      1.0000 0.82028  0.40779  0.12394  Biso   1.000  O
  Zn13     1.0000 0.45973  0.84009  0.07999  Biso   1.000  Zn
  Zn14     1.0000 0.45052  0.72250  0.16928  Biso   1.000  Zn
  Zn15     1.0000 0.62711  0.75333  0.11766  Biso   1.000  Zn
  O57      1.0000 0.64978  0.75855  0.05165  Biso   1.000  O
  O58      1.0000 0.78047  0.28947  0.15368  Biso   1.000  O
  O59      1.0000 0.51989  0.80058  0.13411  Biso   1.000  O
  O60      1.0000 0.57095  0.04939  0.92596  Biso   1.000  O
  C80      1.0000 0.76653  0.83484  0.92877  Biso   1.000  C
  O61      1.0000 0.53900  0.82817  0.02960  Biso   1.000  O
  C81      1.0000 0.73667  0.90652  0.90863  Biso   1.000  C
  H31      1.0000 0.76370  0.92940  0.88360  Biso   1.000  H
  C82      1.0000 0.65587  0.83749  0.98341  Biso   1.000  C
  C83      1.0000 0.72681  0.80164  0.96676  Biso   1.000  C
  H32      1.0000 0.74780  0.75530  0.98110  Biso   1.000  H
  C84      1.0000 0.62640  0.90730  0.96260  Biso   1.000  C
  H33      1.0000 0.57830  0.93060  0.97340  Biso   1.000  H
  C85      1.0000 0.61187  0.80485  0.02488  Biso   1.000  C
  C86      1.0000 0.66671  0.94364  0.92594  Biso   1.000  C
  O62      1.0000 0.50574  0.39308  0.29345  Biso   1.000  O
  C87      1.0000 0.66600  0.36755  0.20939  Biso   1.000  C
  H34      1.0000 0.68540  0.31680  0.21890  Biso   1.000  H
  O63      1.0000 0.67325  0.05999  0.87683  Biso   1.000  O
  C88      1.0000 0.77363  0.36728  0.14795  Biso   1.000  C
  C89      1.0000 0.63639  0.02418  0.90682  Biso   1.000  C
  C90      1.0000 0.84046  0.79362  0.90894  Biso   1.000  C
  O64      1.0000 0.87334  0.73870  0.93299  Biso   1.000  O
  O65      1.0000 0.86387  0.81691  0.86981  Biso   1.000  O
  H35      1.0000 0.51900  0.83470  0.15530  Biso   1.000  H
  O66      1.0000 0.91471  0.71506  0.77837  Biso   1.000  O
  C91      1.0000 0.94061  0.64204  0.77151  Biso   1.000  C
  C92      1.0000 0.89975  0.59785  0.73207  Biso   1.000  C
  C93      1.0000 0.79652  0.59312  0.67289  Biso   1.000  C
  C94      1.0000 0.92830  0.52215  0.71780  Biso   1.000  C
  H36      1.0000 0.97250  0.49840  0.73290  Biso   1.000  H
  C95      1.0000 0.82515  0.51764  0.65884  Biso   1.000  C
  H37      1.0000 0.80010  0.49080  0.63440  Biso   1.000  H
  C96      1.0000 0.89151  0.48150  0.68120  Biso   1.000  C
  C97      1.0000 0.92168  0.39983  0.66603  Biso   1.000  C
  O67      1.0000 0.98483  0.37227  0.68652  Biso   1.000  O
  O68      1.0000 0.88343  0.36317  0.63491  Biso   1.000  O
  O69      1.0000 0.67972  0.59221  0.62394  Biso   1.000  O
  Zn16     1.0000 0.04027  0.15991  0.57999  Biso   1.000  Zn
  Zn17     1.0000 0.04947  0.27750  0.66928  Biso   1.000  Zn
  Zn18     1.0000 0.87289  0.24667  0.61766  Biso   1.000  Zn
  O70      1.0000 0.85022  0.24145  0.55165  Biso   1.000  O
  O71      1.0000 0.71953  0.71053  0.65368  Biso   1.000  O
  O72      1.0000 0.98011  0.19942  0.63411  Biso   1.000  O
  O73      1.0000 0.92905  0.95061  0.42596  Biso   1.000  O
  C98      1.0000 0.73347  0.16516  0.42877  Biso   1.000  C
  O74      1.0000 0.96100  0.17183  0.52960  Biso   1.000  O
  C99      1.0000 0.76333  0.09348  0.40863  Biso   1.000  C
  H38      1.0000 0.73630  0.07060  0.38360  Biso   1.000  H
  C100     1.0000 0.84413  0.16251  0.48341  Biso   1.000  C
  C101     1.0000 0.77319  0.19836  0.46676  Biso   1.000  C
  H39      1.0000 0.75220  0.24470  0.48110  Biso   1.000  H
  C102     1.0000 0.87360  0.09270  0.46260  Biso   1.000  C
  H40      1.0000 0.92170  0.06940  0.47340  Biso   1.000  H
  C103     1.0000 0.88813  0.19515  0.52488  Biso   1.000  C
  C104     1.0000 0.83329  0.05636  0.42594  Biso   1.000  C
  O75      1.0000 0.99426  0.60692  0.79345  Biso   1.000  O
  C105     1.0000 0.83400  0.63245  0.70939  Biso   1.000  C
  H41      1.0000 0.81460  0.68320  0.71890  Biso   1.000  H
  O76      1.0000 0.82675  0.94001  0.37683  Biso   1.000  O
  C106     1.0000 0.72637  0.63272  0.64795  Biso   1.000  C
  C107     1.0000 0.86361  0.97582  0.40682  Biso   1.000  C
  C108     1.0000 0.65954  0.20638  0.40894  Biso   1.000  C
  O77      1.0000 0.62666  0.26130  0.43299  Biso   1.000  O
  O78      1.0000 0.63613  0.18309  0.36981  Biso   1.000  O
  H42      1.0000 0.98100  0.16530  0.65530  Biso   1.000  H
  O79      1.0000 0.41471  0.78494  0.22163  Biso   1.000  O
  C109     1.0000 0.44061  0.85796  0.22849  Biso   1.000  C
  C110     1.0000 0.39975  0.90215  0.26793  Biso   1.000  C
  C111     1.0000 0.29652  0.90688  0.32711  Biso   1.000  C
  C112     1.0000 0.42830  0.97785  0.28220  Biso   1.000  C
  H43      1.0000 0.47250  0.00160  0.26710  Biso   1.000  H
  C113     1.0000 0.32515  0.98236  0.34116  Biso   1.000  C
  H44      1.0000 0.30010  0.00920  0.36560  Biso   1.000  H
  C114     1.0000 0.39151  0.01850  0.31880  Biso   1.000  C
  C115     1.0000 0.42168  0.10017  0.33397  Biso   1.000  C
  O80      1.0000 0.48483  0.12773  0.31348  Biso   1.000  O
  O81      1.0000 0.38343  0.13683  0.36509  Biso   1.000  O
  O82      1.0000 0.17972  0.90779  0.37606  Biso   1.000  O
  Zn19     1.0000 0.54027  0.34009  0.42001  Biso   1.000  Zn
  Zn20     1.0000 0.54947  0.22250  0.33072  Biso   1.000  Zn
  Zn21     1.0000 0.37289  0.25333  0.38234  Biso   1.000  Zn
  O83      1.0000 0.35022  0.25855  0.44835  Biso   1.000  O
  O84      1.0000 0.21953  0.78947  0.34632  Biso   1.000  O
  O85      1.0000 0.48011  0.30058  0.36589  Biso   1.000  O
  O86      1.0000 0.42905  0.54939  0.57404  Biso   1.000  O
  C116     1.0000 0.23347  0.33484  0.57123  Biso   1.000  C
  O87      1.0000 0.46100  0.32817  0.47040  Biso   1.000  O
  C117     1.0000 0.26333  0.40652  0.59137  Biso   1.000  C
  H45      1.0000 0.23630  0.42940  0.61640  Biso   1.000  H
  C118     1.0000 0.34413  0.33749  0.51659  Biso   1.000  C
  C119     1.0000 0.27319  0.30164  0.53324  Biso   1.000  C
  H46      1.0000 0.25220  0.25530  0.51890  Biso   1.000  H
  C120     1.0000 0.37360  0.40730  0.53740  Biso   1.000  C
  H47      1.0000 0.42170  0.43060  0.52660  Biso   1.000  H
  C121     1.0000 0.38813  0.30485  0.47512  Biso   1.000  C
  C122     1.0000 0.33329  0.44364  0.57406  Biso   1.000  C
  O88      1.0000 0.49426  0.89308  0.20655  Biso   1.000  O
  C123     1.0000 0.33400  0.86755  0.29061  Biso   1.000  C
  H48      1.0000 0.31460  0.81680  0.28110  Biso   1.000  H
  O89      1.0000 0.32675  0.55999  0.62317  Biso   1.000  O
  C124     1.0000 0.22637  0.86728  0.35205  Biso   1.000  C
  C125     1.0000 0.36361  0.52418  0.59318  Biso   1.000  C
  C126     1.0000 0.15954  0.29362  0.59106  Biso   1.000  C
  O90      1.0000 0.12666  0.23870  0.56701  Biso   1.000  O
  O91      1.0000 0.13613  0.31691  0.63019  Biso   1.000  O
  H49      1.0000 0.48100  0.33470  0.34470  Biso   1.000  H
  O92      1.0000 0.08529  0.21506  0.72163  Biso   1.000  O
  C127     1.0000 0.05939  0.14204  0.72849  Biso   1.000  C
  C128     1.0000 0.10025  0.09785  0.76793  Biso   1.000  C
  C129     1.0000 0.20348  0.09312  0.82711  Biso   1.000  C
  C130     1.0000 0.07170  0.02215  0.78220  Biso   1.000  C
  H50      1.0000 0.02750  0.99840  0.76710  Biso   1.000  H
  C131     1.0000 0.17485  0.01764  0.84116  Biso   1.000  C
  H51      1.0000 0.19990  0.99080  0.86560  Biso   1.000  H
  C132     1.0000 0.10849  0.98150  0.81880  Biso   1.000  C
  C133     1.0000 0.07832  0.89983  0.83397  Biso   1.000  C
  O93      1.0000 0.01517  0.87227  0.81348  Biso   1.000  O
  O94      1.0000 0.11657  0.86317  0.86509  Biso   1.000  O
  O95      1.0000 0.32028  0.09221  0.87606  Biso   1.000  O
  Zn22     1.0000 0.95973  0.65991  0.92001  Biso   1.000  Zn
  Zn23     1.0000 0.95052  0.77750  0.83072  Biso   1.000  Zn
  Zn24     1.0000 0.12711  0.74667  0.88234  Biso   1.000  Zn
  O96      1.0000 0.14978  0.74145  0.94835  Biso   1.000  O
  O97      1.0000 0.28047  0.21053  0.84632  Biso   1.000  O
  O98      1.0000 0.01989  0.69942  0.86589  Biso   1.000  O
  O99      1.0000 0.07095  0.45061  0.07404  Biso   1.000  O
  C134     1.0000 0.26653  0.66516  0.07123  Biso   1.000  C
  O100     1.0000 0.03900  0.67183  0.97040  Biso   1.000  O
  C135     1.0000 0.23667  0.59348  0.09137  Biso   1.000  C
  H52      1.0000 0.26370  0.57060  0.11640  Biso   1.000  H
  C136     1.0000 0.15587  0.66251  0.01659  Biso   1.000  C
  C137     1.0000 0.22681  0.69836  0.03324  Biso   1.000  C
  H53      1.0000 0.24780  0.74470  0.01890  Biso   1.000  H
  C138     1.0000 0.12640  0.59270  0.03740  Biso   1.000  C
  H54      1.0000 0.07830  0.56940  0.02660  Biso   1.000  H
  C139     1.0000 0.11187  0.69515  0.97512  Biso   1.000  C
  C140     1.0000 0.16671  0.55636  0.07406  Biso   1.000  C
  O101     1.0000 0.00574  0.10692  0.70655  Biso   1.000  O
  C141     1.0000 0.16600  0.13245  0.79061  Biso   1.000  C
  H55      1.0000 0.18540  0.18320  0.78110  Biso   1.000  H
  O102     1.0000 0.17325  0.44001  0.12317  Biso   1.000  O
  C142     1.0000 0.27363  0.13272  0.85205  Biso   1.000  C
  C143     1.0000 0.13639  0.47582  0.09318  Biso   1.000  C
  C144     1.0000 0.34046  0.70638  0.09106  Biso   1.000  C
  O103     1.0000 0.37334  0.76130  0.06701  Biso   1.000  O
  O104     1.0000 0.36387  0.68309  0.13019  Biso   1.000  O
  H56      1.0000 0.01900  0.66530  0.84470  Biso   1.000  H
