data_image0
_cell_length_a       8.1156
_cell_length_b       20.3861
_cell_length_c       8.6579
_cell_angle_alpha    90
_cell_angle_beta     91.199
_cell_angle_gamma    90

_symmetry_space_group_name_H-M    "P 1"
_symmetry_int_tables_number       1

loop_
  _symmetry_equiv_pos_as_xyz
  'x, y, z'

loop_
  _atom_site_label
  _atom_site_occupancy
  _atom_site_fract_x
  _atom_site_fract_y
  _atom_site_fract_z
  _atom_site_thermal_displace_type
  _atom_site_B_iso_or_equiv
  _atom_site_type_symbol
  C1       1.0000 0.88220  0.87020  0.68880  Biso   1.000  C
  H1       1.0000 0.99350  0.86310  0.72100  Biso   1.000  H
  C2       1.0000 0.61900  0.85600  0.64210  Biso   1.000  C
  H2       1.0000 0.51250  0.83670  0.63550  Biso   1.000  H
  C3       1.0000 0.83220  0.63530  0.84560  Biso   1.000  C
  H3       1.0000 0.94020  0.65100  0.82720  Biso   1.000  H
  C4       1.0000 0.56280  0.62980  0.85830  Biso   1.000  C
  H4       1.0000 0.44870  0.64000  0.85040  Biso   1.000  H
  C5       1.0000 0.81270  0.50030  0.21050  Biso   1.000  C
  H5       1.0000 0.89240  0.50300  0.13200  Biso   1.000  H
  C6       1.0000 0.69700  0.49380  0.43650  Biso   1.000  C
  H6       1.0000 0.68240  0.49160  0.54500  Biso   1.000  H
  N1       1.0000 0.82550  0.92370  0.62650  Biso   1.000  N
  N2       1.0000 0.65580  0.91480  0.59720  Biso   1.000  N
  N3       1.0000 0.75860  0.82590  0.70100  Biso   1.000  N
  N4       1.0000 0.78940  0.76320  0.75620  Biso   1.000  N
  N5       1.0000 0.65690  0.73290  0.75950  Biso   1.000  N
  N6       1.0000 0.68780  0.66920  0.81440  Biso   1.000  N
  N7       1.0000 0.79630  0.57850  0.90450  Biso   1.000  N
  N8       1.0000 0.62500  0.57590  0.91280  Biso   1.000  N
  N9       1.0000 0.65300  0.49810  0.18870  Biso   1.000  N
  N10      1.0000 0.57920  0.49300  0.33320  Biso   1.000  N
  N11      1.0000 0.84480  0.49810  0.36600  Biso   1.000  N
  N12      1.0000 0.00310  0.50070  0.42740  Biso   1.000  N
  C7       1.0000 0.11780  0.12980  0.31120  Biso   1.000  C
  H7       1.0000 0.00650  0.13690  0.27900  Biso   1.000  H
  C8       1.0000 0.38100  0.14400  0.35790  Biso   1.000  C
  H8       1.0000 0.48750  0.16330  0.36450  Biso   1.000  H
  C9       1.0000 0.16780  0.36470  0.15440  Biso   1.000  C
  H9       1.0000 0.05980  0.34900  0.17280  Biso   1.000  H
  C10      1.0000 0.43720  0.37020  0.14170  Biso   1.000  C
  H10      1.0000 0.55130  0.36000  0.14960  Biso   1.000  H
  C11      1.0000 0.18730  0.49970  0.78950  Biso   1.000  C
  H11      1.0000 0.10760  0.49700  0.86800  Biso   1.000  H
  C12      1.0000 0.30300  0.50620  0.56350  Biso   1.000  C
  H12      1.0000 0.31760  0.50840  0.45500  Biso   1.000  H
  N13      1.0000 0.17450  0.07630  0.37350  Biso   1.000  N
  N14      1.0000 0.34420  0.08520  0.40280  Biso   1.000  N
  N15      1.0000 0.24140  0.17410  0.29900  Biso   1.000  N
  N16      1.0000 0.21060  0.23680  0.24380  Biso   1.000  N
  N17      1.0000 0.34310  0.26710  0.24050  Biso   1.000  N
  N18      1.0000 0.31220  0.33080  0.18560  Biso   1.000  N
  N19      1.0000 0.20370  0.42150  0.09550  Biso   1.000  N
  N20      1.0000 0.37500  0.42410  0.08720  Biso   1.000  N
  N21      1.0000 0.34700  0.50190  0.81130  Biso   1.000  N
  N22      1.0000 0.42080  0.50700  0.66680  Biso   1.000  N
  N23      1.0000 0.15520  0.50190  0.63400  Biso   1.000  N
  N24      1.0000 0.99690  0.49930  0.57260  Biso   1.000  N
  Cu1      1.0000 0.50000  0.50000  0.00000  Biso   1.000  Cu
  C13      1.0000 0.61780  0.37020  0.81120  Biso   1.000  C
  H13      1.0000 0.50650  0.36310  0.77900  Biso   1.000  H
  C14      1.0000 0.88100  0.35600  0.85790  Biso   1.000  C
  H14      1.0000 0.98750  0.33670  0.86450  Biso   1.000  H
  C15      1.0000 0.66780  0.13530  0.65440  Biso   1.000  C
  H15      1.0000 0.55980  0.15100  0.67280  Biso   1.000  H
  C16      1.0000 0.93720  0.12980  0.64170  Biso   1.000  C
  H16      1.0000 0.05130  0.14000  0.64960  Biso   1.000  H
  C17      1.0000 0.68730  0.00030  0.28950  Biso   1.000  C
  H17      1.0000 0.60760  0.00300  0.36800  Biso   1.000  H
  C18      1.0000 0.80300  0.99380  0.06350  Biso   1.000  C
  H18      1.0000 0.81760  0.99160  0.95500  Biso   1.000  H
  N25      1.0000 0.67450  0.42370  0.87350  Biso   1.000  N
  N26      1.0000 0.84420  0.41480  0.90280  Biso   1.000  N
  N27      1.0000 0.74140  0.32590  0.79900  Biso   1.000  N
  N28      1.0000 0.71060  0.26320  0.74380  Biso   1.000  N
  N29      1.0000 0.84310  0.23290  0.74050  Biso   1.000  N
  N30      1.0000 0.81220  0.16920  0.68560  Biso   1.000  N
  N31      1.0000 0.70370  0.07850  0.59550  Biso   1.000  N
  N32      1.0000 0.87500  0.07590  0.58720  Biso   1.000  N
  N33      1.0000 0.84700  0.99810  0.31130  Biso   1.000  N
  N34      1.0000 0.92080  0.99300  0.16680  Biso   1.000  N
  N35      1.0000 0.65520  0.99810  0.13400  Biso   1.000  N
  N36      1.0000 0.49690  0.00070  0.07260  Biso   1.000  N
  C19      1.0000 0.38220  0.62980  0.18880  Biso   1.000  C
  H19      1.0000 0.49350  0.63690  0.22100  Biso   1.000  H
  C20      1.0000 0.11900  0.64400  0.14210  Biso   1.000  C
  H20      1.0000 0.01250  0.66330  0.13550  Biso   1.000  H
  C21      1.0000 0.33220  0.86470  0.34560  Biso   1.000  C
  H21      1.0000 0.44020  0.84900  0.32720  Biso   1.000  H
  C22      1.0000 0.06280  0.87020  0.35830  Biso   1.000  C
  H22      1.0000 0.94870  0.86000  0.35040  Biso   1.000  H
  C23      1.0000 0.31270  0.99970  0.71050  Biso   1.000  C
  H23      1.0000 0.39240  0.99700  0.63200  Biso   1.000  H
  C24      1.0000 0.19700  0.00620  0.93650  Biso   1.000  C
  H24      1.0000 0.18240  0.00840  0.04500  Biso   1.000  H
  N37      1.0000 0.32550  0.57630  0.12650  Biso   1.000  N
  N38      1.0000 0.15580  0.58520  0.09720  Biso   1.000  N
  N39      1.0000 0.25860  0.67410  0.20100  Biso   1.000  N
  N40      1.0000 0.28940  0.73680  0.25620  Biso   1.000  N
  N41      1.0000 0.15690  0.76710  0.25950  Biso   1.000  N
  N42      1.0000 0.18780  0.83080  0.31440  Biso   1.000  N
  N43      1.0000 0.29630  0.92150  0.40450  Biso   1.000  N
  N44      1.0000 0.12500  0.92410  0.41280  Biso   1.000  N
  N45      1.0000 0.15300  0.00190  0.68870  Biso   1.000  N
  N46      1.0000 0.07920  0.00700  0.83320  Biso   1.000  N
  N47      1.0000 0.34480  0.00190  0.86600  Biso   1.000  N
  N48      1.0000 0.50310  0.99930  0.92740  Biso   1.000  N
  Cu2      1.0000 0.00000  0.00000  0.50000  Biso   1.000  Cu
