data_image0
_cell_length_a       9.848
_cell_length_b       12.47
_cell_length_c       12.603
_cell_angle_alpha    63.47
_cell_angle_beta     74.56
_cell_angle_gamma    76.03

_symmetry_space_group_name_H-M    "P 1"
_symmetry_int_tables_number       1

loop_
  _symmetry_equiv_pos_as_xyz
  'x, y, z'

loop_
  _atom_site_label
  _atom_site_occupancy
  _atom_site_fract_x
  _atom_site_fract_y
  _atom_site_fract_z
  _atom_site_thermal_displace_type
  _atom_site_B_iso_or_equiv
  _atom_site_type_symbol
  Ga1      1.0000 0.20020  0.88246  0.51811  Biso   1.000  Ga
  Ga2      1.0000 0.09730  0.40144  0.16234  Biso   1.000  Ga
  Ga3      1.0000 0.36690  0.16190  0.50600  Biso   1.000  Ga
  Co1      1.0000 0.39210  0.66020  0.90310  Biso   1.000  Co
  Co2      1.0000 0.53140  0.53530  0.31000  Biso   1.000  Co
  P1       1.0000 0.11570  0.16940  0.40040  Biso   1.000  P
  P2       1.0000 0.36160  0.89670  0.68510  Biso   1.000  P
  P3       1.0000 0.33870  0.50870  0.17060  Biso   1.000  P
  P4       1.0000 0.45180  0.69790  0.45120  Biso   1.000  P
  P5       1.0000 0.21020  0.48940  0.88310  Biso   1.000  P
  O1       1.0000 0.34490  0.81110  0.43320  Biso   1.000  O
  O2       1.0000 0.23670  0.86680  0.66020  Biso   1.000  O
  O3       1.0000 0.18280  0.04470  0.41440  Biso   1.000  O
  O4       1.0000 0.96080  0.17830  0.46380  Biso   1.000  O
  O5       1.0000 0.15690  0.40080  0.01070  Biso   1.000  O
  O6       1.0000 0.09090  0.53310  0.81100  Biso   1.000  O
  O7       1.0000 0.12710  0.24210  0.26450  Biso   1.000  O
  O8       1.0000 0.18140  0.49650  0.19940  Biso   1.000  O
  O9       1.0000 0.19280  0.22320  0.45260  Biso   1.000  O
  O10      1.0000 0.34190  0.02930  0.65520  Biso   1.000  O
  O11      1.0000 0.49760  0.85790  0.61540  Biso   1.000  O
  O12      1.0000 0.59090  0.71940  0.46210  Biso   1.000  O
  O13      1.0000 0.36540  0.82780  0.82100  Biso   1.000  O
  O14      1.0000 0.25640  0.59470  0.88410  Biso   1.000  O
  O15      1.0000 0.42160  0.40620  0.13700  Biso   1.000  O
  O16      1.0000 0.36560  0.63000  0.06600  Biso   1.000  O
  O17      1.0000 0.46920  0.66930  0.34230  Biso   1.000  O
  O18      1.0000 0.33160  0.41800  0.82760  Biso   1.000  O
  O19      1.0000 0.39400  0.59420  0.56290  Biso   1.000  O
  O20      1.0000 0.37370  0.50720  0.28120  Biso   1.000  O
  Ga4      1.0000 0.79980  0.11754  0.48189  Biso   1.000  Ga
  Ga5      1.0000 0.90270  0.59856  0.83766  Biso   1.000  Ga
  Ga6      1.0000 0.63310  0.83810  0.49400  Biso   1.000  Ga
  Co3      1.0000 0.60790  0.33980  0.09690  Biso   1.000  Co
  Co4      1.0000 0.46860  0.46470  0.69000  Biso   1.000  Co
  P6       1.0000 0.88430  0.83060  0.59960  Biso   1.000  P
  P7       1.0000 0.63840  0.10330  0.31490  Biso   1.000  P
  P8       1.0000 0.66130  0.49130  0.82940  Biso   1.000  P
  P9       1.0000 0.54820  0.30210  0.54880  Biso   1.000  P
  P10      1.0000 0.78980  0.51060  0.11690  Biso   1.000  P
  O21      1.0000 0.65510  0.18890  0.56680  Biso   1.000  O
  O22      1.0000 0.76330  0.13320  0.33980  Biso   1.000  O
  O23      1.0000 0.81720  0.95530  0.58560  Biso   1.000  O
  O24      1.0000 0.03920  0.82170  0.53620  Biso   1.000  O
  O25      1.0000 0.84310  0.59920  0.98930  Biso   1.000  O
  O26      1.0000 0.90910  0.46690  0.18900  Biso   1.000  O
  O27      1.0000 0.87290  0.75790  0.73550  Biso   1.000  O
  O28      1.0000 0.81860  0.50350  0.80060  Biso   1.000  O
  O29      1.0000 0.80720  0.77680  0.54740  Biso   1.000  O
  O30      1.0000 0.65810  0.97070  0.34480  Biso   1.000  O
  O31      1.0000 0.50240  0.14210  0.38460  Biso   1.000  O
  O32      1.0000 0.40910  0.28060  0.53790  Biso   1.000  O
  O33      1.0000 0.63460  0.17220  0.17900  Biso   1.000  O
  O34      1.0000 0.74360  0.40530  0.11590  Biso   1.000  O
  O35      1.0000 0.57840  0.59380  0.86300  Biso   1.000  O
  O36      1.0000 0.63440  0.37000  0.93400  Biso   1.000  O
  O37      1.0000 0.53080  0.33070  0.65770  Biso   1.000  O
  O38      1.0000 0.66840  0.58200  0.17240  Biso   1.000  O
  O39      1.0000 0.60600  0.40580  0.43710  Biso   1.000  O
  O40      1.0000 0.62630  0.49280  0.71880  Biso   1.000  O
