data_image0
_cell_length_a       14.4939
_cell_length_b       10.2595
_cell_length_c       18.6782
_cell_angle_alpha    90
_cell_angle_beta     98.991
_cell_angle_gamma    90

_symmetry_space_group_name_H-M    "P 1"
_symmetry_int_tables_number       1

loop_
  _symmetry_equiv_pos_as_xyz
  'x, y, z'

loop_
  _atom_site_label
  _atom_site_occupancy
  _atom_site_fract_x
  _atom_site_fract_y
  _atom_site_fract_z
  _atom_site_thermal_displace_type
  _atom_site_B_iso_or_equiv
  _atom_site_type_symbol
  V1       1.0000 0.15490  0.88400  0.08720  Biso   1.000  V
  V2       1.0000 0.73700  0.55430  0.78060  Biso   1.000  V
  P1       1.0000 0.21740  0.87640  0.92400  Biso   1.000  P
  P2       1.0000 0.83520  0.83340  0.83160  Biso   1.000  P
  K1       1.0000 0.34380  0.30590  0.04250  Biso   1.000  K
  O1       1.0000 0.20860  0.92390  0.00010  Biso   1.000  O
  O2       1.0000 0.75790  0.73100  0.82530  Biso   1.000  O
  O3       1.0000 0.82050  0.92900  0.89200  Biso   1.000  O
  O4       1.0000 0.21480  0.99770  0.87660  Biso   1.000  O
  O5       1.0000 0.83830  0.90360  0.75990  Biso   1.000  O
  O6       1.0000 0.30780  0.80010  0.92350  Biso   1.000  O
  O7       1.0000 0.04450  0.87230  0.06740  Biso   1.000  O
  O8       1.0000 0.18990  0.85100  0.19080  Biso   1.000  O
  C1       1.0000 0.12040  0.77170  0.89140  Biso   1.000  C
  C2       1.0000 0.94530  0.75270  0.85640  Biso   1.000  C
  C3       1.0000 0.02840  0.84550  0.87530  Biso   1.000  C
  V3       1.0000 0.65490  0.38400  0.08720  Biso   1.000  V
  V4       1.0000 0.23700  0.05430  0.78060  Biso   1.000  V
  P3       1.0000 0.71740  0.37640  0.92400  Biso   1.000  P
  P4       1.0000 0.33520  0.33340  0.83160  Biso   1.000  P
  K2       1.0000 0.84380  0.80590  0.04250  Biso   1.000  K
  O9       1.0000 0.70860  0.42390  0.00010  Biso   1.000  O
  O10      1.0000 0.25790  0.23100  0.82530  Biso   1.000  O
  O11      1.0000 0.32050  0.42900  0.89200  Biso   1.000  O
  O12      1.0000 0.71480  0.49770  0.87660  Biso   1.000  O
  O13      1.0000 0.33830  0.40360  0.75990  Biso   1.000  O
  O14      1.0000 0.80780  0.30010  0.92350  Biso   1.000  O
  O15      1.0000 0.54450  0.37230  0.06740  Biso   1.000  O
  O16      1.0000 0.68990  0.35100  0.19080  Biso   1.000  O
  C4       1.0000 0.62040  0.27170  0.89140  Biso   1.000  C
  C5       1.0000 0.44530  0.25270  0.85640  Biso   1.000  C
  C6       1.0000 0.52840  0.34550  0.87530  Biso   1.000  C
  V5       1.0000 0.84510  0.88400  0.41280  Biso   1.000  V
  V6       1.0000 0.26300  0.55430  0.71940  Biso   1.000  V
  P5       1.0000 0.78260  0.87640  0.57600  Biso   1.000  P
  P6       1.0000 0.16480  0.83340  0.66840  Biso   1.000  P
  K3       1.0000 0.65620  0.30590  0.45750  Biso   1.000  K
  O17      1.0000 0.79140  0.92390  0.49990  Biso   1.000  O
  O18      1.0000 0.24210  0.73100  0.67470  Biso   1.000  O
  O19      1.0000 0.17950  0.92900  0.60800  Biso   1.000  O
  O20      1.0000 0.78520  0.99770  0.62340  Biso   1.000  O
  O21      1.0000 0.16170  0.90360  0.74010  Biso   1.000  O
  O22      1.0000 0.69220  0.80010  0.57650  Biso   1.000  O
  O23      1.0000 0.95550  0.87230  0.43260  Biso   1.000  O
  O24      1.0000 0.81010  0.85100  0.30920  Biso   1.000  O
  C7       1.0000 0.87960  0.77170  0.60860  Biso   1.000  C
  C8       1.0000 0.05470  0.75270  0.64360  Biso   1.000  C
  C9       1.0000 0.97160  0.84550  0.62470  Biso   1.000  C
  V7       1.0000 0.34510  0.38400  0.41280  Biso   1.000  V
  V8       1.0000 0.76300  0.05430  0.71940  Biso   1.000  V
  P7       1.0000 0.28260  0.37640  0.57600  Biso   1.000  P
  P8       1.0000 0.66480  0.33340  0.66840  Biso   1.000  P
  K4       1.0000 0.15620  0.80590  0.45750  Biso   1.000  K
  O25      1.0000 0.29140  0.42390  0.49990  Biso   1.000  O
  O26      1.0000 0.74210  0.23100  0.67470  Biso   1.000  O
  O27      1.0000 0.67950  0.42900  0.60800  Biso   1.000  O
  O28      1.0000 0.28520  0.49770  0.62340  Biso   1.000  O
  O29      1.0000 0.66170  0.40360  0.74010  Biso   1.000  O
  O30      1.0000 0.19220  0.30010  0.57650  Biso   1.000  O
  O31      1.0000 0.45550  0.37230  0.43260  Biso   1.000  O
  O32      1.0000 0.31010  0.35100  0.30920  Biso   1.000  O
  C10      1.0000 0.37960  0.27170  0.60860  Biso   1.000  C
  C11      1.0000 0.55470  0.25270  0.64360  Biso   1.000  C
  C12      1.0000 0.47160  0.34550  0.62470  Biso   1.000  C
  V9       1.0000 0.84510  0.11600  0.91280  Biso   1.000  V
  V10      1.0000 0.26300  0.44570  0.21940  Biso   1.000  V
  P9       1.0000 0.78260  0.12360  0.07600  Biso   1.000  P
  P10      1.0000 0.16480  0.16660  0.16840  Biso   1.000  P
  K5       1.0000 0.65620  0.69410  0.95750  Biso   1.000  K
  O33      1.0000 0.79140  0.07610  0.99990  Biso   1.000  O
  O34      1.0000 0.24210  0.26900  0.17470  Biso   1.000  O
  O35      1.0000 0.17950  0.07100  0.10800  Biso   1.000  O
  O36      1.0000 0.78520  0.00230  0.12340  Biso   1.000  O
  O37      1.0000 0.16170  0.09640  0.24010  Biso   1.000  O
  O38      1.0000 0.69220  0.19990  0.07650  Biso   1.000  O
  O39      1.0000 0.95550  0.12770  0.93260  Biso   1.000  O
  O40      1.0000 0.81010  0.14900  0.80920  Biso   1.000  O
  C13      1.0000 0.87960  0.22830  0.10860  Biso   1.000  C
  C14      1.0000 0.05470  0.24730  0.14360  Biso   1.000  C
  C15      1.0000 0.97160  0.15450  0.12470  Biso   1.000  C
  V11      1.0000 0.34510  0.61600  0.91280  Biso   1.000  V
  V12      1.0000 0.76300  0.94570  0.21940  Biso   1.000  V
  P11      1.0000 0.28260  0.62360  0.07600  Biso   1.000  P
  P12      1.0000 0.66480  0.66660  0.16840  Biso   1.000  P
  K6       1.0000 0.15620  0.19410  0.95750  Biso   1.000  K
  O41      1.0000 0.29140  0.57610  0.99990  Biso   1.000  O
  O42      1.0000 0.74210  0.76900  0.17470  Biso   1.000  O
  O43      1.0000 0.67950  0.57100  0.10800  Biso   1.000  O
  O44      1.0000 0.28520  0.50230  0.12340  Biso   1.000  O
  O45      1.0000 0.66170  0.59640  0.24010  Biso   1.000  O
  O46      1.0000 0.19220  0.69990  0.07650  Biso   1.000  O
  O47      1.0000 0.45550  0.62770  0.93260  Biso   1.000  O
  O48      1.0000 0.31010  0.64900  0.80920  Biso   1.000  O
  C16      1.0000 0.37960  0.72830  0.10860  Biso   1.000  C
  C17      1.0000 0.55470  0.74730  0.14360  Biso   1.000  C
  C18      1.0000 0.47160  0.65450  0.12470  Biso   1.000  C
  V13      1.0000 0.15490  0.11600  0.58720  Biso   1.000  V
  V14      1.0000 0.73700  0.44570  0.28060  Biso   1.000  V
  P13      1.0000 0.21740  0.12360  0.42400  Biso   1.000  P
  P14      1.0000 0.83520  0.16660  0.33160  Biso   1.000  P
  K7       1.0000 0.34380  0.69410  0.54250  Biso   1.000  K
  O49      1.0000 0.20860  0.07610  0.50010  Biso   1.000  O
  O50      1.0000 0.75790  0.26900  0.32530  Biso   1.000  O
  O51      1.0000 0.82050  0.07100  0.39200  Biso   1.000  O
  O52      1.0000 0.21480  0.00230  0.37660  Biso   1.000  O
  O53      1.0000 0.83830  0.09640  0.25990  Biso   1.000  O
  O54      1.0000 0.30780  0.19990  0.42350  Biso   1.000  O
  O55      1.0000 0.04450  0.12770  0.56740  Biso   1.000  O
  O56      1.0000 0.18990  0.14900  0.69080  Biso   1.000  O
  C19      1.0000 0.12040  0.22830  0.39140  Biso   1.000  C
  C20      1.0000 0.94530  0.24730  0.35640  Biso   1.000  C
  C21      1.0000 0.02840  0.15450  0.37530  Biso   1.000  C
  V15      1.0000 0.65490  0.61600  0.58720  Biso   1.000  V
  V16      1.0000 0.23700  0.94570  0.28060  Biso   1.000  V
  P15      1.0000 0.71740  0.62360  0.42400  Biso   1.000  P
  P16      1.0000 0.33520  0.66660  0.33160  Biso   1.000  P
  K8       1.0000 0.84380  0.19410  0.54250  Biso   1.000  K
  O57      1.0000 0.70860  0.57610  0.50010  Biso   1.000  O
  O58      1.0000 0.25790  0.76900  0.32530  Biso   1.000  O
  O59      1.0000 0.32050  0.57100  0.39200  Biso   1.000  O
  O60      1.0000 0.71480  0.50230  0.37660  Biso   1.000  O
  O61      1.0000 0.33830  0.59640  0.25990  Biso   1.000  O
  O62      1.0000 0.80780  0.69990  0.42350  Biso   1.000  O
  O63      1.0000 0.54450  0.62770  0.56740  Biso   1.000  O
  O64      1.0000 0.68990  0.64900  0.69080  Biso   1.000  O
  C22      1.0000 0.62040  0.72830  0.39140  Biso   1.000  C
  C23      1.0000 0.44530  0.74730  0.35640  Biso   1.000  C
  C24      1.0000 0.52840  0.65450  0.37530  Biso   1.000  C
