data_image0
_cell_length_a       24.0431
_cell_length_b       9.0516
_cell_length_c       18.7594
_cell_angle_alpha    90
_cell_angle_beta     114.506
_cell_angle_gamma    90

_symmetry_space_group_name_H-M    "P 1"
_symmetry_int_tables_number       1

loop_
  _symmetry_equiv_pos_as_xyz
  'x, y, z'

loop_
  _atom_site_label
  _atom_site_occupancy
  _atom_site_fract_x
  _atom_site_fract_y
  _atom_site_fract_z
  _atom_site_thermal_displace_type
  _atom_site_B_iso_or_equiv
  _atom_site_type_symbol
  Er1      1.0000 0.45715  0.69334  0.50415  Biso   1.000  Er
  Co1      1.0000 0.28823  0.50929  0.16219  Biso   1.000  Co
  O1       1.0000 0.42150  0.62740  0.37680  Biso   1.000  O
  O2       1.0000 0.37680  0.53880  0.25800  Biso   1.000  O
  O3       1.0000 0.39120  0.87430  0.44500  Biso   1.000  O
  O4       1.0000 0.30290  0.97930  0.42560  Biso   1.000  O
  O5       1.0000 0.53960  0.80440  0.48160  Biso   1.000  O
  O6       1.0000 0.54680  0.56770  0.49610  Biso   1.000  O
  O7       1.0000 0.61640  0.35350  0.45920  Biso   1.000  O
  O8       1.0000 0.66830  0.36810  0.38730  Biso   1.000  O
  N1       1.0000 0.26980  0.66220  0.23050  Biso   1.000  N
  N2       1.0000 0.24150  0.83450  0.29370  Biso   1.000  N
  N3       1.0000 0.64120  0.82300  0.44850  Biso   1.000  N
  H1       1.0000 0.63240  0.90810  0.46130  Biso   1.000  H
  N4       1.0000 0.68400  0.65470  0.40450  Biso   1.000  N
  C1       1.0000 0.37590  0.61890  0.31130  Biso   1.000  C
  C2       1.0000 0.31890  0.69820  0.29660  Biso   1.000  C
  C3       1.0000 0.30170  0.80170  0.33640  Biso   1.000  C
  C4       1.0000 0.33390  0.89060  0.40650  Biso   1.000  C
  C5       1.0000 0.22480  0.74700  0.23110  Biso   1.000  C
  C6       1.0000 0.16190  0.74670  0.16840  Biso   1.000  C
  H2       1.0000 0.14530  0.64860  0.16220  Biso   1.000  H
  H3       1.0000 0.16280  0.77830  0.12010  Biso   1.000  H
  H4       1.0000 0.13680  0.81290  0.18230  Biso   1.000  H
  C7       1.0000 0.56550  0.68620  0.47980  Biso   1.000  C
  C8       1.0000 0.61700  0.69070  0.45680  Biso   1.000  C
  C9       1.0000 0.64460  0.58800  0.43000  Biso   1.000  C
  C10      1.0000 0.64190  0.42570  0.42450  Biso   1.000  C
  C11      1.0000 0.68100  0.79710  0.41720  Biso   1.000  C
  C12      1.0000 0.71660  0.91640  0.40020  Biso   1.000  C
  H5       1.0000 0.75830  0.88510  0.41660  Biso   1.000  H
  H6       1.0000 0.71540  0.00430  0.42810  Biso   1.000  H
  H7       1.0000 0.69910  0.93630  0.34500  Biso   1.000  H
  Er2      1.0000 0.95715  0.19334  0.50415  Biso   1.000  Er
  Co2      1.0000 0.78823  0.00929  0.16219  Biso   1.000  Co
  O9       1.0000 0.92150  0.12740  0.37680  Biso   1.000  O
  O10      1.0000 0.87680  0.03880  0.25800  Biso   1.000  O
  O11      1.0000 0.89120  0.37430  0.44500  Biso   1.000  O
  O12      1.0000 0.80290  0.47930  0.42560  Biso   1.000  O
  O13      1.0000 0.03960  0.30440  0.48160  Biso   1.000  O
  O14      1.0000 0.04680  0.06770  0.49610  Biso   1.000  O
  O15      1.0000 0.11640  0.85350  0.45920  Biso   1.000  O
  O16      1.0000 0.16830  0.86810  0.38730  Biso   1.000  O
  N5       1.0000 0.76980  0.16220  0.23050  Biso   1.000  N
  N6       1.0000 0.74150  0.33450  0.29370  Biso   1.000  N
  N7       1.0000 0.14120  0.32300  0.44850  Biso   1.000  N
  H8       1.0000 0.13240  0.40810  0.46130  Biso   1.000  H
  N8       1.0000 0.18400  0.15470  0.40450  Biso   1.000  N
  C13      1.0000 0.87590  0.11890  0.31130  Biso   1.000  C
  C14      1.0000 0.81890  0.19820  0.29660  Biso   1.000  C
  C15      1.0000 0.80170  0.30170  0.33640  Biso   1.000  C
  C16      1.0000 0.83390  0.39060  0.40650  Biso   1.000  C
  C17      1.0000 0.72480  0.24700  0.23110  Biso   1.000  C
  C18      1.0000 0.66190  0.24670  0.16840  Biso   1.000  C
  H9       1.0000 0.64530  0.14860  0.16220  Biso   1.000  H
  H10      1.0000 0.66280  0.27830  0.12010  Biso   1.000  H
  H11      1.0000 0.63680  0.31290  0.18230  Biso   1.000  H
  C19      1.0000 0.06550  0.18620  0.47980  Biso   1.000  C
  C20      1.0000 0.11700  0.19070  0.45680  Biso   1.000  C
  C21      1.0000 0.14460  0.08800  0.43000  Biso   1.000  C
  C22      1.0000 0.14190  0.92570  0.42450  Biso   1.000  C
  C23      1.0000 0.18100  0.29710  0.41720  Biso   1.000  C
  C24      1.0000 0.21660  0.41640  0.40020  Biso   1.000  C
  H12      1.0000 0.25830  0.38510  0.41660  Biso   1.000  H
  H13      1.0000 0.21540  0.50430  0.42810  Biso   1.000  H
  H14      1.0000 0.19910  0.43630  0.34500  Biso   1.000  H
  Er3      1.0000 0.54285  0.69334  0.99585  Biso   1.000  Er
  Co3      1.0000 0.71177  0.50929  0.33781  Biso   1.000  Co
  O17      1.0000 0.57850  0.62740  0.12320  Biso   1.000  O
  O18      1.0000 0.62320  0.53880  0.24200  Biso   1.000  O
  O19      1.0000 0.60880  0.87430  0.05500  Biso   1.000  O
  O20      1.0000 0.69710  0.97930  0.07440  Biso   1.000  O
  O21      1.0000 0.46040  0.80440  0.01840  Biso   1.000  O
  O22      1.0000 0.45320  0.56770  0.00390  Biso   1.000  O
  O23      1.0000 0.38360  0.35350  0.04080  Biso   1.000  O
  O24      1.0000 0.33170  0.36810  0.11270  Biso   1.000  O
  N9       1.0000 0.73020  0.66220  0.26950  Biso   1.000  N
  N10      1.0000 0.75850  0.83450  0.20630  Biso   1.000  N
  N11      1.0000 0.35880  0.82300  0.05150  Biso   1.000  N
  H15      1.0000 0.36760  0.90810  0.03870  Biso   1.000  H
  N12      1.0000 0.31600  0.65470  0.09550  Biso   1.000  N
  C25      1.0000 0.62410  0.61890  0.18870  Biso   1.000  C
  C26      1.0000 0.68110  0.69820  0.20340  Biso   1.000  C
  C27      1.0000 0.69830  0.80170  0.16360  Biso   1.000  C
  C28      1.0000 0.66610  0.89060  0.09350  Biso   1.000  C
  C29      1.0000 0.77520  0.74700  0.26890  Biso   1.000  C
  C30      1.0000 0.83810  0.74670  0.33160  Biso   1.000  C
  H16      1.0000 0.85470  0.64860  0.33780  Biso   1.000  H
  H17      1.0000 0.83720  0.77830  0.37990  Biso   1.000  H
  H18      1.0000 0.86320  0.81290  0.31770  Biso   1.000  H
  C31      1.0000 0.43450  0.68620  0.02020  Biso   1.000  C
  C32      1.0000 0.38300  0.69070  0.04320  Biso   1.000  C
  C33      1.0000 0.35540  0.58800  0.07000  Biso   1.000  C
  C34      1.0000 0.35810  0.42570  0.07550  Biso   1.000  C
  C35      1.0000 0.31900  0.79710  0.08280  Biso   1.000  C
  C36      1.0000 0.28340  0.91640  0.09980  Biso   1.000  C
  H19      1.0000 0.24170  0.88510  0.08340  Biso   1.000  H
  H20      1.0000 0.28460  0.00430  0.07190  Biso   1.000  H
  H21      1.0000 0.30090  0.93630  0.15500  Biso   1.000  H
  Er4      1.0000 0.04285  0.19334  0.99585  Biso   1.000  Er
  Co4      1.0000 0.21177  0.00929  0.33781  Biso   1.000  Co
  O25      1.0000 0.07850  0.12740  0.12320  Biso   1.000  O
  O26      1.0000 0.12320  0.03880  0.24200  Biso   1.000  O
  O27      1.0000 0.10880  0.37430  0.05500  Biso   1.000  O
  O28      1.0000 0.19710  0.47930  0.07440  Biso   1.000  O
  O29      1.0000 0.96040  0.30440  0.01840  Biso   1.000  O
  O30      1.0000 0.95320  0.06770  0.00390  Biso   1.000  O
  O31      1.0000 0.88360  0.85350  0.04080  Biso   1.000  O
  O32      1.0000 0.83170  0.86810  0.11270  Biso   1.000  O
  N13      1.0000 0.23020  0.16220  0.26950  Biso   1.000  N
  N14      1.0000 0.25850  0.33450  0.20630  Biso   1.000  N
  N15      1.0000 0.85880  0.32300  0.05150  Biso   1.000  N
  H22      1.0000 0.86760  0.40810  0.03870  Biso   1.000  H
  N16      1.0000 0.81600  0.15470  0.09550  Biso   1.000  N
  C37      1.0000 0.12410  0.11890  0.18870  Biso   1.000  C
  C38      1.0000 0.18110  0.19820  0.20340  Biso   1.000  C
  C39      1.0000 0.19830  0.30170  0.16360  Biso   1.000  C
  C40      1.0000 0.16610  0.39060  0.09350  Biso   1.000  C
  C41      1.0000 0.27520  0.24700  0.26890  Biso   1.000  C
  C42      1.0000 0.33810  0.24670  0.33160  Biso   1.000  C
  H23      1.0000 0.35470  0.14860  0.33780  Biso   1.000  H
  H24      1.0000 0.33720  0.27830  0.37990  Biso   1.000  H
  H25      1.0000 0.36320  0.31290  0.31770  Biso   1.000  H
  C43      1.0000 0.93450  0.18620  0.02020  Biso   1.000  C
  C44      1.0000 0.88300  0.19070  0.04320  Biso   1.000  C
  C45      1.0000 0.85540  0.08800  0.07000  Biso   1.000  C
  C46      1.0000 0.85810  0.92570  0.07550  Biso   1.000  C
  C47      1.0000 0.81900  0.29710  0.08280  Biso   1.000  C
  C48      1.0000 0.78340  0.41640  0.09980  Biso   1.000  C
  H26      1.0000 0.74170  0.38510  0.08340  Biso   1.000  H
  H27      1.0000 0.78460  0.50430  0.07190  Biso   1.000  H
  H28      1.0000 0.80090  0.43630  0.15500  Biso   1.000  H
  Er5      1.0000 0.54285  0.30666  0.49585  Biso   1.000  Er
  Co5      1.0000 0.71177  0.49071  0.83781  Biso   1.000  Co
  O33      1.0000 0.57850  0.37260  0.62320  Biso   1.000  O
  O34      1.0000 0.62320  0.46120  0.74200  Biso   1.000  O
  O35      1.0000 0.60880  0.12570  0.55500  Biso   1.000  O
  O36      1.0000 0.69710  0.02070  0.57440  Biso   1.000  O
  O37      1.0000 0.46040  0.19560  0.51840  Biso   1.000  O
  O38      1.0000 0.45320  0.43230  0.50390  Biso   1.000  O
  O39      1.0000 0.38360  0.64650  0.54080  Biso   1.000  O
  O40      1.0000 0.33170  0.63190  0.61270  Biso   1.000  O
  N17      1.0000 0.73020  0.33780  0.76950  Biso   1.000  N
  N18      1.0000 0.75850  0.16550  0.70630  Biso   1.000  N
  N19      1.0000 0.35880  0.17700  0.55150  Biso   1.000  N
  H29      1.0000 0.36760  0.09190  0.53870  Biso   1.000  H
  N20      1.0000 0.31600  0.34530  0.59550  Biso   1.000  N
  C49      1.0000 0.62410  0.38110  0.68870  Biso   1.000  C
  C50      1.0000 0.68110  0.30180  0.70340  Biso   1.000  C
  C51      1.0000 0.69830  0.19830  0.66360  Biso   1.000  C
  C52      1.0000 0.66610  0.10940  0.59350  Biso   1.000  C
  C53      1.0000 0.77520  0.25300  0.76890  Biso   1.000  C
  C54      1.0000 0.83810  0.25330  0.83160  Biso   1.000  C
  H30      1.0000 0.85470  0.35140  0.83780  Biso   1.000  H
  H31      1.0000 0.83720  0.22170  0.87990  Biso   1.000  H
  H32      1.0000 0.86320  0.18710  0.81770  Biso   1.000  H
  C55      1.0000 0.43450  0.31380  0.52020  Biso   1.000  C
  C56      1.0000 0.38300  0.30930  0.54320  Biso   1.000  C
  C57      1.0000 0.35540  0.41200  0.57000  Biso   1.000  C
  C58      1.0000 0.35810  0.57430  0.57550  Biso   1.000  C
  C59      1.0000 0.31900  0.20290  0.58280  Biso   1.000  C
  C60      1.0000 0.28340  0.08360  0.59980  Biso   1.000  C
  H33      1.0000 0.24170  0.11490  0.58340  Biso   1.000  H
  H34      1.0000 0.28460  0.99570  0.57190  Biso   1.000  H
  H35      1.0000 0.30090  0.06370  0.65500  Biso   1.000  H
  Er6      1.0000 0.04285  0.80666  0.49585  Biso   1.000  Er
  Co6      1.0000 0.21177  0.99071  0.83781  Biso   1.000  Co
  O41      1.0000 0.07850  0.87260  0.62320  Biso   1.000  O
  O42      1.0000 0.12320  0.96120  0.74200  Biso   1.000  O
  O43      1.0000 0.10880  0.62570  0.55500  Biso   1.000  O
  O44      1.0000 0.19710  0.52070  0.57440  Biso   1.000  O
  O45      1.0000 0.96040  0.69560  0.51840  Biso   1.000  O
  O46      1.0000 0.95320  0.93230  0.50390  Biso   1.000  O
  O47      1.0000 0.88360  0.14650  0.54080  Biso   1.000  O
  O48      1.0000 0.83170  0.13190  0.61270  Biso   1.000  O
  N21      1.0000 0.23020  0.83780  0.76950  Biso   1.000  N
  N22      1.0000 0.25850  0.66550  0.70630  Biso   1.000  N
  N23      1.0000 0.85880  0.67700  0.55150  Biso   1.000  N
  H36      1.0000 0.86760  0.59190  0.53870  Biso   1.000  H
  N24      1.0000 0.81600  0.84530  0.59550  Biso   1.000  N
  C61      1.0000 0.12410  0.88110  0.68870  Biso   1.000  C
  C62      1.0000 0.18110  0.80180  0.70340  Biso   1.000  C
  C63      1.0000 0.19830  0.69830  0.66360  Biso   1.000  C
  C64      1.0000 0.16610  0.60940  0.59350  Biso   1.000  C
  C65      1.0000 0.27520  0.75300  0.76890  Biso   1.000  C
  C66      1.0000 0.33810  0.75330  0.83160  Biso   1.000  C
  H37      1.0000 0.35470  0.85140  0.83780  Biso   1.000  H
  H38      1.0000 0.33720  0.72170  0.87990  Biso   1.000  H
  H39      1.0000 0.36320  0.68710  0.81770  Biso   1.000  H
  C67      1.0000 0.93450  0.81380  0.52020  Biso   1.000  C
  C68      1.0000 0.88300  0.80930  0.54320  Biso   1.000  C
  C69      1.0000 0.85540  0.91200  0.57000  Biso   1.000  C
  C70      1.0000 0.85810  0.07430  0.57550  Biso   1.000  C
  C71      1.0000 0.81900  0.70290  0.58280  Biso   1.000  C
  C72      1.0000 0.78340  0.58360  0.59980  Biso   1.000  C
  H40      1.0000 0.74170  0.61490  0.58340  Biso   1.000  H
  H41      1.0000 0.78460  0.49570  0.57190  Biso   1.000  H
  H42      1.0000 0.80090  0.56370  0.65500  Biso   1.000  H
  Er7      1.0000 0.45715  0.30666  0.00415  Biso   1.000  Er
  Co7      1.0000 0.28823  0.49071  0.66219  Biso   1.000  Co
  O49      1.0000 0.42150  0.37260  0.87680  Biso   1.000  O
  O50      1.0000 0.37680  0.46120  0.75800  Biso   1.000  O
  O51      1.0000 0.39120  0.12570  0.94500  Biso   1.000  O
  O52      1.0000 0.30290  0.02070  0.92560  Biso   1.000  O
  O53      1.0000 0.53960  0.19560  0.98160  Biso   1.000  O
  O54      1.0000 0.54680  0.43230  0.99610  Biso   1.000  O
  O55      1.0000 0.61640  0.64650  0.95920  Biso   1.000  O
  O56      1.0000 0.66830  0.63190  0.88730  Biso   1.000  O
  N25      1.0000 0.26980  0.33780  0.73050  Biso   1.000  N
  N26      1.0000 0.24150  0.16550  0.79370  Biso   1.000  N
  N27      1.0000 0.64120  0.17700  0.94850  Biso   1.000  N
  H43      1.0000 0.63240  0.09190  0.96130  Biso   1.000  H
  N28      1.0000 0.68400  0.34530  0.90450  Biso   1.000  N
  C73      1.0000 0.37590  0.38110  0.81130  Biso   1.000  C
  C74      1.0000 0.31890  0.30180  0.79660  Biso   1.000  C
  C75      1.0000 0.30170  0.19830  0.83640  Biso   1.000  C
  C76      1.0000 0.33390  0.10940  0.90650  Biso   1.000  C
  C77      1.0000 0.22480  0.25300  0.73110  Biso   1.000  C
  C78      1.0000 0.16190  0.25330  0.66840  Biso   1.000  C
  H44      1.0000 0.14530  0.35140  0.66220  Biso   1.000  H
  H45      1.0000 0.16280  0.22170  0.62010  Biso   1.000  H
  H46      1.0000 0.13680  0.18710  0.68230  Biso   1.000  H
  C79      1.0000 0.56550  0.31380  0.97980  Biso   1.000  C
  C80      1.0000 0.61700  0.30930  0.95680  Biso   1.000  C
  C81      1.0000 0.64460  0.41200  0.93000  Biso   1.000  C
  C82      1.0000 0.64190  0.57430  0.92450  Biso   1.000  C
  C83      1.0000 0.68100  0.20290  0.91720  Biso   1.000  C
  C84      1.0000 0.71660  0.08360  0.90020  Biso   1.000  C
  H47      1.0000 0.75830  0.11490  0.91660  Biso   1.000  H
  H48      1.0000 0.71540  0.99570  0.92810  Biso   1.000  H
  H49      1.0000 0.69910  0.06370  0.84500  Biso   1.000  H
  Er8      1.0000 0.95715  0.80666  0.00415  Biso   1.000  Er
  Co8      1.0000 0.78823  0.99071  0.66219  Biso   1.000  Co
  O57      1.0000 0.92150  0.87260  0.87680  Biso   1.000  O
  O58      1.0000 0.87680  0.96120  0.75800  Biso   1.000  O
  O59      1.0000 0.89120  0.62570  0.94500  Biso   1.000  O
  O60      1.0000 0.80290  0.52070  0.92560  Biso   1.000  O
  O61      1.0000 0.03960  0.69560  0.98160  Biso   1.000  O
  O62      1.0000 0.04680  0.93230  0.99610  Biso   1.000  O
  O63      1.0000 0.11640  0.14650  0.95920  Biso   1.000  O
  O64      1.0000 0.16830  0.13190  0.88730  Biso   1.000  O
  N29      1.0000 0.76980  0.83780  0.73050  Biso   1.000  N
  N30      1.0000 0.74150  0.66550  0.79370  Biso   1.000  N
  N31      1.0000 0.14120  0.67700  0.94850  Biso   1.000  N
  H50      1.0000 0.13240  0.59190  0.96130  Biso   1.000  H
  N32      1.0000 0.18400  0.84530  0.90450  Biso   1.000  N
  C85      1.0000 0.87590  0.88110  0.81130  Biso   1.000  C
  C86      1.0000 0.81890  0.80180  0.79660  Biso   1.000  C
  C87      1.0000 0.80170  0.69830  0.83640  Biso   1.000  C
  C88      1.0000 0.83390  0.60940  0.90650  Biso   1.000  C
  C89      1.0000 0.72480  0.75300  0.73110  Biso   1.000  C
  C90      1.0000 0.66190  0.75330  0.66840  Biso   1.000  C
  H51      1.0000 0.64530  0.85140  0.66220  Biso   1.000  H
  H52      1.0000 0.66280  0.72170  0.62010  Biso   1.000  H
  H53      1.0000 0.63680  0.68710  0.68230  Biso   1.000  H
  C91      1.0000 0.06550  0.81380  0.97980  Biso   1.000  C
  C92      1.0000 0.11700  0.80930  0.95680  Biso   1.000  C
  C93      1.0000 0.14460  0.91200  0.93000  Biso   1.000  C
  C94      1.0000 0.14190  0.07430  0.92450  Biso   1.000  C
  C95      1.0000 0.18100  0.70290  0.91720  Biso   1.000  C
  C96      1.0000 0.21660  0.58360  0.90020  Biso   1.000  C
  H54      1.0000 0.25830  0.61490  0.91660  Biso   1.000  H
  H55      1.0000 0.21540  0.49570  0.92810  Biso   1.000  H
  H56      1.0000 0.19910  0.56370  0.84500  Biso   1.000  H
