data_IKAYAU_clean
_audit_creation_date              2014-07-02
_audit_creation_method            'Materials Studio'
_symmetry_space_group_name_H-M    'P1'
_symmetry_Int_Tables_number       1
_symmetry_cell_setting            triclinic
loop_
_symmetry_equiv_pos_as_xyz
  x,y,z
_cell_length_a                    11.5989
_cell_length_b                    20.9790
_cell_length_c                    20.8100
_cell_angle_alpha                 110.3910
_cell_angle_beta                  90.0000
_cell_angle_gamma                 90.0000
loop_
_atom_site_label
_atom_site_type_symbol
_atom_site_fract_x
_atom_site_fract_y
_atom_site_fract_z
_atom_site_U_iso_or_equiv
_atom_site_adp_type
_atom_site_occupancy
Eu1    Eu    0.57826   0.94623   0.55417   0.01267  Uiso   1.00
Eu2    Eu    0.17926   0.59908   0.53601   0.01267  Uiso   1.00
Eu3    Eu    0.07826   0.05377   0.94583   0.01267  Uiso   1.00
Eu4    Eu    0.67926   0.40091   0.96399   0.01267  Uiso   1.00
Eu5    Eu    0.42174   0.05377   0.44583   0.01267  Uiso   1.00
Eu6    Eu    0.82074   0.40091   0.46399   0.01267  Uiso   1.00
Eu7    Eu    0.92174   0.94623   0.05417   0.01267  Uiso   1.00
Eu8    Eu    0.32074   0.59908   0.03601   0.01267  Uiso   1.00
H1     H     0.87000   0.69240   0.57000   0.01267  Uiso   1.00
H2     H     0.70490   0.75310   0.61500   0.01267  Uiso   1.00
H3     H     0.52630   0.70460   0.58230   0.01267  Uiso   1.00
H4     H     0.67650   0.53460   0.45750   0.01267  Uiso   1.00
H5     H     0.52800   0.83630   0.72970   0.01267  Uiso   1.00
H6     H     0.56530   0.81590   0.83020   0.01267  Uiso   1.00
H7     H     0.70540   0.87850   0.90460   0.01267  Uiso   1.00
H8     H     0.77360   0.97980   0.77820   0.01267  Uiso   1.00
H9     H     0.14400   0.67370   0.28320   0.01267  Uiso   1.00
H10    H     0.16050   0.76690   0.25060   0.01267  Uiso   1.00
H11    H     0.25280   0.86380   0.32010   0.01267  Uiso   1.00
H12    H     0.31090   0.77340   0.45800   0.01267  Uiso   1.00
H13    H     0.51450   0.78090   0.44580   0.01267  Uiso   1.00
H14    H     0.58790   0.67530   0.38260   0.01267  Uiso   1.00
H15    H     0.78220   0.65600   0.38260   0.01267  Uiso   1.00
H16    H     0.97920   0.69850   0.43120   0.01267  Uiso   1.00
H17    H     0.09060   0.78360   0.49730   0.01267  Uiso   1.00
H18    H     0.11340   0.90790   0.56850   0.01267  Uiso   1.00
H19    H     0.02910   0.01240   0.62090   0.01267  Uiso   1.00
H20    H     0.83200   0.02360   0.61360   0.01267  Uiso   1.00
H21    H     0.96560   0.55630   0.62980   0.01267  Uiso   1.00
H22    H     0.82230   0.59530   0.70970   0.01267  Uiso   1.00
H23    H     0.80510   0.71030   0.76800   0.01267  Uiso   1.00
H24    H     0.88490   0.82890   0.79190   0.01267  Uiso   1.00
H25    H     0.01500   0.89780   0.76940   0.01267  Uiso   1.00
H26    H     0.19630   0.91140   0.70730   0.01267  Uiso   1.00
H27    H     0.33710   0.86250   0.62800   0.01267  Uiso   1.00
H28    H     0.33050   0.74720   0.56810   0.01267  Uiso   1.00
H29    H     0.37000   0.30760   0.93000   0.01267  Uiso   1.00
H30    H     0.20490   0.24690   0.88500   0.01267  Uiso   1.00
H31    H     0.02630   0.29540   0.91770   0.01267  Uiso   1.00
H32    H     0.17650   0.46540   0.04250   0.01267  Uiso   1.00
H33    H     0.02800   0.16370   0.77030   0.01267  Uiso   1.00
H34    H     0.06530   0.18410   0.66980   0.01267  Uiso   1.00
H35    H     0.20540   0.12150   0.59540   0.01267  Uiso   1.00
H36    H     0.27360   0.02020   0.72180   0.01267  Uiso   1.00
H37    H     0.64400   0.32630   0.21680   0.01267  Uiso   1.00
H38    H     0.66050   0.23310   0.24940   0.01267  Uiso   1.00
H39    H     0.75280   0.13620   0.17990   0.01267  Uiso   1.00
H40    H     0.81090   0.22660   0.04200   0.01267  Uiso   1.00
H41    H     0.01450   0.21910   0.05420   0.01267  Uiso   1.00
H42    H     0.08790   0.32470   0.11740   0.01267  Uiso   1.00
H43    H     0.28220   0.34400   0.11740   0.01267  Uiso   1.00
H44    H     0.47920   0.30150   0.06880   0.01267  Uiso   1.00
H45    H     0.59060   0.21640   0.00270   0.01267  Uiso   1.00
H46    H     0.61340   0.09210   0.93150   0.01267  Uiso   1.00
H47    H     0.52910   0.98760   0.87910   0.01267  Uiso   1.00
H48    H     0.33200   0.97640   0.88640   0.01267  Uiso   1.00
H49    H     0.46560   0.44370   0.87020   0.01267  Uiso   1.00
H50    H     0.32230   0.40470   0.79030   0.01267  Uiso   1.00
H51    H     0.30510   0.28970   0.73200   0.01267  Uiso   1.00
H52    H     0.38490   0.17110   0.70810   0.01267  Uiso   1.00
H53    H     0.51500   0.10220   0.73060   0.01267  Uiso   1.00
H54    H     0.69630   0.08860   0.79270   0.01267  Uiso   1.00
H55    H     0.83710   0.13750   0.87200   0.01267  Uiso   1.00
H56    H     0.83050   0.25280   0.93190   0.01267  Uiso   1.00
H57    H     0.13000   0.30760   0.43000   0.01267  Uiso   1.00
H58    H     0.29510   0.24690   0.38500   0.01267  Uiso   1.00
H59    H     0.47370   0.29540   0.41770   0.01267  Uiso   1.00
H60    H     0.32350   0.46540   0.54250   0.01267  Uiso   1.00
H61    H     0.47200   0.16370   0.27030   0.01267  Uiso   1.00
H62    H     0.43470   0.18410   0.16980   0.01267  Uiso   1.00
H63    H     0.29460   0.12150   0.09540   0.01267  Uiso   1.00
H64    H     0.22640   0.02020   0.22180   0.01267  Uiso   1.00
H65    H     0.85600   0.32630   0.71680   0.01267  Uiso   1.00
H66    H     0.83950   0.23310   0.74940   0.01267  Uiso   1.00
H67    H     0.74720   0.13620   0.67990   0.01267  Uiso   1.00
H68    H     0.68910   0.22660   0.54200   0.01267  Uiso   1.00
H69    H     0.48550   0.21910   0.55420   0.01267  Uiso   1.00
H70    H     0.41210   0.32470   0.61740   0.01267  Uiso   1.00
H71    H     0.21780   0.34400   0.61740   0.01267  Uiso   1.00
H72    H     0.02080   0.30150   0.56880   0.01267  Uiso   1.00
H73    H     0.90940   0.21640   0.50270   0.01267  Uiso   1.00
H74    H     0.88660   0.09210   0.43150   0.01267  Uiso   1.00
H75    H     0.97090   0.98760   0.37910   0.01267  Uiso   1.00
H76    H     0.16800   0.97640   0.38640   0.01267  Uiso   1.00
H77    H     0.03440   0.44370   0.37020   0.01267  Uiso   1.00
H78    H     0.17770   0.40470   0.29030   0.01267  Uiso   1.00
H79    H     0.19490   0.28970   0.23200   0.01267  Uiso   1.00
H80    H     0.11510   0.17110   0.20810   0.01267  Uiso   1.00
H81    H     0.98500   0.10220   0.23060   0.01267  Uiso   1.00
H82    H     0.80370   0.08860   0.29270   0.01267  Uiso   1.00
H83    H     0.66290   0.13750   0.37200   0.01267  Uiso   1.00
H84    H     0.66950   0.25280   0.43190   0.01267  Uiso   1.00
H85    H     0.63000   0.69240   0.07000   0.01267  Uiso   1.00
H86    H     0.79510   0.75310   0.11500   0.01267  Uiso   1.00
H87    H     0.97370   0.70460   0.08230   0.01267  Uiso   1.00
H88    H     0.82350   0.53460   0.95750   0.01267  Uiso   1.00
H89    H     0.97200   0.83630   0.22970   0.01267  Uiso   1.00
H90    H     0.93470   0.81590   0.33020   0.01267  Uiso   1.00
H91    H     0.79460   0.87850   0.40460   0.01267  Uiso   1.00
H92    H     0.72640   0.97980   0.27820   0.01267  Uiso   1.00
H93    H     0.35600   0.67370   0.78320   0.01267  Uiso   1.00
H94    H     0.33950   0.76690   0.75060   0.01267  Uiso   1.00
H95    H     0.24720   0.86380   0.82010   0.01267  Uiso   1.00
H96    H     0.18910   0.77340   0.95800   0.01267  Uiso   1.00
H97    H     0.98550   0.78090   0.94580   0.01267  Uiso   1.00
H98    H     0.91210   0.67530   0.88260   0.01267  Uiso   1.00
H99    H     0.71780   0.65600   0.88260   0.01267  Uiso   1.00
H100   H     0.52080   0.69850   0.93120   0.01267  Uiso   1.00
H101   H     0.40940   0.78360   0.99730   0.01267  Uiso   1.00
H102   H     0.38660   0.90790   0.06850   0.01267  Uiso   1.00
H103   H     0.47090   0.01240   0.12090   0.01267  Uiso   1.00
H104   H     0.66800   0.02360   0.11360   0.01267  Uiso   1.00
H105   H     0.53440   0.55630   0.12980   0.01267  Uiso   1.00
H106   H     0.67770   0.59530   0.20970   0.01267  Uiso   1.00
H107   H     0.69490   0.71030   0.26800   0.01267  Uiso   1.00
H108   H     0.61510   0.82890   0.29190   0.01267  Uiso   1.00
H109   H     0.48500   0.89780   0.26940   0.01267  Uiso   1.00
H110   H     0.30370   0.91140   0.20730   0.01267  Uiso   1.00
H111   H     0.16290   0.86250   0.12800   0.01267  Uiso   1.00
H112   H     0.16950   0.74720   0.06810   0.01267  Uiso   1.00
C1     C     0.89720   0.56560   0.48220   0.01267  Uiso   1.00
C2     C     0.79050   0.60690   0.50950   0.01267  Uiso   1.00
C3     C     0.79800   0.67270   0.55650   0.01267  Uiso   1.00
C4     C     0.69930   0.70910   0.58350   0.01267  Uiso   1.00
C5     C     0.59250   0.68010   0.56350   0.01267  Uiso   1.00
C6     C     0.58260   0.61480   0.51570   0.01267  Uiso   1.00
C7     C     0.68220   0.57850   0.48920   0.01267  Uiso   1.00
C8     C     0.46630   0.58350   0.49250   0.01267  Uiso   1.00
C9     C     0.62110   0.92450   0.67880   0.01267  Uiso   1.00
C10    C     0.64650   0.91020   0.74360   0.01267  Uiso   1.00
C11    C     0.58470   0.86120   0.75950   0.01267  Uiso   1.00
C12    C     0.60700   0.84880   0.81960   0.01267  Uiso   1.00
C13    C     0.69170   0.88590   0.86370   0.01267  Uiso   1.00
C14    C     0.75580   0.93340   0.84775   0.01267  Uiso   1.00
C15    C     0.73210   0.94650   0.78829   0.01267  Uiso   1.00
C16    C     0.85560   0.96880   0.89320   0.01267  Uiso   1.00
C17    C     0.20350   0.65380   0.39790   0.01267  Uiso   1.00
C18    C     0.22380   0.71430   0.37530   0.01267  Uiso   1.00
C19    C     0.18040   0.71270   0.31210   0.01267  Uiso   1.00
C20    C     0.19120   0.76820   0.29240   0.01267  Uiso   1.00
C21    C     0.24710   0.82620   0.33380   0.01267  Uiso   1.00
C22    C     0.29490   0.82850   0.39570   0.01267  Uiso   1.00
C23    C     0.28100   0.77200   0.41610   0.01267  Uiso   1.00
C24    C     0.36260   0.88980   0.43760   0.01267  Uiso   1.00
C25    C     0.59360   0.77390   0.44660   0.01267  Uiso   1.00
C26    C     0.63730   0.70970   0.40820   0.01267  Uiso   1.00
C27    C     0.75190   0.69810   0.40870   0.01267  Uiso   1.00
C28    C     0.82390   0.74970   0.44850   0.01267  Uiso   1.00
C29    C     0.94610   0.74070   0.45460   0.01267  Uiso   1.00
C30    C     0.01250   0.79150   0.49300   0.01267  Uiso   1.00
C31    C     0.96680   0.85780   0.52780   0.01267  Uiso   1.00
C32    C     0.03430   0.91310   0.56510   0.01267  Uiso   1.00
C33    C     0.98440   0.97500   0.59650   0.01267  Uiso   1.00
C34    C     0.86550   0.98130   0.59160   0.01267  Uiso   1.00
C35    C     0.84690   0.86800   0.52460   0.01267  Uiso   1.00
C36    C     0.77400   0.81340   0.48580   0.01267  Uiso   1.00
C37    C     0.96020   0.60290   0.65320   0.01267  Uiso   1.00
C38    C     0.87330   0.62570   0.70140   0.01267  Uiso   1.00
C39    C     0.86420   0.69350   0.73630   0.01267  Uiso   1.00
C40    C     0.94440   0.73830   0.72430   0.01267  Uiso   1.00
C41    C     0.94170   0.81020   0.75920   0.01267  Uiso   1.00
C42    C     0.01910   0.85120   0.74590   0.01267  Uiso   1.00
C43    C     0.10800   0.82470   0.69610   0.01267  Uiso   1.00
C44    C     0.19530   0.86480   0.68330   0.01267  Uiso   1.00
C45    C     0.27850   0.83620   0.63630   0.01267  Uiso   1.00
C46    C     0.27390   0.76640   0.60070   0.01267  Uiso   1.00
C47    C     0.11230   0.75410   0.65910   0.01267  Uiso   1.00
C48    C     0.02990   0.71000   0.67370   0.01267  Uiso   1.00
C49    C     0.39720   0.43440   0.01780   0.01267  Uiso   1.00
C50    C     0.29050   0.39310   0.99050   0.01267  Uiso   1.00
C51    C     0.29800   0.32730   0.94350   0.01267  Uiso   1.00
C52    C     0.19930   0.29090   0.91650   0.01267  Uiso   1.00
C53    C     0.09250   0.31990   0.93650   0.01267  Uiso   1.00
C54    C     0.08260   0.38520   0.98430   0.01267  Uiso   1.00
C55    C     0.18220   0.42150   0.01080   0.01267  Uiso   1.00
C56    C     0.96630   0.41650   0.00750   0.01267  Uiso   1.00
C57    C     0.12110   0.07550   0.82120   0.01267  Uiso   1.00
C58    C     0.14650   0.08980   0.75640   0.01267  Uiso   1.00
C59    C     0.08470   0.13880   0.74050   0.01267  Uiso   1.00
C60    C     0.10700   0.15120   0.68040   0.01267  Uiso   1.00
C61    C     0.19170   0.11410   0.63630   0.01267  Uiso   1.00
C62    C     0.25580   0.06660   0.65225   0.01267  Uiso   1.00
C63    C     0.23210   0.05350   0.71171   0.01267  Uiso   1.00
C64    C     0.35560   0.03120   0.60680   0.01267  Uiso   1.00
C65    C     0.70350   0.34620   0.10210   0.01267  Uiso   1.00
C66    C     0.72380   0.28570   0.12470   0.01267  Uiso   1.00
C67    C     0.68040   0.28730   0.18790   0.01267  Uiso   1.00
C68    C     0.69120   0.23180   0.20760   0.01267  Uiso   1.00
C69    C     0.74710   0.17380   0.16620   0.01267  Uiso   1.00
C70    C     0.79490   0.17150   0.10430   0.01267  Uiso   1.00
C71    C     0.78100   0.22800   0.08390   0.01267  Uiso   1.00
C72    C     0.86260   0.11020   0.06240   0.01267  Uiso   1.00
C73    C     0.09360   0.22610   0.05340   0.01267  Uiso   1.00
C74    C     0.13730   0.29030   0.09180   0.01267  Uiso   1.00
C75    C     0.25190   0.30190   0.09130   0.01267  Uiso   1.00
C76    C     0.32390   0.25030   0.05150   0.01267  Uiso   1.00
C77    C     0.44610   0.25930   0.04540   0.01267  Uiso   1.00
C78    C     0.51250   0.20850   0.00700   0.01267  Uiso   1.00
C79    C     0.46680   0.14220   0.97220   0.01267  Uiso   1.00
C80    C     0.53430   0.08690   0.93490   0.01267  Uiso   1.00
C81    C     0.48440   0.02500   0.90350   0.01267  Uiso   1.00
C82    C     0.36550   0.01870   0.90840   0.01267  Uiso   1.00
C83    C     0.34690   0.13200   0.97540   0.01267  Uiso   1.00
C84    C     0.27400   0.18660   0.01420   0.01267  Uiso   1.00
C85    C     0.46020   0.39710   0.84680   0.01267  Uiso   1.00
C86    C     0.37330   0.37430   0.79860   0.01267  Uiso   1.00
C87    C     0.36420   0.30650   0.76370   0.01267  Uiso   1.00
C88    C     0.44440   0.26170   0.77570   0.01267  Uiso   1.00
C89    C     0.44170   0.18980   0.74080   0.01267  Uiso   1.00
C90    C     0.51910   0.14880   0.75410   0.01267  Uiso   1.00
C91    C     0.60800   0.17530   0.80390   0.01267  Uiso   1.00
C92    C     0.69530   0.13520   0.81670   0.01267  Uiso   1.00
C93    C     0.77850   0.16380   0.86370   0.01267  Uiso   1.00
C94    C     0.77390   0.23360   0.89930   0.01267  Uiso   1.00
C95    C     0.61230   0.24590   0.84090   0.01267  Uiso   1.00
C96    C     0.52990   0.29000   0.82630   0.01267  Uiso   1.00
C97    C     0.10280   0.43440   0.51780   0.01267  Uiso   1.00
C98    C     0.20950   0.39310   0.49050   0.01267  Uiso   1.00
C99    C     0.20200   0.32730   0.44350   0.01267  Uiso   1.00
C100   C     0.30070   0.29090   0.41650   0.01267  Uiso   1.00
C101   C     0.40750   0.31990   0.43650   0.01267  Uiso   1.00
C102   C     0.41740   0.38520   0.48430   0.01267  Uiso   1.00
C103   C     0.31780   0.42150   0.51080   0.01267  Uiso   1.00
C104   C     0.53370   0.41650   0.50750   0.01267  Uiso   1.00
C105   C     0.37890   0.07550   0.32120   0.01267  Uiso   1.00
C106   C     0.35350   0.08980   0.25640   0.01267  Uiso   1.00
C107   C     0.41530   0.13880   0.24050   0.01267  Uiso   1.00
C108   C     0.39300   0.15120   0.18040   0.01267  Uiso   1.00
C109   C     0.30830   0.11410   0.13630   0.01267  Uiso   1.00
C110   C     0.24420   0.06660   0.15225   0.01267  Uiso   1.00
C111   C     0.26790   0.05350   0.21171   0.01267  Uiso   1.00
C112   C     0.14440   0.03120   0.10680   0.01267  Uiso   1.00
C113   C     0.79650   0.34620   0.60210   0.01267  Uiso   1.00
C114   C     0.77620   0.28570   0.62470   0.01267  Uiso   1.00
C115   C     0.81960   0.28730   0.68790   0.01267  Uiso   1.00
C116   C     0.80880   0.23180   0.70760   0.01267  Uiso   1.00
C117   C     0.75290   0.17380   0.66620   0.01267  Uiso   1.00
C118   C     0.70510   0.17150   0.60430   0.01267  Uiso   1.00
C119   C     0.71900   0.22800   0.58390   0.01267  Uiso   1.00
C120   C     0.63740   0.11020   0.56240   0.01267  Uiso   1.00
C121   C     0.40640   0.22610   0.55340   0.01267  Uiso   1.00
C122   C     0.36270   0.29030   0.59180   0.01267  Uiso   1.00
C123   C     0.24810   0.30190   0.59130   0.01267  Uiso   1.00
C124   C     0.17610   0.25030   0.55150   0.01267  Uiso   1.00
C125   C     0.05390   0.25930   0.54540   0.01267  Uiso   1.00
C126   C     0.98750   0.20850   0.50700   0.01267  Uiso   1.00
C127   C     0.03320   0.14220   0.47220   0.01267  Uiso   1.00
C128   C     0.96570   0.08690   0.43490   0.01267  Uiso   1.00
C129   C     0.01560   0.02500   0.40350   0.01267  Uiso   1.00
C130   C     0.13450   0.01870   0.40840   0.01267  Uiso   1.00
C131   C     0.15310   0.13200   0.47540   0.01267  Uiso   1.00
C132   C     0.22600   0.18660   0.51420   0.01267  Uiso   1.00
C133   C     0.03980   0.39710   0.34680   0.01267  Uiso   1.00
C134   C     0.12670   0.37430   0.29860   0.01267  Uiso   1.00
C135   C     0.13580   0.30650   0.26370   0.01267  Uiso   1.00
C136   C     0.05560   0.26170   0.27570   0.01267  Uiso   1.00
C137   C     0.05830   0.18980   0.24080   0.01267  Uiso   1.00
C138   C     0.98090   0.14880   0.25410   0.01267  Uiso   1.00
C139   C     0.89200   0.17530   0.30390   0.01267  Uiso   1.00
C140   C     0.80470   0.13520   0.31670   0.01267  Uiso   1.00
C141   C     0.72150   0.16380   0.36370   0.01267  Uiso   1.00
C142   C     0.72610   0.23360   0.39930   0.01267  Uiso   1.00
C143   C     0.88770   0.24590   0.34090   0.01267  Uiso   1.00
C144   C     0.97010   0.29000   0.32630   0.01267  Uiso   1.00
C145   C     0.60280   0.56560   0.98220   0.01267  Uiso   1.00
C146   C     0.70950   0.60690   0.00950   0.01267  Uiso   1.00
C147   C     0.70200   0.67270   0.05650   0.01267  Uiso   1.00
C148   C     0.80070   0.70910   0.08350   0.01267  Uiso   1.00
C149   C     0.90750   0.68010   0.06350   0.01267  Uiso   1.00
C150   C     0.91740   0.61480   0.01570   0.01267  Uiso   1.00
C151   C     0.81780   0.57850   0.98920   0.01267  Uiso   1.00
C152   C     0.03370   0.58350   0.99250   0.01267  Uiso   1.00
C153   C     0.87890   0.92450   0.17880   0.01267  Uiso   1.00
C154   C     0.85350   0.91020   0.24360   0.01267  Uiso   1.00
C155   C     0.91530   0.86120   0.25950   0.01267  Uiso   1.00
C156   C     0.89300   0.84880   0.31960   0.01267  Uiso   1.00
C157   C     0.80830   0.88590   0.36370   0.01267  Uiso   1.00
C158   C     0.74420   0.93340   0.34775   0.01267  Uiso   1.00
C159   C     0.76790   0.94650   0.28829   0.01267  Uiso   1.00
C160   C     0.64440   0.96880   0.39320   0.01267  Uiso   1.00
C161   C     0.29650   0.65380   0.89790   0.01267  Uiso   1.00
C162   C     0.27620   0.71430   0.87530   0.01267  Uiso   1.00
C163   C     0.31960   0.71270   0.81210   0.01267  Uiso   1.00
C164   C     0.30880   0.76820   0.79240   0.01267  Uiso   1.00
C165   C     0.25290   0.82620   0.83380   0.01267  Uiso   1.00
C166   C     0.20510   0.82850   0.89570   0.01267  Uiso   1.00
C167   C     0.21900   0.77200   0.91610   0.01267  Uiso   1.00
C168   C     0.13740   0.88980   0.93760   0.01267  Uiso   1.00
C169   C     0.90640   0.77390   0.94660   0.01267  Uiso   1.00
C170   C     0.86270   0.70970   0.90820   0.01267  Uiso   1.00
C171   C     0.74810   0.69810   0.90870   0.01267  Uiso   1.00
C172   C     0.67610   0.74970   0.94850   0.01267  Uiso   1.00
C173   C     0.55390   0.74070   0.95460   0.01267  Uiso   1.00
C174   C     0.48750   0.79150   0.99300   0.01267  Uiso   1.00
C175   C     0.53320   0.85780   0.02780   0.01267  Uiso   1.00
C176   C     0.46570   0.91310   0.06510   0.01267  Uiso   1.00
C177   C     0.51560   0.97500   0.09650   0.01267  Uiso   1.00
C178   C     0.63450   0.98130   0.09160   0.01267  Uiso   1.00
C179   C     0.65310   0.86800   0.02460   0.01267  Uiso   1.00
C180   C     0.72600   0.81340   0.98580   0.01267  Uiso   1.00
C181   C     0.53980   0.60290   0.15320   0.01267  Uiso   1.00
C182   C     0.62670   0.62570   0.20140   0.01267  Uiso   1.00
C183   C     0.63580   0.69350   0.23630   0.01267  Uiso   1.00
C184   C     0.55560   0.73830   0.22430   0.01267  Uiso   1.00
C185   C     0.55830   0.81020   0.25920   0.01267  Uiso   1.00
C186   C     0.48090   0.85120   0.24590   0.01267  Uiso   1.00
C187   C     0.39200   0.82470   0.19610   0.01267  Uiso   1.00
C188   C     0.30470   0.86480   0.18330   0.01267  Uiso   1.00
C189   C     0.22150   0.83620   0.13630   0.01267  Uiso   1.00
C190   C     0.22610   0.76640   0.10070   0.01267  Uiso   1.00
C191   C     0.38770   0.75410   0.15910   0.01267  Uiso   1.00
C192   C     0.47010   0.71000   0.17370   0.01267  Uiso   1.00
N1     N     0.65870   0.82501   0.48395   0.01267  Uiso   1.00
N2     N     0.79780   0.93000   0.55690   0.01267  Uiso   1.00
N3     N     0.19400   0.72574   0.61061   0.01267  Uiso   1.00
N4     N     0.03520   0.64208   0.63818   0.01267  Uiso   1.00
N5     N     0.15870   0.17499   0.01605   0.01267  Uiso   1.00
N6     N     0.29780   0.07000   0.94310   0.01267  Uiso   1.00
N7     N     0.69400   0.27426   0.88939   0.01267  Uiso   1.00
N8     N     0.53520   0.35792   0.86182   0.01267  Uiso   1.00
N9     N     0.34130   0.17499   0.51605   0.01267  Uiso   1.00
N10    N     0.20220   0.07000   0.44310   0.01267  Uiso   1.00
N11    N     0.80600   0.27426   0.38939   0.01267  Uiso   1.00
N12    N     0.96480   0.35792   0.36182   0.01267  Uiso   1.00
N13    N     0.84130   0.82501   0.98395   0.01267  Uiso   1.00
N14    N     0.70220   0.93000   0.05690   0.01267  Uiso   1.00
N15    N     0.30600   0.72574   0.11061   0.01267  Uiso   1.00
N16    N     0.46480   0.64208   0.13818   0.01267  Uiso   1.00
O1     O     0.99310   0.59646   0.48950   0.01267  Uiso   1.00
O2     O     0.88660   0.50222   0.45350   0.01267  Uiso   1.00
O3     O     0.45840   0.53423   0.43799   0.01267  Uiso   1.00
O4     O     0.38130   0.60927   0.53076   0.01267  Uiso   1.00
O5     O     0.57260   0.87904   0.62946   0.01267  Uiso   1.00
O6     O     0.64880   0.98108   0.67544   0.01267  Uiso   1.00
O7     O     0.91470   0.00944   0.87402   0.01267  Uiso   1.00
O8     O     0.87880   0.95550   0.94608   0.01267  Uiso   1.00
O9     O     0.20900   0.66492   0.46178   0.01267  Uiso   1.00
O10    O     0.18200   0.59748   0.35337   0.01267  Uiso   1.00
O11    O     0.41830   0.88647   0.48870   0.01267  Uiso   1.00
O12    O     0.36080   0.94034   0.41863   0.01267  Uiso   1.00
O13    O     0.49310   0.40354   0.01050   0.01267  Uiso   1.00
O14    O     0.38660   0.49778   0.04650   0.01267  Uiso   1.00
O15    O     0.95840   0.46577   0.06201   0.01267  Uiso   1.00
O16    O     0.88130   0.39073   0.96924   0.01267  Uiso   1.00
O17    O     0.07260   0.12096   0.87054   0.01267  Uiso   1.00
O18    O     0.14880   0.01892   0.82456   0.01267  Uiso   1.00
O19    O     0.41470   0.99056   0.62598   0.01267  Uiso   1.00
O20    O     0.37880   0.04450   0.55392   0.01267  Uiso   1.00
O21    O     0.70900   0.33508   0.03822   0.01267  Uiso   1.00
O22    O     0.68200   0.40252   0.14663   0.01267  Uiso   1.00
O23    O     0.91830   0.11353   0.01130   0.01267  Uiso   1.00
O24    O     0.86080   0.05966   0.08137   0.01267  Uiso   1.00
O25    O     0.00690   0.40354   0.51050   0.01267  Uiso   1.00
O26    O     0.11340   0.49778   0.54650   0.01267  Uiso   1.00
O27    O     0.54160   0.46577   0.56201   0.01267  Uiso   1.00
O28    O     0.61870   0.39073   0.46924   0.01267  Uiso   1.00
O29    O     0.42740   0.12096   0.37054   0.01267  Uiso   1.00
O30    O     0.35120   0.01892   0.32456   0.01267  Uiso   1.00
O31    O     0.08530   0.99056   0.12598   0.01267  Uiso   1.00
O32    O     0.12120   0.04450   0.05392   0.01267  Uiso   1.00
O33    O     0.79100   0.33508   0.53822   0.01267  Uiso   1.00
O34    O     0.81800   0.40252   0.64663   0.01267  Uiso   1.00
O35    O     0.58170   0.11353   0.51130   0.01267  Uiso   1.00
O36    O     0.63920   0.05966   0.58137   0.01267  Uiso   1.00
O37    O     0.50690   0.59646   0.98950   0.01267  Uiso   1.00
O38    O     0.61340   0.50222   0.95350   0.01267  Uiso   1.00
O39    O     0.04160   0.53423   0.93799   0.01267  Uiso   1.00
O40    O     0.11870   0.60927   0.03076   0.01267  Uiso   1.00
O41    O     0.92740   0.87904   0.12946   0.01267  Uiso   1.00
O42    O     0.85120   0.98108   0.17544   0.01267  Uiso   1.00
O43    O     0.58530   0.00944   0.37402   0.01267  Uiso   1.00
O44    O     0.62120   0.95550   0.44608   0.01267  Uiso   1.00
O45    O     0.29100   0.66492   0.96178   0.01267  Uiso   1.00
O46    O     0.31800   0.59748   0.85337   0.01267  Uiso   1.00
O47    O     0.08170   0.88647   0.98870   0.01267  Uiso   1.00
O48    O     0.13920   0.94034   0.91863   0.01267  Uiso   1.00
