data_IKETIC_clean
_audit_creation_date              2014-07-02
_audit_creation_method            'Materials Studio'
_symmetry_space_group_name_H-M    'P1'
_symmetry_Int_Tables_number       1
_symmetry_cell_setting            triclinic
loop_
_symmetry_equiv_pos_as_xyz
  x,y,z
_cell_length_a                    6.1009
_cell_length_b                    9.9758
_cell_length_c                    13.3825
_cell_angle_alpha                 68.8710
_cell_angle_beta                  81.0330
_cell_angle_gamma                 76.7500
loop_
_atom_site_label
_atom_site_type_symbol
_atom_site_fract_x
_atom_site_fract_y
_atom_site_fract_z
_atom_site_U_iso_or_equiv
_atom_site_adp_type
_atom_site_occupancy
Eu1    Eu    0.83164   0.61437   0.19600   0.01267  Uiso   1.00
Eu2    Eu    0.16836   0.38563   0.80400   0.01267  Uiso   1.00
H1     H     0.32480   0.04640   0.02880   0.01267  Uiso   1.00
H2     H     0.70600   0.32530   0.62890   0.01267  Uiso   1.00
H3     H     0.67520   0.95360   0.97120   0.01267  Uiso   1.00
H4     H     0.29400   0.67470   0.37110   0.01267  Uiso   1.00
C1     C     0.28660   0.76780   0.14160   0.01267  Uiso   1.00
C2     C     0.13250   0.89500   0.06810   0.01267  Uiso   1.00
C3     C     0.19050   0.02940   0.01540   0.01267  Uiso   1.00
C4     C     0.95070   0.38360   0.43980   0.01267  Uiso   1.00
C5     C     0.70970   0.44380   0.47300   0.01267  Uiso   1.00
C6     C     0.61840   0.39750   0.57700   0.01267  Uiso   1.00
C7     C     0.08760   0.43930   0.03450   0.01267  Uiso   1.00
C8     C     0.71340   0.23220   0.85840   0.01267  Uiso   1.00
C9     C     0.86750   0.10500   0.93190   0.01267  Uiso   1.00
C10    C     0.80950   0.97060   0.98460   0.01267  Uiso   1.00
C11    C     0.04930   0.61640   0.56020   0.01267  Uiso   1.00
C12    C     0.29030   0.55620   0.52700   0.01267  Uiso   1.00
C13    C     0.38160   0.60250   0.42300   0.01267  Uiso   1.00
C14    C     0.91240   0.56070   0.96550   0.01267  Uiso   1.00
N1     N     0.93950   0.86440   0.05420   0.01267  Uiso   1.00
N2     N     0.59390   0.54700   0.39360   0.01267  Uiso   1.00
N3     N     0.06050   0.13560   0.94580   0.01267  Uiso   1.00
N4     N     0.40610   0.45300   0.60640   0.01267  Uiso   1.00
O1     O     0.21440   0.65020   0.18430   0.01267  Uiso   1.00
O2     O     0.47850   0.78430   0.15090   0.01267  Uiso   1.00
O3     O     0.01420   0.43030   0.34260   0.01267  Uiso   1.00
O4     O     0.06820   0.29040   0.51020   0.01267  Uiso   1.00
O5     O     0.08440   0.42930   0.13010   0.01267  Uiso   1.00
O6     O     0.22350   0.36250   0.98670   0.01267  Uiso   1.00
O7     O     0.78560   0.34980   0.81570   0.01267  Uiso   1.00
O8     O     0.52150   0.21570   0.84910   0.01267  Uiso   1.00
O9     O     0.98580   0.56970   0.65740   0.01267  Uiso   1.00
O10    O     0.93180   0.70960   0.48980   0.01267  Uiso   1.00
O11    O     0.91560   0.57070   0.86990   0.01267  Uiso   1.00
O12    O     0.77650   0.63750   0.01330   0.01267  Uiso   1.00
