data_IKETAU_clean
_audit_creation_date              2014-07-02
_audit_creation_method            'Materials Studio'
_symmetry_space_group_name_H-M    'P1'
_symmetry_Int_Tables_number       1
_symmetry_cell_setting            triclinic
loop_
_symmetry_equiv_pos_as_xyz
  x,y,z
_cell_length_a                    6.1645
_cell_length_b                    10.0740
_cell_length_c                    13.5030
_cell_angle_alpha                 68.9510
_cell_angle_beta                  80.8720
_cell_angle_gamma                 76.6670
loop_
_atom_site_label
_atom_site_type_symbol
_atom_site_fract_x
_atom_site_fract_y
_atom_site_fract_z
_atom_site_U_iso_or_equiv
_atom_site_adp_type
_atom_site_occupancy
Nd1    Nd    0.82878   0.61541   0.19666   0.01267  Uiso   1.00
Nd2    Nd    0.17122   0.38459   0.80335   0.01267  Uiso   1.00
H1     H     0.32390   0.04690   0.02680   0.01267  Uiso   1.00
H2     H     0.70160   0.32710   0.62930   0.01267  Uiso   1.00
H3     H     0.67610   0.95310   0.97320   0.01267  Uiso   1.00
H4     H     0.29840   0.67290   0.37070   0.01267  Uiso   1.00
C1     C     0.28380   0.76950   0.14050   0.01267  Uiso   1.00
C2     C     0.13360   0.89500   0.06820   0.01267  Uiso   1.00
C3     C     0.19060   0.02940   0.01450   0.01267  Uiso   1.00
C4     C     0.94690   0.38420   0.44090   0.01267  Uiso   1.00
C5     C     0.71020   0.44510   0.47300   0.01267  Uiso   1.00
C6     C     0.61640   0.39880   0.57750   0.01267  Uiso   1.00
C7     C     0.08730   0.44030   0.03380   0.01267  Uiso   1.00
C8     C     0.71620   0.23050   0.85950   0.01267  Uiso   1.00
C9     C     0.86640   0.10500   0.93180   0.01267  Uiso   1.00
C10    C     0.80940   0.97060   0.98550   0.01267  Uiso   1.00
C11    C     0.05310   0.61580   0.55910   0.01267  Uiso   1.00
C12    C     0.28980   0.55490   0.52700   0.01267  Uiso   1.00
C13    C     0.38360   0.60120   0.42250   0.01267  Uiso   1.00
C14    C     0.91270   0.55970   0.96620   0.01267  Uiso   1.00
N1     N     0.94020   0.86590   0.05440   0.01267  Uiso   1.00
N2     N     0.59240   0.54570   0.39460   0.01267  Uiso   1.00
N3     N     0.05980   0.13410   0.94560   0.01267  Uiso   1.00
N4     N     0.40760   0.45430   0.60540   0.01267  Uiso   1.00
O1     O     0.21210   0.65430   0.18460   0.01267  Uiso   1.00
O2     O     0.47380   0.78760   0.14960   0.01267  Uiso   1.00
O3     O     0.01180   0.43090   0.34380   0.01267  Uiso   1.00
O4     O     0.06470   0.29250   0.51140   0.01267  Uiso   1.00
O5     O     0.08290   0.43080   0.12890   0.01267  Uiso   1.00
O6     O     0.22060   0.36310   0.98780   0.01267  Uiso   1.00
O7     O     0.78790   0.34570   0.81540   0.01267  Uiso   1.00
O8     O     0.52620   0.21240   0.85040   0.01267  Uiso   1.00
O9     O     0.98820   0.56910   0.65620   0.01267  Uiso   1.00
O10    O     0.93530   0.70750   0.48860   0.01267  Uiso   1.00
O11    O     0.91710   0.56920   0.87110   0.01267  Uiso   1.00
O12    O     0.77940   0.63690   0.01220   0.01267  Uiso   1.00
