data_IKETOI_clean
_audit_creation_date              2014-07-02
_audit_creation_method            'Materials Studio'
_symmetry_space_group_name_H-M    'P1'
_symmetry_Int_Tables_number       1
_symmetry_cell_setting            triclinic
loop_
_symmetry_equiv_pos_as_xyz
  x,y,z
_cell_length_a                    6.0922
_cell_length_b                    9.9633
_cell_length_c                    13.3598
_cell_angle_alpha                 68.8530
_cell_angle_beta                  81.1040
_cell_angle_gamma                 76.8480
loop_
_atom_site_label
_atom_site_type_symbol
_atom_site_fract_x
_atom_site_fract_y
_atom_site_fract_z
_atom_site_U_iso_or_equiv
_atom_site_adp_type
_atom_site_occupancy
Gd1    Gd    0.83214   0.61429   0.19572   0.01267  Uiso   1.00
Gd2    Gd    0.16786   0.38571   0.80429   0.01267  Uiso   1.00
H1     H     0.32690   0.04710   0.02810   0.01267  Uiso   1.00
H2     H     0.70400   0.32480   0.62970   0.01267  Uiso   1.00
H3     H     0.67310   0.95290   0.97190   0.01267  Uiso   1.00
H4     H     0.29600   0.67520   0.37030   0.01267  Uiso   1.00
C1     C     0.28830   0.76610   0.14100   0.01267  Uiso   1.00
C2     C     0.13400   0.89340   0.06870   0.01267  Uiso   1.00
C3     C     0.19210   0.02980   0.01520   0.01267  Uiso   1.00
C4     C     0.95070   0.38260   0.43950   0.01267  Uiso   1.00
C5     C     0.71010   0.44410   0.47280   0.01267  Uiso   1.00
C6     C     0.61720   0.39760   0.57760   0.01267  Uiso   1.00
C7     C     0.08880   0.43990   0.03450   0.01267  Uiso   1.00
C8     C     0.71170   0.23390   0.85900   0.01267  Uiso   1.00
C9     C     0.86600   0.10660   0.93130   0.01267  Uiso   1.00
C10    C     0.80790   0.97020   0.98480   0.01267  Uiso   1.00
C11    C     0.04930   0.61740   0.56050   0.01267  Uiso   1.00
C12    C     0.28990   0.55590   0.52720   0.01267  Uiso   1.00
C13    C     0.38280   0.60240   0.42240   0.01267  Uiso   1.00
C14    C     0.91120   0.56010   0.96550   0.01267  Uiso   1.00
N1     N     0.94010   0.86370   0.05420   0.01267  Uiso   1.00
N2     N     0.59340   0.54650   0.39330   0.01267  Uiso   1.00
N3     N     0.05990   0.13630   0.94580   0.01267  Uiso   1.00
N4     N     0.40660   0.45350   0.60670   0.01267  Uiso   1.00
O1     O     0.21420   0.64930   0.18370   0.01267  Uiso   1.00
O2     O     0.47990   0.78340   0.15140   0.01267  Uiso   1.00
O3     O     0.01420   0.43150   0.34180   0.01267  Uiso   1.00
O4     O     0.06910   0.29060   0.51020   0.01267  Uiso   1.00
O5     O     0.08470   0.42950   0.13030   0.01267  Uiso   1.00
O6     O     0.22300   0.36120   0.98730   0.01267  Uiso   1.00
O7     O     0.78580   0.35070   0.81630   0.01267  Uiso   1.00
O8     O     0.52010   0.21660   0.84860   0.01267  Uiso   1.00
O9     O     0.98580   0.56850   0.65820   0.01267  Uiso   1.00
O10    O     0.93090   0.70940   0.48980   0.01267  Uiso   1.00
O11    O     0.91530   0.57050   0.86970   0.01267  Uiso   1.00
O12    O     0.77700   0.63880   0.01270   0.01267  Uiso   1.00
