data_image0
_cell_length_a       27.314
_cell_length_b       13.126
_cell_length_c       14
_cell_angle_alpha    90
_cell_angle_beta     96.143
_cell_angle_gamma    90

_symmetry_space_group_name_H-M    "P 1"
_symmetry_int_tables_number       1

loop_
  _symmetry_equiv_pos_as_xyz
  'x, y, z'

loop_
  _atom_site_label
  _atom_site_occupancy
  _atom_site_fract_x
  _atom_site_fract_y
  _atom_site_fract_z
  _atom_site_thermal_displace_type
  _atom_site_B_iso_or_equiv
  _atom_site_type_symbol
  Cu1      1.0000 0.21095  0.69040  0.49679  Biso   1.000  Cu
  O1       1.0000 0.18906  0.79560  0.58390  Biso   1.000  O
  O2       1.0000 0.25507  0.89860  0.59020  Biso   1.000  O
  O3       1.0000 0.25147  0.12320  0.89300  Biso   1.000  O
  O4       1.0000 0.18609  0.22540  0.88680  Biso   1.000  O
  O5       1.0000 0.09480  0.24410  0.56360  Biso   1.000  O
  O6       1.0000 0.05720  0.31200  0.67820  Biso   1.000  O
  O7       1.0000 0.96050  0.32300  0.63250  Biso   1.000  O
  O8       1.0000 0.92870  0.25510  0.48990  Biso   1.000  O
  C1       1.0000 0.21190  0.87810  0.60540  Biso   1.000  C
  C2       1.0000 0.18600  0.95540  0.65930  Biso   1.000  C
  C3       1.0000 0.21080  0.01700  0.72860  Biso   1.000  C
  H1       1.0000 0.24450  0.00950  0.74440  Biso   1.000  H
  C4       1.0000 0.18430  0.09220  0.77570  Biso   1.000  C
  C5       1.0000 0.13410  0.10410  0.74700  Biso   1.000  C
  H2       1.0000 0.11700  0.15530  0.77530  Biso   1.000  H
  C6       1.0000 0.10840  0.04190  0.67720  Biso   1.000  C
  C7       1.0000 0.13450  0.96650  0.63710  Biso   1.000  C
  H3       1.0000 0.11770  0.92130  0.59410  Biso   1.000  H
  C8       1.0000 0.21020  0.14970  0.85690  Biso   1.000  C
  C9       1.0000 0.05470  0.05350  0.64810  Biso   1.000  C
  C10      1.0000 0.02560  0.96610  0.64120  Biso   1.000  C
  H4       1.0000 0.04010  0.90260  0.65320  Biso   1.000  H
  C11      1.0000 0.97490  0.97260  0.61650  Biso   1.000  C
  H5       1.0000 0.95560  0.91460  0.61880  Biso   1.000  H
  C12      1.0000 0.95420  0.06030  0.58990  Biso   1.000  C
  H6       1.0000 0.92120  0.06190  0.56500  Biso   1.000  H
  C13      1.0000 0.98130  0.15100  0.59900  Biso   1.000  C
  C14      1.0000 0.03220  0.14550  0.62590  Biso   1.000  C
  C15      1.0000 0.06260  0.23790  0.61840  Biso   1.000  C
  C16      1.0000 0.95400  0.24600  0.56900  Biso   1.000  C
  Cu2      1.0000 0.71095  0.19040  0.49679  Biso   1.000  Cu
  O9       1.0000 0.68906  0.29560  0.58390  Biso   1.000  O
  O10      1.0000 0.75507  0.39860  0.59020  Biso   1.000  O
  O11      1.0000 0.75147  0.62320  0.89300  Biso   1.000  O
  O12      1.0000 0.68609  0.72540  0.88680  Biso   1.000  O
  O13      1.0000 0.59480  0.74410  0.56360  Biso   1.000  O
  O14      1.0000 0.55720  0.81200  0.67820  Biso   1.000  O
  O15      1.0000 0.46050  0.82300  0.63250  Biso   1.000  O
  O16      1.0000 0.42870  0.75510  0.48990  Biso   1.000  O
  C17      1.0000 0.71190  0.37810  0.60540  Biso   1.000  C
  C18      1.0000 0.68600  0.45540  0.65930  Biso   1.000  C
  C19      1.0000 0.71080  0.51700  0.72860  Biso   1.000  C
  H7       1.0000 0.74450  0.50950  0.74440  Biso   1.000  H
  C20      1.0000 0.68430  0.59220  0.77570  Biso   1.000  C
  C21      1.0000 0.63410  0.60410  0.74700  Biso   1.000  C
  H8       1.0000 0.61700  0.65530  0.77530  Biso   1.000  H
  C22      1.0000 0.60840  0.54190  0.67720  Biso   1.000  C
  C23      1.0000 0.63450  0.46650  0.63710  Biso   1.000  C
  H9       1.0000 0.61770  0.42130  0.59410  Biso   1.000  H
  C24      1.0000 0.71020  0.64970  0.85690  Biso   1.000  C
  C25      1.0000 0.55470  0.55350  0.64810  Biso   1.000  C
  C26      1.0000 0.52560  0.46610  0.64120  Biso   1.000  C
  H10      1.0000 0.54010  0.40260  0.65320  Biso   1.000  H
  C27      1.0000 0.47490  0.47260  0.61650  Biso   1.000  C
  H11      1.0000 0.45560  0.41460  0.61880  Biso   1.000  H
  C28      1.0000 0.45420  0.56030  0.58990  Biso   1.000  C
  H12      1.0000 0.42120  0.56190  0.56500  Biso   1.000  H
  C29      1.0000 0.48130  0.65100  0.59900  Biso   1.000  C
  C30      1.0000 0.53220  0.64550  0.62590  Biso   1.000  C
  C31      1.0000 0.56260  0.73790  0.61840  Biso   1.000  C
  C32      1.0000 0.45400  0.74600  0.56900  Biso   1.000  C
  Cu3      1.0000 0.78905  0.69040  0.00321  Biso   1.000  Cu
  O17      1.0000 0.81094  0.79560  0.91610  Biso   1.000  O
  O18      1.0000 0.74493  0.89860  0.90980  Biso   1.000  O
  O19      1.0000 0.74853  0.12320  0.60700  Biso   1.000  O
  O20      1.0000 0.81391  0.22540  0.61320  Biso   1.000  O
  O21      1.0000 0.90520  0.24410  0.93640  Biso   1.000  O
  O22      1.0000 0.94280  0.31200  0.82180  Biso   1.000  O
  O23      1.0000 0.03950  0.32300  0.86750  Biso   1.000  O
  O24      1.0000 0.07130  0.25510  0.01010  Biso   1.000  O
  C33      1.0000 0.78810  0.87810  0.89460  Biso   1.000  C
  C34      1.0000 0.81400  0.95540  0.84070  Biso   1.000  C
  C35      1.0000 0.78920  0.01700  0.77140  Biso   1.000  C
  H13      1.0000 0.75550  0.00950  0.75560  Biso   1.000  H
  C36      1.0000 0.81570  0.09220  0.72430  Biso   1.000  C
  C37      1.0000 0.86590  0.10410  0.75300  Biso   1.000  C
  H14      1.0000 0.88300  0.15530  0.72470  Biso   1.000  H
  C38      1.0000 0.89160  0.04190  0.82280  Biso   1.000  C
  C39      1.0000 0.86550  0.96650  0.86290  Biso   1.000  C
  H15      1.0000 0.88230  0.92130  0.90590  Biso   1.000  H
  C40      1.0000 0.78980  0.14970  0.64310  Biso   1.000  C
  C41      1.0000 0.94530  0.05350  0.85190  Biso   1.000  C
  C42      1.0000 0.97440  0.96610  0.85880  Biso   1.000  C
  H16      1.0000 0.95990  0.90260  0.84680  Biso   1.000  H
  C43      1.0000 0.02510  0.97260  0.88350  Biso   1.000  C
  H17      1.0000 0.04440  0.91460  0.88120  Biso   1.000  H
  C44      1.0000 0.04580  0.06030  0.91010  Biso   1.000  C
  H18      1.0000 0.07880  0.06190  0.93500  Biso   1.000  H
  C45      1.0000 0.01870  0.15100  0.90100  Biso   1.000  C
  C46      1.0000 0.96780  0.14550  0.87410  Biso   1.000  C
  C47      1.0000 0.93740  0.23790  0.88160  Biso   1.000  C
  C48      1.0000 0.04600  0.24600  0.93100  Biso   1.000  C
  Cu4      1.0000 0.28905  0.19040  0.00321  Biso   1.000  Cu
  O25      1.0000 0.31094  0.29560  0.91610  Biso   1.000  O
  O26      1.0000 0.24493  0.39860  0.90980  Biso   1.000  O
  O27      1.0000 0.24853  0.62320  0.60700  Biso   1.000  O
  O28      1.0000 0.31391  0.72540  0.61320  Biso   1.000  O
  O29      1.0000 0.40520  0.74410  0.93640  Biso   1.000  O
  O30      1.0000 0.44280  0.81200  0.82180  Biso   1.000  O
  O31      1.0000 0.53950  0.82300  0.86750  Biso   1.000  O
  O32      1.0000 0.57130  0.75510  0.01010  Biso   1.000  O
  C49      1.0000 0.28810  0.37810  0.89460  Biso   1.000  C
  C50      1.0000 0.31400  0.45540  0.84070  Biso   1.000  C
  C51      1.0000 0.28920  0.51700  0.77140  Biso   1.000  C
  H19      1.0000 0.25550  0.50950  0.75560  Biso   1.000  H
  C52      1.0000 0.31570  0.59220  0.72430  Biso   1.000  C
  C53      1.0000 0.36590  0.60410  0.75300  Biso   1.000  C
  H20      1.0000 0.38300  0.65530  0.72470  Biso   1.000  H
  C54      1.0000 0.39160  0.54190  0.82280  Biso   1.000  C
  C55      1.0000 0.36550  0.46650  0.86290  Biso   1.000  C
  H21      1.0000 0.38230  0.42130  0.90590  Biso   1.000  H
  C56      1.0000 0.28980  0.64970  0.64310  Biso   1.000  C
  C57      1.0000 0.44530  0.55350  0.85190  Biso   1.000  C
  C58      1.0000 0.47440  0.46610  0.85880  Biso   1.000  C
  H22      1.0000 0.45990  0.40260  0.84680  Biso   1.000  H
  C59      1.0000 0.52510  0.47260  0.88350  Biso   1.000  C
  H23      1.0000 0.54440  0.41460  0.88120  Biso   1.000  H
  C60      1.0000 0.54580  0.56030  0.91010  Biso   1.000  C
  H24      1.0000 0.57880  0.56190  0.93500  Biso   1.000  H
  C61      1.0000 0.51870  0.65100  0.90100  Biso   1.000  C
  C62      1.0000 0.46780  0.64550  0.87410  Biso   1.000  C
  C63      1.0000 0.43740  0.73790  0.88160  Biso   1.000  C
  C64      1.0000 0.54600  0.74600  0.93100  Biso   1.000  C
  Cu5      1.0000 0.78905  0.30960  0.50321  Biso   1.000  Cu
  O33      1.0000 0.81094  0.20440  0.41610  Biso   1.000  O
  O34      1.0000 0.74493  0.10140  0.40980  Biso   1.000  O
  O35      1.0000 0.74853  0.87680  0.10700  Biso   1.000  O
  O36      1.0000 0.81391  0.77460  0.11320  Biso   1.000  O
  O37      1.0000 0.90520  0.75590  0.43640  Biso   1.000  O
  O38      1.0000 0.94280  0.68800  0.32180  Biso   1.000  O
  O39      1.0000 0.03950  0.67700  0.36750  Biso   1.000  O
  O40      1.0000 0.07130  0.74490  0.51010  Biso   1.000  O
  C65      1.0000 0.78810  0.12190  0.39460  Biso   1.000  C
  C66      1.0000 0.81400  0.04460  0.34070  Biso   1.000  C
  C67      1.0000 0.78920  0.98300  0.27140  Biso   1.000  C
  H25      1.0000 0.75550  0.99050  0.25560  Biso   1.000  H
  C68      1.0000 0.81570  0.90780  0.22430  Biso   1.000  C
  C69      1.0000 0.86590  0.89590  0.25300  Biso   1.000  C
  H26      1.0000 0.88300  0.84470  0.22470  Biso   1.000  H
  C70      1.0000 0.89160  0.95810  0.32280  Biso   1.000  C
  C71      1.0000 0.86550  0.03350  0.36290  Biso   1.000  C
  H27      1.0000 0.88230  0.07870  0.40590  Biso   1.000  H
  C72      1.0000 0.78980  0.85030  0.14310  Biso   1.000  C
  C73      1.0000 0.94530  0.94650  0.35190  Biso   1.000  C
  C74      1.0000 0.97440  0.03390  0.35880  Biso   1.000  C
  H28      1.0000 0.95990  0.09740  0.34680  Biso   1.000  H
  C75      1.0000 0.02510  0.02740  0.38350  Biso   1.000  C
  H29      1.0000 0.04440  0.08540  0.38120  Biso   1.000  H
  C76      1.0000 0.04580  0.93970  0.41010  Biso   1.000  C
  H30      1.0000 0.07880  0.93810  0.43500  Biso   1.000  H
  C77      1.0000 0.01870  0.84900  0.40100  Biso   1.000  C
  C78      1.0000 0.96780  0.85450  0.37410  Biso   1.000  C
  C79      1.0000 0.93740  0.76210  0.38160  Biso   1.000  C
  C80      1.0000 0.04600  0.75400  0.43100  Biso   1.000  C
  Cu6      1.0000 0.28905  0.80960  0.50321  Biso   1.000  Cu
  O41      1.0000 0.31094  0.70440  0.41610  Biso   1.000  O
  O42      1.0000 0.24493  0.60140  0.40980  Biso   1.000  O
  O43      1.0000 0.24853  0.37680  0.10700  Biso   1.000  O
  O44      1.0000 0.31391  0.27460  0.11320  Biso   1.000  O
  O45      1.0000 0.40520  0.25590  0.43640  Biso   1.000  O
  O46      1.0000 0.44280  0.18800  0.32180  Biso   1.000  O
  O47      1.0000 0.53950  0.17700  0.36750  Biso   1.000  O
  O48      1.0000 0.57130  0.24490  0.51010  Biso   1.000  O
  C81      1.0000 0.28810  0.62190  0.39460  Biso   1.000  C
  C82      1.0000 0.31400  0.54460  0.34070  Biso   1.000  C
  C83      1.0000 0.28920  0.48300  0.27140  Biso   1.000  C
  H31      1.0000 0.25550  0.49050  0.25560  Biso   1.000  H
  C84      1.0000 0.31570  0.40780  0.22430  Biso   1.000  C
  C85      1.0000 0.36590  0.39590  0.25300  Biso   1.000  C
  H32      1.0000 0.38300  0.34470  0.22470  Biso   1.000  H
  C86      1.0000 0.39160  0.45810  0.32280  Biso   1.000  C
  C87      1.0000 0.36550  0.53350  0.36290  Biso   1.000  C
  H33      1.0000 0.38230  0.57870  0.40590  Biso   1.000  H
  C88      1.0000 0.28980  0.35030  0.14310  Biso   1.000  C
  C89      1.0000 0.44530  0.44650  0.35190  Biso   1.000  C
  C90      1.0000 0.47440  0.53390  0.35880  Biso   1.000  C
  H34      1.0000 0.45990  0.59740  0.34680  Biso   1.000  H
  C91      1.0000 0.52510  0.52740  0.38350  Biso   1.000  C
  H35      1.0000 0.54440  0.58540  0.38120  Biso   1.000  H
  C92      1.0000 0.54580  0.43970  0.41010  Biso   1.000  C
  H36      1.0000 0.57880  0.43810  0.43500  Biso   1.000  H
  C93      1.0000 0.51870  0.34900  0.40100  Biso   1.000  C
  C94      1.0000 0.46780  0.35450  0.37410  Biso   1.000  C
  C95      1.0000 0.43740  0.26210  0.38160  Biso   1.000  C
  C96      1.0000 0.54600  0.25400  0.43100  Biso   1.000  C
  Cu7      1.0000 0.21095  0.30960  0.99679  Biso   1.000  Cu
  O49      1.0000 0.18906  0.20440  0.08390  Biso   1.000  O
  O50      1.0000 0.25507  0.10140  0.09020  Biso   1.000  O
  O51      1.0000 0.25147  0.87680  0.39300  Biso   1.000  O
  O52      1.0000 0.18609  0.77460  0.38680  Biso   1.000  O
  O53      1.0000 0.09480  0.75590  0.06360  Biso   1.000  O
  O54      1.0000 0.05720  0.68800  0.17820  Biso   1.000  O
  O55      1.0000 0.96050  0.67700  0.13250  Biso   1.000  O
  O56      1.0000 0.92870  0.74490  0.98990  Biso   1.000  O
  C97      1.0000 0.21190  0.12190  0.10540  Biso   1.000  C
  C98      1.0000 0.18600  0.04460  0.15930  Biso   1.000  C
  C99      1.0000 0.21080  0.98300  0.22860  Biso   1.000  C
  H37      1.0000 0.24450  0.99050  0.24440  Biso   1.000  H
  C100     1.0000 0.18430  0.90780  0.27570  Biso   1.000  C
  C101     1.0000 0.13410  0.89590  0.24700  Biso   1.000  C
  H38      1.0000 0.11700  0.84470  0.27530  Biso   1.000  H
  C102     1.0000 0.10840  0.95810  0.17720  Biso   1.000  C
  C103     1.0000 0.13450  0.03350  0.13710  Biso   1.000  C
  H39      1.0000 0.11770  0.07870  0.09410  Biso   1.000  H
  C104     1.0000 0.21020  0.85030  0.35690  Biso   1.000  C
  C105     1.0000 0.05470  0.94650  0.14810  Biso   1.000  C
  C106     1.0000 0.02560  0.03390  0.14120  Biso   1.000  C
  H40      1.0000 0.04010  0.09740  0.15320  Biso   1.000  H
  C107     1.0000 0.97490  0.02740  0.11650  Biso   1.000  C
  H41      1.0000 0.95560  0.08540  0.11880  Biso   1.000  H
  C108     1.0000 0.95420  0.93970  0.08990  Biso   1.000  C
  H42      1.0000 0.92120  0.93810  0.06500  Biso   1.000  H
  C109     1.0000 0.98130  0.84900  0.09900  Biso   1.000  C
  C110     1.0000 0.03220  0.85450  0.12590  Biso   1.000  C
  C111     1.0000 0.06260  0.76210  0.11840  Biso   1.000  C
  C112     1.0000 0.95400  0.75400  0.06900  Biso   1.000  C
  Cu8      1.0000 0.71095  0.80960  0.99679  Biso   1.000  Cu
  O57      1.0000 0.68906  0.70440  0.08390  Biso   1.000  O
  O58      1.0000 0.75507  0.60140  0.09020  Biso   1.000  O
  O59      1.0000 0.75147  0.37680  0.39300  Biso   1.000  O
  O60      1.0000 0.68609  0.27460  0.38680  Biso   1.000  O
  O61      1.0000 0.59480  0.25590  0.06360  Biso   1.000  O
  O62      1.0000 0.55720  0.18800  0.17820  Biso   1.000  O
  O63      1.0000 0.46050  0.17700  0.13250  Biso   1.000  O
  O64      1.0000 0.42870  0.24490  0.98990  Biso   1.000  O
  C113     1.0000 0.71190  0.62190  0.10540  Biso   1.000  C
  C114     1.0000 0.68600  0.54460  0.15930  Biso   1.000  C
  C115     1.0000 0.71080  0.48300  0.22860  Biso   1.000  C
  H43      1.0000 0.74450  0.49050  0.24440  Biso   1.000  H
  C116     1.0000 0.68430  0.40780  0.27570  Biso   1.000  C
  C117     1.0000 0.63410  0.39590  0.24700  Biso   1.000  C
  H44      1.0000 0.61700  0.34470  0.27530  Biso   1.000  H
  C118     1.0000 0.60840  0.45810  0.17720  Biso   1.000  C
  C119     1.0000 0.63450  0.53350  0.13710  Biso   1.000  C
  H45      1.0000 0.61770  0.57870  0.09410  Biso   1.000  H
  C120     1.0000 0.71020  0.35030  0.35690  Biso   1.000  C
  C121     1.0000 0.55470  0.44650  0.14810  Biso   1.000  C
  C122     1.0000 0.52560  0.53390  0.14120  Biso   1.000  C
  H46      1.0000 0.54010  0.59740  0.15320  Biso   1.000  H
  C123     1.0000 0.47490  0.52740  0.11650  Biso   1.000  C
  H47      1.0000 0.45560  0.58540  0.11880  Biso   1.000  H
  C124     1.0000 0.45420  0.43970  0.08990  Biso   1.000  C
  H48      1.0000 0.42120  0.43810  0.06500  Biso   1.000  H
  C125     1.0000 0.48130  0.34900  0.09900  Biso   1.000  C
  C126     1.0000 0.53220  0.35450  0.12590  Biso   1.000  C
  C127     1.0000 0.56260  0.26210  0.11840  Biso   1.000  C
  C128     1.0000 0.45400  0.25400  0.06900  Biso   1.000  C
  Cu9      1.0000 0.00000  0.32316  0.75000  Biso   1.000  Cu
  Cu10     1.0000 0.50000  0.82316  0.75000  Biso   1.000  Cu
  Cu11     1.0000 0.00000  0.67684  0.25000  Biso   1.000  Cu
  Cu12     1.0000 0.50000  0.17684  0.25000  Biso   1.000  Cu
