data_image0
_cell_length_a       48.832
_cell_length_b       48.832
_cell_length_c       8.4834
_cell_angle_alpha    90
_cell_angle_beta     90
_cell_angle_gamma    120

_symmetry_space_group_name_H-M    "P 1"
_symmetry_int_tables_number       1

loop_
  _symmetry_equiv_pos_as_xyz
  'x, y, z'

loop_
  _atom_site_label
  _atom_site_occupancy
  _atom_site_fract_x
  _atom_site_fract_y
  _atom_site_fract_z
  _atom_site_thermal_displace_type
  _atom_site_B_iso_or_equiv
  _atom_site_type_symbol
  K1       1.0000 0.40824  0.91404  0.23740  Biso   1.000  K
  Sm1      1.0000 0.48613  0.99175  0.54866  Biso   1.000  Sm
  S1       1.0000 0.42463  0.90999  0.60525  Biso   1.000  S
  S2       1.0000 0.24365  0.91847  0.76822  Biso   1.000  S
  O1       1.0000 0.46616  0.97207  0.81030  Biso   1.000  O
  O2       1.0000 0.44750  0.95655  0.04850  Biso   1.000  O
  O3       1.0000 0.44462  0.93776  0.50690  Biso   1.000  O
  O4       1.0000 0.40400  0.88309  0.50630  Biso   1.000  O
  O5       1.0000 0.44237  0.90400  0.72070  Biso   1.000  O
  O6       1.0000 0.21221  0.85286  0.38230  Biso   1.000  O
  O7       1.0000 0.19361  0.85085  0.62020  Biso   1.000  O
  O8       1.0000 0.22789  0.92322  0.63710  Biso   1.000  O
  O9       1.0000 0.22163  0.89550  0.88290  Biso   1.000  O
  O10      1.0000 0.26755  0.94725  0.84410  Biso   1.000  O
  C1       1.0000 0.40965  0.93963  0.84270  Biso   1.000  C
  C2       1.0000 0.39915  0.91960  0.71330  Biso   1.000  C
  C3       1.0000 0.36812  0.90654  0.66330  Biso   1.000  C
  H1       1.0000 0.36160  0.89410  0.57300  Biso   1.000  H
  C4       1.0000 0.34626  0.91187  0.74710  Biso   1.000  C
  C5       1.0000 0.35665  0.92992  0.87940  Biso   1.000  C
  H2       1.0000 0.34250  0.93290  0.93960  Biso   1.000  H
  C6       1.0000 0.38797  0.94392  0.92640  Biso   1.000  C
  H3       1.0000 0.39450  0.95650  0.01640  Biso   1.000  H
  C7       1.0000 0.44287  0.95660  0.90510  Biso   1.000  C
  C8       1.0000 0.31322  0.89841  0.68870  Biso   1.000  C
  C9       1.0000 0.29868  0.87241  0.59180  Biso   1.000  C
  H4       1.0000 0.30970  0.86220  0.56220  Biso   1.000  H
  C10      1.0000 0.26836  0.86107  0.53740  Biso   1.000  C
  H5       1.0000 0.26000  0.84460  0.46460  Biso   1.000  H
  C11      1.0000 0.25019  0.87352  0.58850  Biso   1.000  C
  C12      1.0000 0.26358  0.89911  0.68910  Biso   1.000  C
  C13      1.0000 0.29555  0.91227  0.73460  Biso   1.000  C
  H6       1.0000 0.30490  0.93050  0.79610  Biso   1.000  H
  C14      1.0000 0.21660  0.85863  0.52770  Biso   1.000  C
  K2       1.0000 0.07491  0.24737  0.57073  Biso   1.000  K
  Sm2      1.0000 0.15280  0.32508  0.88199  Biso   1.000  Sm
  S3       1.0000 0.09130  0.24332  0.93858  Biso   1.000  S
  S4       1.0000 0.91032  0.25180  0.10155  Biso   1.000  S
  O11      1.0000 0.13283  0.30540  0.14363  Biso   1.000  O
  O12      1.0000 0.11417  0.28988  0.38183  Biso   1.000  O
  O13      1.0000 0.11129  0.27109  0.84023  Biso   1.000  O
  O14      1.0000 0.07067  0.21642  0.83963  Biso   1.000  O
  O15      1.0000 0.10904  0.23733  0.05403  Biso   1.000  O
  O16      1.0000 0.87888  0.18619  0.71563  Biso   1.000  O
  O17      1.0000 0.86028  0.18418  0.95353  Biso   1.000  O
  O18      1.0000 0.89456  0.25655  0.97043  Biso   1.000  O
  O19      1.0000 0.88830  0.22883  0.21623  Biso   1.000  O
  O20      1.0000 0.93422  0.28058  0.17743  Biso   1.000  O
  C15      1.0000 0.07632  0.27296  0.17603  Biso   1.000  C
  C16      1.0000 0.06582  0.25293  0.04663  Biso   1.000  C
  C17      1.0000 0.03479  0.23987  0.99663  Biso   1.000  C
  H7       1.0000 0.02827  0.22743  0.90633  Biso   1.000  H
  C18      1.0000 0.01293  0.24520  0.08043  Biso   1.000  C
  C19      1.0000 0.02332  0.26325  0.21273  Biso   1.000  C
  H8       1.0000 0.00917  0.26623  0.27293  Biso   1.000  H
  C20      1.0000 0.05464  0.27725  0.25973  Biso   1.000  C
  H9       1.0000 0.06117  0.28983  0.34973  Biso   1.000  H
  C21      1.0000 0.10954  0.28993  0.23843  Biso   1.000  C
  C22      1.0000 0.97989  0.23174  0.02203  Biso   1.000  C
  C23      1.0000 0.96535  0.20574  0.92513  Biso   1.000  C
  H10      1.0000 0.97637  0.19553  0.89553  Biso   1.000  H
  C24      1.0000 0.93503  0.19440  0.87073  Biso   1.000  C
  H11      1.0000 0.92667  0.17793  0.79793  Biso   1.000  H
  C25      1.0000 0.91686  0.20685  0.92183  Biso   1.000  C
  C26      1.0000 0.93025  0.23244  0.02243  Biso   1.000  C
  C27      1.0000 0.96222  0.24560  0.06793  Biso   1.000  C
  H12      1.0000 0.97157  0.26383  0.12943  Biso   1.000  H
  C28      1.0000 0.88327  0.19196  0.86103  Biso   1.000  C
  K3       1.0000 0.74157  0.58071  0.90407  Biso   1.000  K
  Sm3      1.0000 0.81946  0.65842  0.21533  Biso   1.000  Sm
  S5       1.0000 0.75796  0.57666  0.27192  Biso   1.000  S
  S6       1.0000 0.57698  0.58514  0.43489  Biso   1.000  S
  O21      1.0000 0.79949  0.63874  0.47697  Biso   1.000  O
  O22      1.0000 0.78083  0.62322  0.71517  Biso   1.000  O
  O23      1.0000 0.77795  0.60443  0.17357  Biso   1.000  O
  O24      1.0000 0.73733  0.54976  0.17297  Biso   1.000  O
  O25      1.0000 0.77570  0.57067  0.38737  Biso   1.000  O
  O26      1.0000 0.54554  0.51953  0.04897  Biso   1.000  O
  O27      1.0000 0.52694  0.51752  0.28687  Biso   1.000  O
  O28      1.0000 0.56122  0.58989  0.30377  Biso   1.000  O
  O29      1.0000 0.55496  0.56217  0.54957  Biso   1.000  O
  O30      1.0000 0.60088  0.61392  0.51077  Biso   1.000  O
  C29      1.0000 0.74298  0.60630  0.50937  Biso   1.000  C
  C30      1.0000 0.73248  0.58627  0.37997  Biso   1.000  C
  C31      1.0000 0.70145  0.57321  0.32997  Biso   1.000  C
  H13      1.0000 0.69493  0.56077  0.23967  Biso   1.000  H
  C32      1.0000 0.67959  0.57854  0.41377  Biso   1.000  C
  C33      1.0000 0.68998  0.59659  0.54607  Biso   1.000  C
  H14      1.0000 0.67583  0.59957  0.60627  Biso   1.000  H
  C34      1.0000 0.72130  0.61059  0.59307  Biso   1.000  C
  H15      1.0000 0.72783  0.62317  0.68307  Biso   1.000  H
  C35      1.0000 0.77620  0.62327  0.57177  Biso   1.000  C
  C36      1.0000 0.64655  0.56508  0.35537  Biso   1.000  C
  C37      1.0000 0.63201  0.53908  0.25847  Biso   1.000  C
  H16      1.0000 0.64303  0.52887  0.22887  Biso   1.000  H
  C38      1.0000 0.60169  0.52774  0.20407  Biso   1.000  C
  H17      1.0000 0.59333  0.51127  0.13127  Biso   1.000  H
  C39      1.0000 0.58352  0.54019  0.25517  Biso   1.000  C
  C40      1.0000 0.59691  0.56578  0.35577  Biso   1.000  C
  C41      1.0000 0.62888  0.57894  0.40127  Biso   1.000  C
  H18      1.0000 0.63823  0.59717  0.46277  Biso   1.000  H
  C42      1.0000 0.54993  0.52530  0.19437  Biso   1.000  C
  K4       1.0000 0.08596  0.49420  0.23740  Biso   1.000  K
  Sm4      1.0000 0.00825  0.49438  0.54866  Biso   1.000  Sm
  S7       1.0000 0.09001  0.51464  0.60525  Biso   1.000  S
  S8       1.0000 0.08153  0.32518  0.76822  Biso   1.000  S
  O31      1.0000 0.02793  0.49409  0.81030  Biso   1.000  O
  O32      1.0000 0.04345  0.49095  0.04850  Biso   1.000  O
  O33      1.0000 0.06224  0.50686  0.50690  Biso   1.000  O
  O34      1.0000 0.11691  0.52091  0.50630  Biso   1.000  O
  O35      1.0000 0.09600  0.53837  0.72070  Biso   1.000  O
  O36      1.0000 0.14714  0.35935  0.38230  Biso   1.000  O
  O37      1.0000 0.14915  0.34276  0.62020  Biso   1.000  O
  O38      1.0000 0.07678  0.30467  0.63710  Biso   1.000  O
  O39      1.0000 0.10450  0.32613  0.88290  Biso   1.000  O
  O40      1.0000 0.05275  0.32030  0.84410  Biso   1.000  O
  C43      1.0000 0.06037  0.47002  0.84270  Biso   1.000  C
  C44      1.0000 0.08040  0.47955  0.71330  Biso   1.000  C
  C45      1.0000 0.09346  0.46158  0.66330  Biso   1.000  C
  H19      1.0000 0.10590  0.46750  0.57300  Biso   1.000  H
  C46      1.0000 0.08813  0.43439  0.74710  Biso   1.000  C
  C47      1.0000 0.07008  0.42673  0.87940  Biso   1.000  C
  H20      1.0000 0.06710  0.40960  0.93960  Biso   1.000  H
  C48      1.0000 0.05608  0.44405  0.92640  Biso   1.000  C
  H21      1.0000 0.04350  0.43800  0.01640  Biso   1.000  H
  C49      1.0000 0.04340  0.48627  0.90510  Biso   1.000  C
  C50      1.0000 0.10159  0.41481  0.68870  Biso   1.000  C
  C51      1.0000 0.12759  0.42627  0.59180  Biso   1.000  C
  H22      1.0000 0.13780  0.44750  0.56220  Biso   1.000  H
  C52      1.0000 0.13893  0.40729  0.53740  Biso   1.000  C
  H23      1.0000 0.15540  0.41540  0.46460  Biso   1.000  H
  C53      1.0000 0.12648  0.37667  0.58850  Biso   1.000  C
  C54      1.0000 0.10089  0.36447  0.68910  Biso   1.000  C
  C55      1.0000 0.08773  0.38328  0.73460  Biso   1.000  C
  H24      1.0000 0.06950  0.37440  0.79610  Biso   1.000  H
  C56      1.0000 0.14137  0.35797  0.52770  Biso   1.000  C
  K5       1.0000 0.75263  0.82753  0.57073  Biso   1.000  K
  Sm5      1.0000 0.67492  0.82771  0.88199  Biso   1.000  Sm
  S9       1.0000 0.75668  0.84797  0.93858  Biso   1.000  S
  S10      1.0000 0.74820  0.65851  0.10155  Biso   1.000  S
  O41      1.0000 0.69460  0.82742  0.14363  Biso   1.000  O
  O42      1.0000 0.71012  0.82428  0.38183  Biso   1.000  O
  O43      1.0000 0.72891  0.84019  0.84023  Biso   1.000  O
  O44      1.0000 0.78358  0.85424  0.83963  Biso   1.000  O
  O45      1.0000 0.76267  0.87170  0.05403  Biso   1.000  O
  O46      1.0000 0.81381  0.69268  0.71563  Biso   1.000  O
  O47      1.0000 0.81582  0.67609  0.95353  Biso   1.000  O
  O48      1.0000 0.74345  0.63800  0.97043  Biso   1.000  O
  O49      1.0000 0.77117  0.65946  0.21623  Biso   1.000  O
  O50      1.0000 0.71942  0.65363  0.17743  Biso   1.000  O
  C57      1.0000 0.72704  0.80335  0.17603  Biso   1.000  C
  C58      1.0000 0.74707  0.81288  0.04663  Biso   1.000  C
  C59      1.0000 0.76013  0.79491  0.99663  Biso   1.000  C
  H25      1.0000 0.77257  0.80083  0.90633  Biso   1.000  H
  C60      1.0000 0.75480  0.76772  0.08043  Biso   1.000  C
  C61      1.0000 0.73675  0.76006  0.21273  Biso   1.000  C
  H26      1.0000 0.73377  0.74293  0.27293  Biso   1.000  H
  C62      1.0000 0.72275  0.77738  0.25973  Biso   1.000  C
  H27      1.0000 0.71017  0.77133  0.34973  Biso   1.000  H
  C63      1.0000 0.71007  0.81960  0.23843  Biso   1.000  C
  C64      1.0000 0.76826  0.74814  0.02203  Biso   1.000  C
  C65      1.0000 0.79426  0.75960  0.92513  Biso   1.000  C
  H28      1.0000 0.80447  0.78083  0.89553  Biso   1.000  H
  C66      1.0000 0.80560  0.74062  0.87073  Biso   1.000  C
  H29      1.0000 0.82207  0.74873  0.79793  Biso   1.000  H
  C67      1.0000 0.79315  0.71000  0.92183  Biso   1.000  C
  C68      1.0000 0.76756  0.69780  0.02243  Biso   1.000  C
  C69      1.0000 0.75440  0.71661  0.06793  Biso   1.000  C
  H30      1.0000 0.73617  0.70773  0.12943  Biso   1.000  H
  C70      1.0000 0.80804  0.69130  0.86103  Biso   1.000  C
  K6       1.0000 0.41929  0.16087  0.90407  Biso   1.000  K
  Sm6      1.0000 0.34158  0.16105  0.21533  Biso   1.000  Sm
  S11      1.0000 0.42334  0.18131  0.27192  Biso   1.000  S
  S12      1.0000 0.41486  0.99185  0.43489  Biso   1.000  S
  O51      1.0000 0.36126  0.16076  0.47697  Biso   1.000  O
  O52      1.0000 0.37678  0.15762  0.71517  Biso   1.000  O
  O53      1.0000 0.39557  0.17353  0.17357  Biso   1.000  O
  O54      1.0000 0.45024  0.18758  0.17297  Biso   1.000  O
  O55      1.0000 0.42933  0.20504  0.38737  Biso   1.000  O
  O56      1.0000 0.48047  0.02602  0.04897  Biso   1.000  O
  O57      1.0000 0.48248  0.00943  0.28687  Biso   1.000  O
  O58      1.0000 0.41011  0.97134  0.30377  Biso   1.000  O
  O59      1.0000 0.43783  0.99280  0.54957  Biso   1.000  O
  O60      1.0000 0.38608  0.98697  0.51077  Biso   1.000  O
  C71      1.0000 0.39370  0.13669  0.50937  Biso   1.000  C
  C72      1.0000 0.41373  0.14622  0.37997  Biso   1.000  C
  C73      1.0000 0.42679  0.12825  0.32997  Biso   1.000  C
  H31      1.0000 0.43923  0.13417  0.23967  Biso   1.000  H
  C74      1.0000 0.42146  0.10106  0.41377  Biso   1.000  C
  C75      1.0000 0.40341  0.09340  0.54607  Biso   1.000  C
  H32      1.0000 0.40043  0.07627  0.60627  Biso   1.000  H
  C76      1.0000 0.38941  0.11072  0.59307  Biso   1.000  C
  H33      1.0000 0.37683  0.10467  0.68307  Biso   1.000  H
  C77      1.0000 0.37673  0.15294  0.57177  Biso   1.000  C
  C78      1.0000 0.43492  0.08148  0.35537  Biso   1.000  C
  C79      1.0000 0.46092  0.09294  0.25847  Biso   1.000  C
  H34      1.0000 0.47113  0.11417  0.22887  Biso   1.000  H
  C80      1.0000 0.47226  0.07396  0.20407  Biso   1.000  C
  H35      1.0000 0.48873  0.08207  0.13127  Biso   1.000  H
  C81      1.0000 0.45981  0.04334  0.25517  Biso   1.000  C
  C82      1.0000 0.43422  0.03114  0.35577  Biso   1.000  C
  C83      1.0000 0.42106  0.04995  0.40127  Biso   1.000  C
  H36      1.0000 0.40283  0.04107  0.46277  Biso   1.000  H
  C84      1.0000 0.47470  0.02464  0.19437  Biso   1.000  C
  K7       1.0000 0.50580  0.59176  0.23740  Biso   1.000  K
  Sm7      1.0000 0.50562  0.51387  0.54866  Biso   1.000  Sm
  S13      1.0000 0.48536  0.57537  0.60525  Biso   1.000  S
  S14      1.0000 0.67482  0.75635  0.76822  Biso   1.000  S
  O61      1.0000 0.50591  0.53384  0.81030  Biso   1.000  O
  O62      1.0000 0.50905  0.55250  0.04850  Biso   1.000  O
  O63      1.0000 0.49314  0.55538  0.50690  Biso   1.000  O
  O64      1.0000 0.47909  0.59600  0.50630  Biso   1.000  O
  O65      1.0000 0.46163  0.55763  0.72070  Biso   1.000  O
  O66      1.0000 0.64065  0.78779  0.38230  Biso   1.000  O
  O67      1.0000 0.65724  0.80639  0.62020  Biso   1.000  O
  O68      1.0000 0.69533  0.77211  0.63710  Biso   1.000  O
  O69      1.0000 0.67387  0.77837  0.88290  Biso   1.000  O
  O70      1.0000 0.67970  0.73245  0.84410  Biso   1.000  O
  C85      1.0000 0.52998  0.59035  0.84270  Biso   1.000  C
  C86      1.0000 0.52045  0.60085  0.71330  Biso   1.000  C
  C87      1.0000 0.53842  0.63188  0.66330  Biso   1.000  C
  H37      1.0000 0.53250  0.63840  0.57300  Biso   1.000  H
  C88      1.0000 0.56561  0.65374  0.74710  Biso   1.000  C
  C89      1.0000 0.57327  0.64335  0.87940  Biso   1.000  C
  H38      1.0000 0.59040  0.65750  0.93960  Biso   1.000  H
  C90      1.0000 0.55595  0.61203  0.92640  Biso   1.000  C
  H39      1.0000 0.56200  0.60550  0.01640  Biso   1.000  H
  C91      1.0000 0.51373  0.55713  0.90510  Biso   1.000  C
  C92      1.0000 0.58519  0.68678  0.68870  Biso   1.000  C
  C93      1.0000 0.57373  0.70132  0.59180  Biso   1.000  C
  H40      1.0000 0.55250  0.69030  0.56220  Biso   1.000  H
  C94      1.0000 0.59271  0.73164  0.53740  Biso   1.000  C
  H41      1.0000 0.58460  0.74000  0.46460  Biso   1.000  H
  C95      1.0000 0.62333  0.74981  0.58850  Biso   1.000  C
  C96      1.0000 0.63553  0.73642  0.68910  Biso   1.000  C
  C97      1.0000 0.61672  0.70445  0.73460  Biso   1.000  C
  H42      1.0000 0.62560  0.69510  0.79610  Biso   1.000  H
  C98      1.0000 0.64203  0.78340  0.52770  Biso   1.000  C
  K8       1.0000 0.17247  0.92509  0.57073  Biso   1.000  K
  Sm8      1.0000 0.17229  0.84720  0.88199  Biso   1.000  Sm
  S15      1.0000 0.15203  0.90870  0.93858  Biso   1.000  S
  S16      1.0000 0.34149  0.08968  0.10155  Biso   1.000  S
  O71      1.0000 0.17258  0.86717  0.14363  Biso   1.000  O
  O72      1.0000 0.17572  0.88583  0.38183  Biso   1.000  O
  O73      1.0000 0.15981  0.88871  0.84023  Biso   1.000  O
  O74      1.0000 0.14576  0.92933  0.83963  Biso   1.000  O
  O75      1.0000 0.12830  0.89096  0.05403  Biso   1.000  O
  O76      1.0000 0.30732  0.12112  0.71563  Biso   1.000  O
  O77      1.0000 0.32391  0.13972  0.95353  Biso   1.000  O
  O78      1.0000 0.36200  0.10544  0.97043  Biso   1.000  O
  O79      1.0000 0.34054  0.11170  0.21623  Biso   1.000  O
  O80      1.0000 0.34637  0.06578  0.17743  Biso   1.000  O
  C99      1.0000 0.19665  0.92368  0.17603  Biso   1.000  C
  C100     1.0000 0.18712  0.93418  0.04663  Biso   1.000  C
  C101     1.0000 0.20509  0.96521  0.99663  Biso   1.000  C
  H43      1.0000 0.19917  0.97173  0.90633  Biso   1.000  H
  C102     1.0000 0.23228  0.98707  0.08043  Biso   1.000  C
  C103     1.0000 0.23994  0.97668  0.21273  Biso   1.000  C
  H44      1.0000 0.25707  0.99083  0.27293  Biso   1.000  H
  C104     1.0000 0.22262  0.94536  0.25973  Biso   1.000  C
  H45      1.0000 0.22867  0.93883  0.34973  Biso   1.000  H
  C105     1.0000 0.18040  0.89046  0.23843  Biso   1.000  C
  C106     1.0000 0.25186  0.02011  0.02203  Biso   1.000  C
  C107     1.0000 0.24040  0.03465  0.92513  Biso   1.000  C
  H46      1.0000 0.21917  0.02363  0.89553  Biso   1.000  H
  C108     1.0000 0.25938  0.06497  0.87073  Biso   1.000  C
  H47      1.0000 0.25127  0.07333  0.79793  Biso   1.000  H
  C109     1.0000 0.29000  0.08314  0.92183  Biso   1.000  C
  C110     1.0000 0.30220  0.06975  0.02243  Biso   1.000  C
  C111     1.0000 0.28339  0.03778  0.06793  Biso   1.000  C
  H48      1.0000 0.29227  0.02843  0.12943  Biso   1.000  H
  C112     1.0000 0.30870  0.11673  0.86103  Biso   1.000  C
  K9       1.0000 0.83913  0.25843  0.90407  Biso   1.000  K
  Sm9      1.0000 0.83895  0.18054  0.21533  Biso   1.000  Sm
  S17      1.0000 0.81869  0.24204  0.27192  Biso   1.000  S
  S18      1.0000 0.00815  0.42302  0.43489  Biso   1.000  S
  O81      1.0000 0.83924  0.20051  0.47697  Biso   1.000  O
  O82      1.0000 0.84238  0.21917  0.71517  Biso   1.000  O
  O83      1.0000 0.82647  0.22205  0.17357  Biso   1.000  O
  O84      1.0000 0.81242  0.26267  0.17297  Biso   1.000  O
  O85      1.0000 0.79496  0.22430  0.38737  Biso   1.000  O
  O86      1.0000 0.97398  0.45446  0.04897  Biso   1.000  O
  O87      1.0000 0.99057  0.47306  0.28687  Biso   1.000  O
  O88      1.0000 0.02866  0.43878  0.30377  Biso   1.000  O
  O89      1.0000 0.00720  0.44504  0.54957  Biso   1.000  O
  O90      1.0000 0.01303  0.39912  0.51077  Biso   1.000  O
  C113     1.0000 0.86331  0.25702  0.50937  Biso   1.000  C
  C114     1.0000 0.85378  0.26752  0.37997  Biso   1.000  C
  C115     1.0000 0.87175  0.29855  0.32997  Biso   1.000  C
  H49      1.0000 0.86583  0.30507  0.23967  Biso   1.000  H
  C116     1.0000 0.89894  0.32041  0.41377  Biso   1.000  C
  C117     1.0000 0.90660  0.31002  0.54607  Biso   1.000  C
  H50      1.0000 0.92373  0.32417  0.60627  Biso   1.000  H
  C118     1.0000 0.88928  0.27870  0.59307  Biso   1.000  C
  H51      1.0000 0.89533  0.27217  0.68307  Biso   1.000  H
  C119     1.0000 0.84706  0.22380  0.57177  Biso   1.000  C
  C120     1.0000 0.91852  0.35345  0.35537  Biso   1.000  C
  C121     1.0000 0.90706  0.36799  0.25847  Biso   1.000  C
  H52      1.0000 0.88583  0.35697  0.22887  Biso   1.000  H
  C122     1.0000 0.92604  0.39831  0.20407  Biso   1.000  C
  H53      1.0000 0.91793  0.40667  0.13127  Biso   1.000  H
  C123     1.0000 0.95666  0.41648  0.25517  Biso   1.000  C
  C124     1.0000 0.96886  0.40309  0.35577  Biso   1.000  C
  C125     1.0000 0.95005  0.37112  0.40127  Biso   1.000  C
  H54      1.0000 0.95893  0.36177  0.46277  Biso   1.000  H
  C126     1.0000 0.97536  0.45007  0.19437  Biso   1.000  C
  K10      1.0000 0.08596  0.59176  0.73740  Biso   1.000  K
  Sm10     1.0000 0.00825  0.51387  0.04866  Biso   1.000  Sm
  S19      1.0000 0.09001  0.57537  0.10525  Biso   1.000  S
  S20      1.0000 0.08153  0.75635  0.26822  Biso   1.000  S
  O91      1.0000 0.02793  0.53384  0.31030  Biso   1.000  O
  O92      1.0000 0.04345  0.55250  0.54850  Biso   1.000  O
  O93      1.0000 0.06224  0.55538  0.00690  Biso   1.000  O
  O94      1.0000 0.11691  0.59600  0.00630  Biso   1.000  O
  O95      1.0000 0.09600  0.55763  0.22070  Biso   1.000  O
  O96      1.0000 0.14714  0.78779  0.88230  Biso   1.000  O
  O97      1.0000 0.14915  0.80639  0.12020  Biso   1.000  O
  O98      1.0000 0.07678  0.77211  0.13710  Biso   1.000  O
  O99      1.0000 0.10450  0.77837  0.38290  Biso   1.000  O
  O100     1.0000 0.05275  0.73245  0.34410  Biso   1.000  O
  C127     1.0000 0.06037  0.59035  0.34270  Biso   1.000  C
  C128     1.0000 0.08040  0.60085  0.21330  Biso   1.000  C
  C129     1.0000 0.09346  0.63188  0.16330  Biso   1.000  C
  H55      1.0000 0.10590  0.63840  0.07300  Biso   1.000  H
  C130     1.0000 0.08813  0.65374  0.24710  Biso   1.000  C
  C131     1.0000 0.07008  0.64335  0.37940  Biso   1.000  C
  H56      1.0000 0.06710  0.65750  0.43960  Biso   1.000  H
  C132     1.0000 0.05608  0.61203  0.42640  Biso   1.000  C
  H57      1.0000 0.04350  0.60550  0.51640  Biso   1.000  H
  C133     1.0000 0.04340  0.55713  0.40510  Biso   1.000  C
  C134     1.0000 0.10159  0.68678  0.18870  Biso   1.000  C
  C135     1.0000 0.12759  0.70132  0.09180  Biso   1.000  C
  H58      1.0000 0.13780  0.69030  0.06220  Biso   1.000  H
  C136     1.0000 0.13893  0.73164  0.03740  Biso   1.000  C
  H59      1.0000 0.15540  0.74000  0.96460  Biso   1.000  H
  C137     1.0000 0.12648  0.74981  0.08850  Biso   1.000  C
  C138     1.0000 0.10089  0.73642  0.18910  Biso   1.000  C
  C139     1.0000 0.08773  0.70445  0.23460  Biso   1.000  C
  H60      1.0000 0.06950  0.69510  0.29610  Biso   1.000  H
  C140     1.0000 0.14137  0.78340  0.02770  Biso   1.000  C
  K11      1.0000 0.75263  0.92509  0.07073  Biso   1.000  K
  Sm11     1.0000 0.67492  0.84720  0.38199  Biso   1.000  Sm
  S21      1.0000 0.75668  0.90870  0.43858  Biso   1.000  S
  S22      1.0000 0.74820  0.08968  0.60155  Biso   1.000  S
  O101     1.0000 0.69460  0.86717  0.64363  Biso   1.000  O
  O102     1.0000 0.71012  0.88583  0.88183  Biso   1.000  O
  O103     1.0000 0.72891  0.88871  0.34023  Biso   1.000  O
  O104     1.0000 0.78358  0.92933  0.33963  Biso   1.000  O
  O105     1.0000 0.76267  0.89096  0.55403  Biso   1.000  O
  O106     1.0000 0.81381  0.12112  0.21563  Biso   1.000  O
  O107     1.0000 0.81582  0.13972  0.45353  Biso   1.000  O
  O108     1.0000 0.74345  0.10544  0.47043  Biso   1.000  O
  O109     1.0000 0.77117  0.11170  0.71623  Biso   1.000  O
  O110     1.0000 0.71942  0.06578  0.67743  Biso   1.000  O
  C141     1.0000 0.72704  0.92368  0.67603  Biso   1.000  C
  C142     1.0000 0.74707  0.93418  0.54663  Biso   1.000  C
  C143     1.0000 0.76013  0.96521  0.49663  Biso   1.000  C
  H61      1.0000 0.77257  0.97173  0.40633  Biso   1.000  H
  C144     1.0000 0.75480  0.98707  0.58043  Biso   1.000  C
  C145     1.0000 0.73675  0.97668  0.71273  Biso   1.000  C
  H62      1.0000 0.73377  0.99083  0.77293  Biso   1.000  H
  C146     1.0000 0.72275  0.94536  0.75973  Biso   1.000  C
  H63      1.0000 0.71017  0.93883  0.84973  Biso   1.000  H
  C147     1.0000 0.71007  0.89046  0.73843  Biso   1.000  C
  C148     1.0000 0.76826  0.02011  0.52203  Biso   1.000  C
  C149     1.0000 0.79426  0.03465  0.42513  Biso   1.000  C
  H64      1.0000 0.80447  0.02363  0.39553  Biso   1.000  H
  C150     1.0000 0.80560  0.06497  0.37073  Biso   1.000  C
  H65      1.0000 0.82207  0.07333  0.29793  Biso   1.000  H
  C151     1.0000 0.79315  0.08314  0.42183  Biso   1.000  C
  C152     1.0000 0.76756  0.06975  0.52243  Biso   1.000  C
  C153     1.0000 0.75440  0.03778  0.56793  Biso   1.000  C
  H66      1.0000 0.73617  0.02843  0.62943  Biso   1.000  H
  C154     1.0000 0.80804  0.11673  0.36103  Biso   1.000  C
  K12      1.0000 0.41929  0.25843  0.40407  Biso   1.000  K
  Sm12     1.0000 0.34158  0.18054  0.71533  Biso   1.000  Sm
  S23      1.0000 0.42334  0.24204  0.77192  Biso   1.000  S
  S24      1.0000 0.41486  0.42302  0.93489  Biso   1.000  S
  O111     1.0000 0.36126  0.20051  0.97697  Biso   1.000  O
  O112     1.0000 0.37678  0.21917  0.21517  Biso   1.000  O
  O113     1.0000 0.39557  0.22205  0.67357  Biso   1.000  O
  O114     1.0000 0.45024  0.26267  0.67297  Biso   1.000  O
  O115     1.0000 0.42933  0.22430  0.88737  Biso   1.000  O
  O116     1.0000 0.48047  0.45446  0.54897  Biso   1.000  O
  O117     1.0000 0.48248  0.47306  0.78687  Biso   1.000  O
  O118     1.0000 0.41011  0.43878  0.80377  Biso   1.000  O
  O119     1.0000 0.43783  0.44504  0.04957  Biso   1.000  O
  O120     1.0000 0.38608  0.39912  0.01077  Biso   1.000  O
  C155     1.0000 0.39370  0.25702  0.00937  Biso   1.000  C
  C156     1.0000 0.41373  0.26752  0.87997  Biso   1.000  C
  C157     1.0000 0.42679  0.29855  0.82997  Biso   1.000  C
  H67      1.0000 0.43923  0.30507  0.73967  Biso   1.000  H
  C158     1.0000 0.42146  0.32041  0.91377  Biso   1.000  C
  C159     1.0000 0.40341  0.31002  0.04607  Biso   1.000  C
  H68      1.0000 0.40043  0.32417  0.10627  Biso   1.000  H
  C160     1.0000 0.38941  0.27870  0.09307  Biso   1.000  C
  H69      1.0000 0.37683  0.27217  0.18307  Biso   1.000  H
  C161     1.0000 0.37673  0.22380  0.07177  Biso   1.000  C
  C162     1.0000 0.43492  0.35345  0.85537  Biso   1.000  C
  C163     1.0000 0.46092  0.36799  0.75847  Biso   1.000  C
  H70      1.0000 0.47113  0.35697  0.72887  Biso   1.000  H
  C164     1.0000 0.47226  0.39831  0.70407  Biso   1.000  C
  H71      1.0000 0.48873  0.40667  0.63127  Biso   1.000  H
  C165     1.0000 0.45981  0.41648  0.75517  Biso   1.000  C
  C166     1.0000 0.43422  0.40309  0.85577  Biso   1.000  C
  C167     1.0000 0.42106  0.37112  0.90127  Biso   1.000  C
  H72      1.0000 0.40283  0.36177  0.96277  Biso   1.000  H
  C168     1.0000 0.47470  0.45007  0.69437  Biso   1.000  C
  K13      1.0000 0.50580  0.91404  0.73740  Biso   1.000  K
  Sm13     1.0000 0.50562  0.99175  0.04866  Biso   1.000  Sm
  S25      1.0000 0.48536  0.90999  0.10525  Biso   1.000  S
  S26      1.0000 0.67482  0.91847  0.26822  Biso   1.000  S
  O121     1.0000 0.50591  0.97207  0.31030  Biso   1.000  O
  O122     1.0000 0.50905  0.95655  0.54850  Biso   1.000  O
  O123     1.0000 0.49314  0.93776  0.00690  Biso   1.000  O
  O124     1.0000 0.47909  0.88309  0.00630  Biso   1.000  O
  O125     1.0000 0.46163  0.90400  0.22070  Biso   1.000  O
  O126     1.0000 0.64065  0.85286  0.88230  Biso   1.000  O
  O127     1.0000 0.65724  0.85085  0.12020  Biso   1.000  O
  O128     1.0000 0.69533  0.92322  0.13710  Biso   1.000  O
  O129     1.0000 0.67387  0.89550  0.38290  Biso   1.000  O
  O130     1.0000 0.67970  0.94725  0.34410  Biso   1.000  O
  C169     1.0000 0.52998  0.93963  0.34270  Biso   1.000  C
  C170     1.0000 0.52045  0.91960  0.21330  Biso   1.000  C
  C171     1.0000 0.53842  0.90654  0.16330  Biso   1.000  C
  H73      1.0000 0.53250  0.89410  0.07300  Biso   1.000  H
  C172     1.0000 0.56561  0.91187  0.24710  Biso   1.000  C
  C173     1.0000 0.57327  0.92992  0.37940  Biso   1.000  C
  H74      1.0000 0.59040  0.93290  0.43960  Biso   1.000  H
  C174     1.0000 0.55595  0.94392  0.42640  Biso   1.000  C
  H75      1.0000 0.56200  0.95650  0.51640  Biso   1.000  H
  C175     1.0000 0.51373  0.95660  0.40510  Biso   1.000  C
  C176     1.0000 0.58519  0.89841  0.18870  Biso   1.000  C
  C177     1.0000 0.57373  0.87241  0.09180  Biso   1.000  C
  H76      1.0000 0.55250  0.86220  0.06220  Biso   1.000  H
  C178     1.0000 0.59271  0.86107  0.03740  Biso   1.000  C
  H77      1.0000 0.58460  0.84460  0.96460  Biso   1.000  H
  C179     1.0000 0.62333  0.87352  0.08850  Biso   1.000  C
  C180     1.0000 0.63553  0.89911  0.18910  Biso   1.000  C
  C181     1.0000 0.61672  0.91227  0.23460  Biso   1.000  C
  H78      1.0000 0.62560  0.93050  0.29610  Biso   1.000  H
  C182     1.0000 0.64203  0.85863  0.02770  Biso   1.000  C
  K14      1.0000 0.17247  0.24737  0.07073  Biso   1.000  K
  Sm14     1.0000 0.17229  0.32508  0.38199  Biso   1.000  Sm
  S27      1.0000 0.15203  0.24332  0.43858  Biso   1.000  S
  S28      1.0000 0.34149  0.25180  0.60155  Biso   1.000  S
  O131     1.0000 0.17258  0.30540  0.64363  Biso   1.000  O
  O132     1.0000 0.17572  0.28988  0.88183  Biso   1.000  O
  O133     1.0000 0.15981  0.27109  0.34023  Biso   1.000  O
  O134     1.0000 0.14576  0.21642  0.33963  Biso   1.000  O
  O135     1.0000 0.12830  0.23733  0.55403  Biso   1.000  O
  O136     1.0000 0.30732  0.18619  0.21563  Biso   1.000  O
  O137     1.0000 0.32391  0.18418  0.45353  Biso   1.000  O
  O138     1.0000 0.36200  0.25655  0.47043  Biso   1.000  O
  O139     1.0000 0.34054  0.22883  0.71623  Biso   1.000  O
  O140     1.0000 0.34637  0.28058  0.67743  Biso   1.000  O
  C183     1.0000 0.19665  0.27296  0.67603  Biso   1.000  C
  C184     1.0000 0.18712  0.25293  0.54663  Biso   1.000  C
  C185     1.0000 0.20509  0.23987  0.49663  Biso   1.000  C
  H79      1.0000 0.19917  0.22743  0.40633  Biso   1.000  H
  C186     1.0000 0.23228  0.24520  0.58043  Biso   1.000  C
  C187     1.0000 0.23994  0.26325  0.71273  Biso   1.000  C
  H80      1.0000 0.25707  0.26623  0.77293  Biso   1.000  H
  C188     1.0000 0.22262  0.27725  0.75973  Biso   1.000  C
  H81      1.0000 0.22867  0.28983  0.84973  Biso   1.000  H
  C189     1.0000 0.18040  0.28993  0.73843  Biso   1.000  C
  C190     1.0000 0.25186  0.23174  0.52203  Biso   1.000  C
  C191     1.0000 0.24040  0.20574  0.42513  Biso   1.000  C
  H82      1.0000 0.21917  0.19553  0.39553  Biso   1.000  H
  C192     1.0000 0.25938  0.19440  0.37073  Biso   1.000  C
  H83      1.0000 0.25127  0.17793  0.29793  Biso   1.000  H
  C193     1.0000 0.29000  0.20685  0.42183  Biso   1.000  C
  C194     1.0000 0.30220  0.23244  0.52243  Biso   1.000  C
  C195     1.0000 0.28339  0.24560  0.56793  Biso   1.000  C
  H84      1.0000 0.29227  0.26383  0.62943  Biso   1.000  H
  C196     1.0000 0.30870  0.19196  0.36103  Biso   1.000  C
  K15      1.0000 0.83913  0.58071  0.40407  Biso   1.000  K
  Sm15     1.0000 0.83895  0.65842  0.71533  Biso   1.000  Sm
  S29      1.0000 0.81869  0.57666  0.77192  Biso   1.000  S
  S30      1.0000 0.00815  0.58514  0.93489  Biso   1.000  S
  O141     1.0000 0.83924  0.63874  0.97697  Biso   1.000  O
  O142     1.0000 0.84238  0.62322  0.21517  Biso   1.000  O
  O143     1.0000 0.82647  0.60443  0.67357  Biso   1.000  O
  O144     1.0000 0.81242  0.54976  0.67297  Biso   1.000  O
  O145     1.0000 0.79496  0.57067  0.88737  Biso   1.000  O
  O146     1.0000 0.97398  0.51953  0.54897  Biso   1.000  O
  O147     1.0000 0.99057  0.51752  0.78687  Biso   1.000  O
  O148     1.0000 0.02866  0.58989  0.80377  Biso   1.000  O
  O149     1.0000 0.00720  0.56217  0.04957  Biso   1.000  O
  O150     1.0000 0.01303  0.61392  0.01077  Biso   1.000  O
  C197     1.0000 0.86331  0.60630  0.00937  Biso   1.000  C
  C198     1.0000 0.85378  0.58627  0.87997  Biso   1.000  C
  C199     1.0000 0.87175  0.57321  0.82997  Biso   1.000  C
  H85      1.0000 0.86583  0.56077  0.73967  Biso   1.000  H
  C200     1.0000 0.89894  0.57854  0.91377  Biso   1.000  C
  C201     1.0000 0.90660  0.59659  0.04607  Biso   1.000  C
  H86      1.0000 0.92373  0.59957  0.10627  Biso   1.000  H
  C202     1.0000 0.88928  0.61059  0.09307  Biso   1.000  C
  H87      1.0000 0.89533  0.62317  0.18307  Biso   1.000  H
  C203     1.0000 0.84706  0.62327  0.07177  Biso   1.000  C
  C204     1.0000 0.91852  0.56508  0.85537  Biso   1.000  C
  C205     1.0000 0.90706  0.53908  0.75847  Biso   1.000  C
  H88      1.0000 0.88583  0.52887  0.72887  Biso   1.000  H
  C206     1.0000 0.92604  0.52774  0.70407  Biso   1.000  C
  H89      1.0000 0.91793  0.51127  0.63127  Biso   1.000  H
  C207     1.0000 0.95666  0.54019  0.75517  Biso   1.000  C
  C208     1.0000 0.96886  0.56578  0.85577  Biso   1.000  C
  C209     1.0000 0.95005  0.57894  0.90127  Biso   1.000  C
  H90      1.0000 0.95893  0.59717  0.96277  Biso   1.000  H
  C210     1.0000 0.97536  0.52530  0.69437  Biso   1.000  C
  K16      1.0000 0.40824  0.49420  0.73740  Biso   1.000  K
  Sm16     1.0000 0.48613  0.49438  0.04866  Biso   1.000  Sm
  S31      1.0000 0.42463  0.51464  0.10525  Biso   1.000  S
  S32      1.0000 0.24365  0.32518  0.26822  Biso   1.000  S
  O151     1.0000 0.46616  0.49409  0.31030  Biso   1.000  O
  O152     1.0000 0.44750  0.49095  0.54850  Biso   1.000  O
  O153     1.0000 0.44462  0.50686  0.00690  Biso   1.000  O
  O154     1.0000 0.40400  0.52091  0.00630  Biso   1.000  O
  O155     1.0000 0.44237  0.53837  0.22070  Biso   1.000  O
  O156     1.0000 0.21221  0.35935  0.88230  Biso   1.000  O
  O157     1.0000 0.19361  0.34276  0.12020  Biso   1.000  O
  O158     1.0000 0.22789  0.30467  0.13710  Biso   1.000  O
  O159     1.0000 0.22163  0.32613  0.38290  Biso   1.000  O
  O160     1.0000 0.26755  0.32030  0.34410  Biso   1.000  O
  C211     1.0000 0.40965  0.47002  0.34270  Biso   1.000  C
  C212     1.0000 0.39915  0.47955  0.21330  Biso   1.000  C
  C213     1.0000 0.36812  0.46158  0.16330  Biso   1.000  C
  H91      1.0000 0.36160  0.46750  0.07300  Biso   1.000  H
  C214     1.0000 0.34626  0.43439  0.24710  Biso   1.000  C
  C215     1.0000 0.35665  0.42673  0.37940  Biso   1.000  C
  H92      1.0000 0.34250  0.40960  0.43960  Biso   1.000  H
  C216     1.0000 0.38797  0.44405  0.42640  Biso   1.000  C
  H93      1.0000 0.39450  0.43800  0.51640  Biso   1.000  H
  C217     1.0000 0.44287  0.48627  0.40510  Biso   1.000  C
  C218     1.0000 0.31322  0.41481  0.18870  Biso   1.000  C
  C219     1.0000 0.29868  0.42627  0.09180  Biso   1.000  C
  H94      1.0000 0.30970  0.44750  0.06220  Biso   1.000  H
  C220     1.0000 0.26836  0.40729  0.03740  Biso   1.000  C
  H95      1.0000 0.26000  0.41540  0.96460  Biso   1.000  H
  C221     1.0000 0.25019  0.37667  0.08850  Biso   1.000  C
  C222     1.0000 0.26358  0.36447  0.18910  Biso   1.000  C
  C223     1.0000 0.29555  0.38328  0.23460  Biso   1.000  C
  H96      1.0000 0.30490  0.37440  0.29610  Biso   1.000  H
  C224     1.0000 0.21660  0.35797  0.02770  Biso   1.000  C
  K17      1.0000 0.07491  0.82753  0.07073  Biso   1.000  K
  Sm17     1.0000 0.15280  0.82771  0.38199  Biso   1.000  Sm
  S33      1.0000 0.09130  0.84797  0.43858  Biso   1.000  S
  S34      1.0000 0.91032  0.65851  0.60155  Biso   1.000  S
  O161     1.0000 0.13283  0.82742  0.64363  Biso   1.000  O
  O162     1.0000 0.11417  0.82428  0.88183  Biso   1.000  O
  O163     1.0000 0.11129  0.84019  0.34023  Biso   1.000  O
  O164     1.0000 0.07067  0.85424  0.33963  Biso   1.000  O
  O165     1.0000 0.10904  0.87170  0.55403  Biso   1.000  O
  O166     1.0000 0.87888  0.69268  0.21563  Biso   1.000  O
  O167     1.0000 0.86028  0.67609  0.45353  Biso   1.000  O
  O168     1.0000 0.89456  0.63800  0.47043  Biso   1.000  O
  O169     1.0000 0.88830  0.65946  0.71623  Biso   1.000  O
  O170     1.0000 0.93422  0.65363  0.67743  Biso   1.000  O
  C225     1.0000 0.07632  0.80335  0.67603  Biso   1.000  C
  C226     1.0000 0.06582  0.81288  0.54663  Biso   1.000  C
  C227     1.0000 0.03479  0.79491  0.49663  Biso   1.000  C
  H97      1.0000 0.02827  0.80083  0.40633  Biso   1.000  H
  C228     1.0000 0.01293  0.76772  0.58043  Biso   1.000  C
  C229     1.0000 0.02332  0.76006  0.71273  Biso   1.000  C
  H98      1.0000 0.00917  0.74293  0.77293  Biso   1.000  H
  C230     1.0000 0.05464  0.77738  0.75973  Biso   1.000  C
  H99      1.0000 0.06117  0.77133  0.84973  Biso   1.000  H
  C231     1.0000 0.10954  0.81960  0.73843  Biso   1.000  C
  C232     1.0000 0.97989  0.74814  0.52203  Biso   1.000  C
  C233     1.0000 0.96535  0.75960  0.42513  Biso   1.000  C
  H100     1.0000 0.97637  0.78083  0.39553  Biso   1.000  H
  C234     1.0000 0.93503  0.74062  0.37073  Biso   1.000  C
  H101     1.0000 0.92667  0.74873  0.29793  Biso   1.000  H
  C235     1.0000 0.91686  0.71000  0.42183  Biso   1.000  C
  C236     1.0000 0.93025  0.69780  0.52243  Biso   1.000  C
  C237     1.0000 0.96222  0.71661  0.56793  Biso   1.000  C
  H102     1.0000 0.97157  0.70773  0.62943  Biso   1.000  H
  C238     1.0000 0.88327  0.69130  0.36103  Biso   1.000  C
  K18      1.0000 0.74157  0.16087  0.40407  Biso   1.000  K
  Sm18     1.0000 0.81946  0.16105  0.71533  Biso   1.000  Sm
  S35      1.0000 0.75796  0.18131  0.77192  Biso   1.000  S
  S36      1.0000 0.57698  0.99185  0.93489  Biso   1.000  S
  O171     1.0000 0.79949  0.16076  0.97697  Biso   1.000  O
  O172     1.0000 0.78083  0.15762  0.21517  Biso   1.000  O
  O173     1.0000 0.77795  0.17353  0.67357  Biso   1.000  O
  O174     1.0000 0.73733  0.18758  0.67297  Biso   1.000  O
  O175     1.0000 0.77570  0.20504  0.88737  Biso   1.000  O
  O176     1.0000 0.54554  0.02602  0.54897  Biso   1.000  O
  O177     1.0000 0.52694  0.00943  0.78687  Biso   1.000  O
  O178     1.0000 0.56122  0.97134  0.80377  Biso   1.000  O
  O179     1.0000 0.55496  0.99280  0.04957  Biso   1.000  O
  O180     1.0000 0.60088  0.98697  0.01077  Biso   1.000  O
  C239     1.0000 0.74298  0.13669  0.00937  Biso   1.000  C
  C240     1.0000 0.73248  0.14622  0.87997  Biso   1.000  C
  C241     1.0000 0.70145  0.12825  0.82997  Biso   1.000  C
  H103     1.0000 0.69493  0.13417  0.73967  Biso   1.000  H
  C242     1.0000 0.67959  0.10106  0.91377  Biso   1.000  C
  C243     1.0000 0.68998  0.09340  0.04607  Biso   1.000  C
  H104     1.0000 0.67583  0.07627  0.10627  Biso   1.000  H
  C244     1.0000 0.72130  0.11072  0.09307  Biso   1.000  C
  H105     1.0000 0.72783  0.10467  0.18307  Biso   1.000  H
  C245     1.0000 0.77620  0.15294  0.07177  Biso   1.000  C
  C246     1.0000 0.64655  0.08148  0.85537  Biso   1.000  C
  C247     1.0000 0.63201  0.09294  0.75847  Biso   1.000  C
  H106     1.0000 0.64303  0.11417  0.72887  Biso   1.000  H
  C248     1.0000 0.60169  0.07396  0.70407  Biso   1.000  C
  H107     1.0000 0.59333  0.08207  0.63127  Biso   1.000  H
  C249     1.0000 0.58352  0.04334  0.75517  Biso   1.000  C
  C250     1.0000 0.59691  0.03114  0.85577  Biso   1.000  C
  C251     1.0000 0.62888  0.04995  0.90127  Biso   1.000  C
  H108     1.0000 0.63823  0.04107  0.96277  Biso   1.000  H
  C252     1.0000 0.54993  0.02464  0.69437  Biso   1.000  C
