data_image0
_cell_length_a       48.884
_cell_length_b       48.884
_cell_length_c       8.5632
_cell_angle_alpha    90
_cell_angle_beta     90
_cell_angle_gamma    120

_symmetry_space_group_name_H-M    "P 1"
_symmetry_int_tables_number       1

loop_
  _symmetry_equiv_pos_as_xyz
  'x, y, z'

loop_
  _atom_site_label
  _atom_site_occupancy
  _atom_site_fract_x
  _atom_site_fract_y
  _atom_site_fract_z
  _atom_site_thermal_displace_type
  _atom_site_B_iso_or_equiv
  _atom_site_type_symbol
  K1       1.0000 0.59219  0.08755  0.75900  Biso   1.000  K
  Pr1      1.0000 0.51478  0.00956  0.45095  Biso   1.000  Pr
  S1       1.0000 0.57690  0.09194  0.39234  Biso   1.000  S
  S2       1.0000 0.75601  0.08047  0.23701  Biso   1.000  S
  O1       1.0000 0.53509  0.02976  0.19060  Biso   1.000  O
  O2       1.0000 0.55390  0.04554  0.95420  Biso   1.000  O
  O3       1.0000 0.55723  0.06459  0.49260  Biso   1.000  O
  O4       1.0000 0.59792  0.11928  0.49160  Biso   1.000  O
  O5       1.0000 0.55890  0.09765  0.27850  Biso   1.000  O
  O6       1.0000 0.78779  0.14602  0.62100  Biso   1.000  O
  O7       1.0000 0.80636  0.14848  0.38380  Biso   1.000  O
  O8       1.0000 0.77202  0.07590  0.36810  Biso   1.000  O
  O9       1.0000 0.77761  0.10265  0.12210  Biso   1.000  O
  O10      1.0000 0.73248  0.05192  0.16670  Biso   1.000  O
  C1       1.0000 0.59147  0.06200  0.15740  Biso   1.000  C
  C2       1.0000 0.60164  0.08104  0.28980  Biso   1.000  C
  C3       1.0000 0.63274  0.09456  0.33850  Biso   1.000  C
  H1       1.0000 0.63920  0.10740  0.42650  Biso   1.000  H
  C4       1.0000 0.65483  0.08929  0.25750  Biso   1.000  C
  C5       1.0000 0.64461  0.07140  0.12280  Biso   1.000  C
  H2       1.0000 0.65890  0.06830  0.06470  Biso   1.000  H
  C6       1.0000 0.61331  0.05798  0.07150  Biso   1.000  C
  H3       1.0000 0.60710  0.04630  0.97950  Biso   1.000  H
  C7       1.0000 0.55809  0.04502  0.09930  Biso   1.000  C
  C8       1.0000 0.68770  0.10228  0.31250  Biso   1.000  C
  C9       1.0000 0.70185  0.12810  0.41250  Biso   1.000  C
  H4       1.0000 0.69080  0.13800  0.44500  Biso   1.000  H
  C10      1.0000 0.73259  0.13914  0.46390  Biso   1.000  C
  H5       1.0000 0.74150  0.15600  0.53330  Biso   1.000  H
  C11      1.0000 0.75007  0.12618  0.41640  Biso   1.000  C
  C12      1.0000 0.73595  0.09983  0.31260  Biso   1.000  C
  C13      1.0000 0.70517  0.08814  0.26730  Biso   1.000  C
  H6       1.0000 0.69560  0.07020  0.20440  Biso   1.000  H
  C14      1.0000 0.78321  0.14083  0.47820  Biso   1.000  C
  K2       1.0000 0.25886  0.42088  0.09233  Biso   1.000  K
  Pr2      1.0000 0.18145  0.34289  0.78428  Biso   1.000  Pr
  S3       1.0000 0.24357  0.42527  0.72567  Biso   1.000  S
  S4       1.0000 0.42268  0.41380  0.57034  Biso   1.000  S
  O11      1.0000 0.20176  0.36309  0.52393  Biso   1.000  O
  O12      1.0000 0.22057  0.37887  0.28753  Biso   1.000  O
  O13      1.0000 0.22390  0.39792  0.82593  Biso   1.000  O
  O14      1.0000 0.26459  0.45261  0.82493  Biso   1.000  O
  O15      1.0000 0.22557  0.43098  0.61183  Biso   1.000  O
  O16      1.0000 0.45446  0.47935  0.95433  Biso   1.000  O
  O17      1.0000 0.47303  0.48181  0.71713  Biso   1.000  O
  O18      1.0000 0.43869  0.40923  0.70143  Biso   1.000  O
  O19      1.0000 0.44428  0.43598  0.45543  Biso   1.000  O
  O20      1.0000 0.39915  0.38525  0.50003  Biso   1.000  O
  C15      1.0000 0.25814  0.39533  0.49073  Biso   1.000  C
  C16      1.0000 0.26831  0.41437  0.62313  Biso   1.000  C
  C17      1.0000 0.29941  0.42789  0.67183  Biso   1.000  C
  H7       1.0000 0.30587  0.44073  0.75983  Biso   1.000  H
  C18      1.0000 0.32150  0.42262  0.59083  Biso   1.000  C
  C19      1.0000 0.31128  0.40473  0.45613  Biso   1.000  C
  H8       1.0000 0.32557  0.40163  0.39803  Biso   1.000  H
  C20      1.0000 0.27998  0.39131  0.40483  Biso   1.000  C
  H9       1.0000 0.27377  0.37963  0.31283  Biso   1.000  H
  C21      1.0000 0.22476  0.37835  0.43263  Biso   1.000  C
  C22      1.0000 0.35437  0.43561  0.64583  Biso   1.000  C
  C23      1.0000 0.36852  0.46143  0.74583  Biso   1.000  C
  H10      1.0000 0.35747  0.47133  0.77833  Biso   1.000  H
  C24      1.0000 0.39926  0.47247  0.79723  Biso   1.000  C
  H11      1.0000 0.40817  0.48933  0.86663  Biso   1.000  H
  C25      1.0000 0.41674  0.45951  0.74973  Biso   1.000  C
  C26      1.0000 0.40262  0.43316  0.64593  Biso   1.000  C
  C27      1.0000 0.37184  0.42147  0.60063  Biso   1.000  C
  H12      1.0000 0.36227  0.40353  0.53773  Biso   1.000  H
  C28      1.0000 0.44988  0.47416  0.81153  Biso   1.000  C
  K3       1.0000 0.92552  0.75422  0.42567  Biso   1.000  K
  Pr3      1.0000 0.84811  0.67623  0.11762  Biso   1.000  Pr
  S5       1.0000 0.91023  0.75861  0.05901  Biso   1.000  S
  S6       1.0000 0.08934  0.74714  0.90368  Biso   1.000  S
  O21      1.0000 0.86842  0.69643  0.85727  Biso   1.000  O
  O22      1.0000 0.88723  0.71221  0.62087  Biso   1.000  O
  O23      1.0000 0.89056  0.73126  0.15927  Biso   1.000  O
  O24      1.0000 0.93125  0.78595  0.15827  Biso   1.000  O
  O25      1.0000 0.89223  0.76432  0.94517  Biso   1.000  O
  O26      1.0000 0.12112  0.81269  0.28767  Biso   1.000  O
  O27      1.0000 0.13969  0.81515  0.05047  Biso   1.000  O
  O28      1.0000 0.10535  0.74257  0.03477  Biso   1.000  O
  O29      1.0000 0.11094  0.76932  0.78877  Biso   1.000  O
  O30      1.0000 0.06581  0.71859  0.83337  Biso   1.000  O
  C29      1.0000 0.92480  0.72867  0.82407  Biso   1.000  C
  C30      1.0000 0.93497  0.74771  0.95647  Biso   1.000  C
  C31      1.0000 0.96607  0.76123  0.00517  Biso   1.000  C
  H13      1.0000 0.97253  0.77407  0.09317  Biso   1.000  H
  C32      1.0000 0.98816  0.75596  0.92417  Biso   1.000  C
  C33      1.0000 0.97794  0.73807  0.78947  Biso   1.000  C
  H14      1.0000 0.99223  0.73497  0.73137  Biso   1.000  H
  C34      1.0000 0.94664  0.72465  0.73817  Biso   1.000  C
  H15      1.0000 0.94043  0.71297  0.64617  Biso   1.000  H
  C35      1.0000 0.89142  0.71169  0.76597  Biso   1.000  C
  C36      1.0000 0.02103  0.76895  0.97917  Biso   1.000  C
  C37      1.0000 0.03518  0.79477  0.07917  Biso   1.000  C
  H16      1.0000 0.02413  0.80467  0.11167  Biso   1.000  H
  C38      1.0000 0.06592  0.80581  0.13057  Biso   1.000  C
  H17      1.0000 0.07483  0.82267  0.19997  Biso   1.000  H
  C39      1.0000 0.08340  0.79285  0.08307  Biso   1.000  C
  C40      1.0000 0.06928  0.76650  0.97927  Biso   1.000  C
  C41      1.0000 0.03850  0.75481  0.93397  Biso   1.000  C
  H18      1.0000 0.02893  0.73687  0.87107  Biso   1.000  H
  C42      1.0000 0.11654  0.80750  0.14487  Biso   1.000  C
  K4       1.0000 0.91245  0.50464  0.75900  Biso   1.000  K
  Pr4      1.0000 0.99044  0.50522  0.45095  Biso   1.000  Pr
  S7       1.0000 0.90806  0.48496  0.39234  Biso   1.000  S
  S8       1.0000 0.91953  0.67554  0.23701  Biso   1.000  S
  O31      1.0000 0.97024  0.50533  0.19060  Biso   1.000  O
  O32      1.0000 0.95446  0.50836  0.95420  Biso   1.000  O
  O33      1.0000 0.93541  0.49264  0.49260  Biso   1.000  O
  O34      1.0000 0.88072  0.47864  0.49160  Biso   1.000  O
  O35      1.0000 0.90235  0.46125  0.27850  Biso   1.000  O
  O36      1.0000 0.85398  0.64177  0.62100  Biso   1.000  O
  O37      1.0000 0.85152  0.65788  0.38380  Biso   1.000  O
  O38      1.0000 0.92410  0.69612  0.36810  Biso   1.000  O
  O39      1.0000 0.89735  0.67496  0.12210  Biso   1.000  O
  O40      1.0000 0.94808  0.68056  0.16670  Biso   1.000  O
  C43      1.0000 0.93800  0.52947  0.15740  Biso   1.000  C
  C44      1.0000 0.91896  0.52060  0.28980  Biso   1.000  C
  C45      1.0000 0.90544  0.53818  0.33850  Biso   1.000  C
  H19      1.0000 0.89260  0.53180  0.42650  Biso   1.000  H
  C46      1.0000 0.91071  0.56554  0.25750  Biso   1.000  C
  C47      1.0000 0.92860  0.57321  0.12280  Biso   1.000  C
  H20      1.0000 0.93170  0.59060  0.06470  Biso   1.000  H
  C48      1.0000 0.94202  0.55533  0.07150  Biso   1.000  C
  H21      1.0000 0.95370  0.56080  0.97950  Biso   1.000  H
  C49      1.0000 0.95498  0.51307  0.09930  Biso   1.000  C
  C50      1.0000 0.89772  0.58542  0.31250  Biso   1.000  C
  C51      1.0000 0.87190  0.57375  0.41250  Biso   1.000  C
  H22      1.0000 0.86200  0.55280  0.44500  Biso   1.000  H
  C52      1.0000 0.86086  0.59345  0.46390  Biso   1.000  C
  H23      1.0000 0.84400  0.58550  0.53330  Biso   1.000  H
  C53      1.0000 0.87382  0.62389  0.41640  Biso   1.000  C
  C54      1.0000 0.90017  0.63612  0.31260  Biso   1.000  C
  C55      1.0000 0.91186  0.61703  0.26730  Biso   1.000  C
  H24      1.0000 0.92980  0.62540  0.20440  Biso   1.000  H
  C56      1.0000 0.85917  0.64238  0.47820  Biso   1.000  C
  K5       1.0000 0.57912  0.83797  0.09233  Biso   1.000  K
  Pr5      1.0000 0.65711  0.83855  0.78428  Biso   1.000  Pr
  S9       1.0000 0.57473  0.81829  0.72567  Biso   1.000  S
  S10      1.0000 0.58620  0.00887  0.57034  Biso   1.000  S
  O41      1.0000 0.63691  0.83866  0.52393  Biso   1.000  O
  O42      1.0000 0.62113  0.84169  0.28753  Biso   1.000  O
  O43      1.0000 0.60208  0.82597  0.82593  Biso   1.000  O
  O44      1.0000 0.54739  0.81197  0.82493  Biso   1.000  O
  O45      1.0000 0.56902  0.79458  0.61183  Biso   1.000  O
  O46      1.0000 0.52065  0.97510  0.95433  Biso   1.000  O
  O47      1.0000 0.51819  0.99121  0.71713  Biso   1.000  O
  O48      1.0000 0.59077  0.02945  0.70143  Biso   1.000  O
  O49      1.0000 0.56402  0.00829  0.45543  Biso   1.000  O
  O50      1.0000 0.61475  0.01389  0.50003  Biso   1.000  O
  C57      1.0000 0.60467  0.86280  0.49073  Biso   1.000  C
  C58      1.0000 0.58563  0.85393  0.62313  Biso   1.000  C
  C59      1.0000 0.57211  0.87151  0.67183  Biso   1.000  C
  H25      1.0000 0.55927  0.86513  0.75983  Biso   1.000  H
  C60      1.0000 0.57738  0.89887  0.59083  Biso   1.000  C
  C61      1.0000 0.59527  0.90654  0.45613  Biso   1.000  C
  H26      1.0000 0.59837  0.92393  0.39803  Biso   1.000  H
  C62      1.0000 0.60869  0.88866  0.40483  Biso   1.000  C
  H27      1.0000 0.62037  0.89413  0.31283  Biso   1.000  H
  C63      1.0000 0.62165  0.84640  0.43263  Biso   1.000  C
  C64      1.0000 0.56439  0.91875  0.64583  Biso   1.000  C
  C65      1.0000 0.53857  0.90708  0.74583  Biso   1.000  C
  H28      1.0000 0.52867  0.88613  0.77833  Biso   1.000  H
  C66      1.0000 0.52753  0.92678  0.79723  Biso   1.000  C
  H29      1.0000 0.51067  0.91883  0.86663  Biso   1.000  H
  C67      1.0000 0.54049  0.95722  0.74973  Biso   1.000  C
  C68      1.0000 0.56684  0.96945  0.64593  Biso   1.000  C
  C69      1.0000 0.57853  0.95036  0.60063  Biso   1.000  C
  H30      1.0000 0.59647  0.95873  0.53773  Biso   1.000  H
  C70      1.0000 0.52584  0.97571  0.81153  Biso   1.000  C
  K6       1.0000 0.24578  0.17131  0.42567  Biso   1.000  K
  Pr6      1.0000 0.32377  0.17189  0.11762  Biso   1.000  Pr
  S11      1.0000 0.24139  0.15163  0.05901  Biso   1.000  S
  S12      1.0000 0.25286  0.34221  0.90368  Biso   1.000  S
  O51      1.0000 0.30357  0.17200  0.85727  Biso   1.000  O
  O52      1.0000 0.28779  0.17503  0.62087  Biso   1.000  O
  O53      1.0000 0.26874  0.15931  0.15927  Biso   1.000  O
  O54      1.0000 0.21405  0.14531  0.15827  Biso   1.000  O
  O55      1.0000 0.23568  0.12792  0.94517  Biso   1.000  O
  O56      1.0000 0.18731  0.30844  0.28767  Biso   1.000  O
  O57      1.0000 0.18485  0.32455  0.05047  Biso   1.000  O
  O58      1.0000 0.25743  0.36279  0.03477  Biso   1.000  O
  O59      1.0000 0.23068  0.34163  0.78877  Biso   1.000  O
  O60      1.0000 0.28141  0.34723  0.83337  Biso   1.000  O
  C71      1.0000 0.27133  0.19614  0.82407  Biso   1.000  C
  C72      1.0000 0.25229  0.18727  0.95647  Biso   1.000  C
  C73      1.0000 0.23877  0.20485  0.00517  Biso   1.000  C
  H31      1.0000 0.22593  0.19847  0.09317  Biso   1.000  H
  C74      1.0000 0.24404  0.23221  0.92417  Biso   1.000  C
  C75      1.0000 0.26193  0.23988  0.78947  Biso   1.000  C
  H32      1.0000 0.26503  0.25727  0.73137  Biso   1.000  H
  C76      1.0000 0.27535  0.22200  0.73817  Biso   1.000  C
  H33      1.0000 0.28703  0.22747  0.64617  Biso   1.000  H
  C77      1.0000 0.28831  0.17974  0.76597  Biso   1.000  C
  C78      1.0000 0.23105  0.25209  0.97917  Biso   1.000  C
  C79      1.0000 0.20523  0.24042  0.07917  Biso   1.000  C
  H34      1.0000 0.19533  0.21947  0.11167  Biso   1.000  H
  C80      1.0000 0.19419  0.26012  0.13057  Biso   1.000  C
  H35      1.0000 0.17733  0.25217  0.19997  Biso   1.000  H
  C81      1.0000 0.20715  0.29056  0.08307  Biso   1.000  C
  C82      1.0000 0.23350  0.30279  0.97927  Biso   1.000  C
  C83      1.0000 0.24519  0.28370  0.93397  Biso   1.000  C
  H36      1.0000 0.26313  0.29207  0.87107  Biso   1.000  H
  C84      1.0000 0.19250  0.30905  0.14487  Biso   1.000  C
  K7       1.0000 0.49536  0.40781  0.75900  Biso   1.000  K
  Pr7      1.0000 0.49478  0.48522  0.45095  Biso   1.000  Pr
  S13      1.0000 0.51504  0.42310  0.39234  Biso   1.000  S
  S14      1.0000 0.32446  0.24399  0.23701  Biso   1.000  S
  O61      1.0000 0.49467  0.46491  0.19060  Biso   1.000  O
  O62      1.0000 0.49164  0.44610  0.95420  Biso   1.000  O
  O63      1.0000 0.50736  0.44277  0.49260  Biso   1.000  O
  O64      1.0000 0.52136  0.40208  0.49160  Biso   1.000  O
  O65      1.0000 0.53875  0.44110  0.27850  Biso   1.000  O
  O66      1.0000 0.35823  0.21221  0.62100  Biso   1.000  O
  O67      1.0000 0.34212  0.19364  0.38380  Biso   1.000  O
  O68      1.0000 0.30388  0.22798  0.36810  Biso   1.000  O
  O69      1.0000 0.32504  0.22239  0.12210  Biso   1.000  O
  O70      1.0000 0.31944  0.26752  0.16670  Biso   1.000  O
  C85      1.0000 0.47053  0.40853  0.15740  Biso   1.000  C
  C86      1.0000 0.47940  0.39836  0.28980  Biso   1.000  C
  C87      1.0000 0.46182  0.36726  0.33850  Biso   1.000  C
  H37      1.0000 0.46820  0.36080  0.42650  Biso   1.000  H
  C88      1.0000 0.43446  0.34517  0.25750  Biso   1.000  C
  C89      1.0000 0.42679  0.35539  0.12280  Biso   1.000  C
  H38      1.0000 0.40940  0.34110  0.06470  Biso   1.000  H
  C90      1.0000 0.44467  0.38669  0.07150  Biso   1.000  C
  H39      1.0000 0.43920  0.39290  0.97950  Biso   1.000  H
  C91      1.0000 0.48693  0.44191  0.09930  Biso   1.000  C
  C92      1.0000 0.41458  0.31230  0.31250  Biso   1.000  C
  C93      1.0000 0.42625  0.29815  0.41250  Biso   1.000  C
  H40      1.0000 0.44720  0.30920  0.44500  Biso   1.000  H
  C94      1.0000 0.40655  0.26741  0.46390  Biso   1.000  C
  H41      1.0000 0.41450  0.25850  0.53330  Biso   1.000  H
  C95      1.0000 0.37611  0.24993  0.41640  Biso   1.000  C
  C96      1.0000 0.36388  0.26405  0.31260  Biso   1.000  C
  C97      1.0000 0.38297  0.29483  0.26730  Biso   1.000  C
  H42      1.0000 0.37460  0.30440  0.20440  Biso   1.000  H
  C98      1.0000 0.35762  0.21679  0.47820  Biso   1.000  C
  K8       1.0000 0.16203  0.74114  0.09233  Biso   1.000  K
  Pr8      1.0000 0.16145  0.81855  0.78428  Biso   1.000  Pr
  S15      1.0000 0.18171  0.75643  0.72567  Biso   1.000  S
  S16      1.0000 0.99113  0.57732  0.57034  Biso   1.000  S
  O71      1.0000 0.16134  0.79824  0.52393  Biso   1.000  O
  O72      1.0000 0.15831  0.77943  0.28753  Biso   1.000  O
  O73      1.0000 0.17403  0.77610  0.82593  Biso   1.000  O
  O74      1.0000 0.18803  0.73541  0.82493  Biso   1.000  O
  O75      1.0000 0.20542  0.77443  0.61183  Biso   1.000  O
  O76      1.0000 0.02490  0.54554  0.95433  Biso   1.000  O
  O77      1.0000 0.00879  0.52697  0.71713  Biso   1.000  O
  O78      1.0000 0.97055  0.56131  0.70143  Biso   1.000  O
  O79      1.0000 0.99171  0.55572  0.45543  Biso   1.000  O
  O80      1.0000 0.98611  0.60085  0.50003  Biso   1.000  O
  C99      1.0000 0.13720  0.74186  0.49073  Biso   1.000  C
  C100     1.0000 0.14607  0.73169  0.62313  Biso   1.000  C
  C101     1.0000 0.12849  0.70059  0.67183  Biso   1.000  C
  H43      1.0000 0.13487  0.69413  0.75983  Biso   1.000  H
  C102     1.0000 0.10113  0.67850  0.59083  Biso   1.000  C
  C103     1.0000 0.09346  0.68872  0.45613  Biso   1.000  C
  H44      1.0000 0.07607  0.67443  0.39803  Biso   1.000  H
  C104     1.0000 0.11134  0.72002  0.40483  Biso   1.000  C
  H45      1.0000 0.10587  0.72623  0.31283  Biso   1.000  H
  C105     1.0000 0.15360  0.77524  0.43263  Biso   1.000  C
  C106     1.0000 0.08125  0.64563  0.64583  Biso   1.000  C
  C107     1.0000 0.09292  0.63148  0.74583  Biso   1.000  C
  H46      1.0000 0.11387  0.64253  0.77833  Biso   1.000  H
  C108     1.0000 0.07322  0.60074  0.79723  Biso   1.000  C
  H47      1.0000 0.08117  0.59183  0.86663  Biso   1.000  H
  C109     1.0000 0.04278  0.58326  0.74973  Biso   1.000  C
  C110     1.0000 0.03055  0.59738  0.64593  Biso   1.000  C
  C111     1.0000 0.04964  0.62816  0.60063  Biso   1.000  C
  H48      1.0000 0.04127  0.63773  0.53773  Biso   1.000  H
  C112     1.0000 0.02429  0.55012  0.81153  Biso   1.000  C
  K9       1.0000 0.82869  0.07448  0.42567  Biso   1.000  K
  Pr9      1.0000 0.82811  0.15189  0.11762  Biso   1.000  Pr
  S17      1.0000 0.84837  0.08977  0.05901  Biso   1.000  S
  S18      1.0000 0.65779  0.91066  0.90368  Biso   1.000  S
  O81      1.0000 0.82800  0.13158  0.85727  Biso   1.000  O
  O82      1.0000 0.82497  0.11277  0.62087  Biso   1.000  O
  O83      1.0000 0.84069  0.10944  0.15927  Biso   1.000  O
  O84      1.0000 0.85469  0.06875  0.15827  Biso   1.000  O
  O85      1.0000 0.87208  0.10777  0.94517  Biso   1.000  O
  O86      1.0000 0.69156  0.87888  0.28767  Biso   1.000  O
  O87      1.0000 0.67545  0.86031  0.05047  Biso   1.000  O
  O88      1.0000 0.63721  0.89465  0.03477  Biso   1.000  O
  O89      1.0000 0.65837  0.88906  0.78877  Biso   1.000  O
  O90      1.0000 0.65277  0.93419  0.83337  Biso   1.000  O
  C113     1.0000 0.80386  0.07520  0.82407  Biso   1.000  C
  C114     1.0000 0.81273  0.06503  0.95647  Biso   1.000  C
  C115     1.0000 0.79515  0.03393  0.00517  Biso   1.000  C
  H49      1.0000 0.80153  0.02747  0.09317  Biso   1.000  H
  C116     1.0000 0.76779  0.01184  0.92417  Biso   1.000  C
  C117     1.0000 0.76012  0.02206  0.78947  Biso   1.000  C
  H50      1.0000 0.74273  0.00777  0.73137  Biso   1.000  H
  C118     1.0000 0.77800  0.05336  0.73817  Biso   1.000  C
  H51      1.0000 0.77253  0.05957  0.64617  Biso   1.000  H
  C119     1.0000 0.82026  0.10858  0.76597  Biso   1.000  C
  C120     1.0000 0.74791  0.97897  0.97917  Biso   1.000  C
  C121     1.0000 0.75958  0.96482  0.07917  Biso   1.000  C
  H52      1.0000 0.78053  0.97587  0.11167  Biso   1.000  H
  C122     1.0000 0.73988  0.93408  0.13057  Biso   1.000  C
  H53      1.0000 0.74783  0.92517  0.19997  Biso   1.000  H
  C123     1.0000 0.70944  0.91660  0.08307  Biso   1.000  C
  C124     1.0000 0.69721  0.93072  0.97927  Biso   1.000  C
  C125     1.0000 0.71630  0.96150  0.93397  Biso   1.000  C
  H54      1.0000 0.70793  0.97107  0.87107  Biso   1.000  H
  C126     1.0000 0.69095  0.88346  0.14487  Biso   1.000  C
  K10      1.0000 0.91245  0.40781  0.25900  Biso   1.000  K
  Pr10     1.0000 0.99044  0.48522  0.95095  Biso   1.000  Pr
  S19      1.0000 0.90806  0.42310  0.89234  Biso   1.000  S
  S20      1.0000 0.91953  0.24399  0.73701  Biso   1.000  S
  O91      1.0000 0.97024  0.46491  0.69060  Biso   1.000  O
  O92      1.0000 0.95446  0.44610  0.45420  Biso   1.000  O
  O93      1.0000 0.93541  0.44277  0.99260  Biso   1.000  O
  O94      1.0000 0.88072  0.40208  0.99160  Biso   1.000  O
  O95      1.0000 0.90235  0.44110  0.77850  Biso   1.000  O
  O96      1.0000 0.85398  0.21221  0.12100  Biso   1.000  O
  O97      1.0000 0.85152  0.19364  0.88380  Biso   1.000  O
  O98      1.0000 0.92410  0.22798  0.86810  Biso   1.000  O
  O99      1.0000 0.89735  0.22239  0.62210  Biso   1.000  O
  O100     1.0000 0.94808  0.26752  0.66670  Biso   1.000  O
  C127     1.0000 0.93800  0.40853  0.65740  Biso   1.000  C
  C128     1.0000 0.91896  0.39836  0.78980  Biso   1.000  C
  C129     1.0000 0.90544  0.36726  0.83850  Biso   1.000  C
  H55      1.0000 0.89260  0.36080  0.92650  Biso   1.000  H
  C130     1.0000 0.91071  0.34517  0.75750  Biso   1.000  C
  C131     1.0000 0.92860  0.35539  0.62280  Biso   1.000  C
  H56      1.0000 0.93170  0.34110  0.56470  Biso   1.000  H
  C132     1.0000 0.94202  0.38669  0.57150  Biso   1.000  C
  H57      1.0000 0.95370  0.39290  0.47950  Biso   1.000  H
  C133     1.0000 0.95498  0.44191  0.59930  Biso   1.000  C
  C134     1.0000 0.89772  0.31230  0.81250  Biso   1.000  C
  C135     1.0000 0.87190  0.29815  0.91250  Biso   1.000  C
  H58      1.0000 0.86200  0.30920  0.94500  Biso   1.000  H
  C136     1.0000 0.86086  0.26741  0.96390  Biso   1.000  C
  H59      1.0000 0.84400  0.25850  0.03330  Biso   1.000  H
  C137     1.0000 0.87382  0.24993  0.91640  Biso   1.000  C
  C138     1.0000 0.90017  0.26405  0.81260  Biso   1.000  C
  C139     1.0000 0.91186  0.29483  0.76730  Biso   1.000  C
  H60      1.0000 0.92980  0.30440  0.70440  Biso   1.000  H
  C140     1.0000 0.85917  0.21679  0.97820  Biso   1.000  C
  K11      1.0000 0.57912  0.74114  0.59233  Biso   1.000  K
  Pr11     1.0000 0.65711  0.81855  0.28428  Biso   1.000  Pr
  S21      1.0000 0.57473  0.75643  0.22567  Biso   1.000  S
  S22      1.0000 0.58620  0.57732  0.07034  Biso   1.000  S
  O101     1.0000 0.63691  0.79824  0.02393  Biso   1.000  O
  O102     1.0000 0.62113  0.77943  0.78753  Biso   1.000  O
  O103     1.0000 0.60208  0.77610  0.32593  Biso   1.000  O
  O104     1.0000 0.54739  0.73541  0.32493  Biso   1.000  O
  O105     1.0000 0.56902  0.77443  0.11183  Biso   1.000  O
  O106     1.0000 0.52065  0.54554  0.45433  Biso   1.000  O
  O107     1.0000 0.51819  0.52697  0.21713  Biso   1.000  O
  O108     1.0000 0.59077  0.56131  0.20143  Biso   1.000  O
  O109     1.0000 0.56402  0.55572  0.95543  Biso   1.000  O
  O110     1.0000 0.61475  0.60085  0.00003  Biso   1.000  O
  C141     1.0000 0.60467  0.74186  0.99073  Biso   1.000  C
  C142     1.0000 0.58563  0.73169  0.12313  Biso   1.000  C
  C143     1.0000 0.57211  0.70059  0.17183  Biso   1.000  C
  H61      1.0000 0.55927  0.69413  0.25983  Biso   1.000  H
  C144     1.0000 0.57738  0.67850  0.09083  Biso   1.000  C
  C145     1.0000 0.59527  0.68872  0.95613  Biso   1.000  C
  H62      1.0000 0.59837  0.67443  0.89803  Biso   1.000  H
  C146     1.0000 0.60869  0.72002  0.90483  Biso   1.000  C
  H63      1.0000 0.62037  0.72623  0.81283  Biso   1.000  H
  C147     1.0000 0.62165  0.77524  0.93263  Biso   1.000  C
  C148     1.0000 0.56439  0.64563  0.14583  Biso   1.000  C
  C149     1.0000 0.53857  0.63148  0.24583  Biso   1.000  C
  H64      1.0000 0.52867  0.64253  0.27833  Biso   1.000  H
  C150     1.0000 0.52753  0.60074  0.29723  Biso   1.000  C
  H65      1.0000 0.51067  0.59183  0.36663  Biso   1.000  H
  C151     1.0000 0.54049  0.58326  0.24973  Biso   1.000  C
  C152     1.0000 0.56684  0.59738  0.14593  Biso   1.000  C
  C153     1.0000 0.57853  0.62816  0.10063  Biso   1.000  C
  H66      1.0000 0.59647  0.63773  0.03773  Biso   1.000  H
  C154     1.0000 0.52584  0.55012  0.31153  Biso   1.000  C
  K12      1.0000 0.24578  0.07448  0.92567  Biso   1.000  K
  Pr12     1.0000 0.32377  0.15189  0.61762  Biso   1.000  Pr
  S23      1.0000 0.24139  0.08977  0.55901  Biso   1.000  S
  S24      1.0000 0.25286  0.91066  0.40368  Biso   1.000  S
  O111     1.0000 0.30357  0.13158  0.35727  Biso   1.000  O
  O112     1.0000 0.28779  0.11277  0.12087  Biso   1.000  O
  O113     1.0000 0.26874  0.10944  0.65927  Biso   1.000  O
  O114     1.0000 0.21405  0.06875  0.65827  Biso   1.000  O
  O115     1.0000 0.23568  0.10777  0.44517  Biso   1.000  O
  O116     1.0000 0.18731  0.87888  0.78767  Biso   1.000  O
  O117     1.0000 0.18485  0.86031  0.55047  Biso   1.000  O
  O118     1.0000 0.25743  0.89465  0.53477  Biso   1.000  O
  O119     1.0000 0.23068  0.88906  0.28877  Biso   1.000  O
  O120     1.0000 0.28141  0.93419  0.33337  Biso   1.000  O
  C155     1.0000 0.27133  0.07520  0.32407  Biso   1.000  C
  C156     1.0000 0.25229  0.06503  0.45647  Biso   1.000  C
  C157     1.0000 0.23877  0.03393  0.50517  Biso   1.000  C
  H67      1.0000 0.22593  0.02747  0.59317  Biso   1.000  H
  C158     1.0000 0.24404  0.01184  0.42417  Biso   1.000  C
  C159     1.0000 0.26193  0.02206  0.28947  Biso   1.000  C
  H68      1.0000 0.26503  0.00777  0.23137  Biso   1.000  H
  C160     1.0000 0.27535  0.05336  0.23817  Biso   1.000  C
  H69      1.0000 0.28703  0.05957  0.14617  Biso   1.000  H
  C161     1.0000 0.28831  0.10858  0.26597  Biso   1.000  C
  C162     1.0000 0.23105  0.97897  0.47917  Biso   1.000  C
  C163     1.0000 0.20523  0.96482  0.57917  Biso   1.000  C
  H70      1.0000 0.19533  0.97587  0.61167  Biso   1.000  H
  C164     1.0000 0.19419  0.93408  0.63057  Biso   1.000  C
  H71      1.0000 0.17733  0.92517  0.69997  Biso   1.000  H
  C165     1.0000 0.20715  0.91660  0.58307  Biso   1.000  C
  C166     1.0000 0.23350  0.93072  0.47927  Biso   1.000  C
  C167     1.0000 0.24519  0.96150  0.43397  Biso   1.000  C
  H72      1.0000 0.26313  0.97107  0.37107  Biso   1.000  H
  C168     1.0000 0.19250  0.88346  0.64487  Biso   1.000  C
  K13      1.0000 0.49536  0.08755  0.25900  Biso   1.000  K
  Pr13     1.0000 0.49478  0.00956  0.95095  Biso   1.000  Pr
  S25      1.0000 0.51504  0.09194  0.89234  Biso   1.000  S
  S26      1.0000 0.32446  0.08047  0.73701  Biso   1.000  S
  O121     1.0000 0.49467  0.02976  0.69060  Biso   1.000  O
  O122     1.0000 0.49164  0.04554  0.45420  Biso   1.000  O
  O123     1.0000 0.50736  0.06459  0.99260  Biso   1.000  O
  O124     1.0000 0.52136  0.11928  0.99160  Biso   1.000  O
  O125     1.0000 0.53875  0.09765  0.77850  Biso   1.000  O
  O126     1.0000 0.35823  0.14602  0.12100  Biso   1.000  O
  O127     1.0000 0.34212  0.14848  0.88380  Biso   1.000  O
  O128     1.0000 0.30388  0.07590  0.86810  Biso   1.000  O
  O129     1.0000 0.32504  0.10265  0.62210  Biso   1.000  O
  O130     1.0000 0.31944  0.05192  0.66670  Biso   1.000  O
  C169     1.0000 0.47053  0.06200  0.65740  Biso   1.000  C
  C170     1.0000 0.47940  0.08104  0.78980  Biso   1.000  C
  C171     1.0000 0.46182  0.09456  0.83850  Biso   1.000  C
  H73      1.0000 0.46820  0.10740  0.92650  Biso   1.000  H
  C172     1.0000 0.43446  0.08929  0.75750  Biso   1.000  C
  C173     1.0000 0.42679  0.07140  0.62280  Biso   1.000  C
  H74      1.0000 0.40940  0.06830  0.56470  Biso   1.000  H
  C174     1.0000 0.44467  0.05798  0.57150  Biso   1.000  C
  H75      1.0000 0.43920  0.04630  0.47950  Biso   1.000  H
  C175     1.0000 0.48693  0.04502  0.59930  Biso   1.000  C
  C176     1.0000 0.41458  0.10228  0.81250  Biso   1.000  C
  C177     1.0000 0.42625  0.12810  0.91250  Biso   1.000  C
  H76      1.0000 0.44720  0.13800  0.94500  Biso   1.000  H
  C178     1.0000 0.40655  0.13914  0.96390  Biso   1.000  C
  H77      1.0000 0.41450  0.15600  0.03330  Biso   1.000  H
  C179     1.0000 0.37611  0.12618  0.91640  Biso   1.000  C
  C180     1.0000 0.36388  0.09983  0.81260  Biso   1.000  C
  C181     1.0000 0.38297  0.08814  0.76730  Biso   1.000  C
  H78      1.0000 0.37460  0.07020  0.70440  Biso   1.000  H
  C182     1.0000 0.35762  0.14083  0.97820  Biso   1.000  C
  K14      1.0000 0.16203  0.42088  0.59233  Biso   1.000  K
  Pr14     1.0000 0.16145  0.34289  0.28428  Biso   1.000  Pr
  S27      1.0000 0.18171  0.42527  0.22567  Biso   1.000  S
  S28      1.0000 0.99113  0.41380  0.07034  Biso   1.000  S
  O131     1.0000 0.16134  0.36309  0.02393  Biso   1.000  O
  O132     1.0000 0.15831  0.37887  0.78753  Biso   1.000  O
  O133     1.0000 0.17403  0.39792  0.32593  Biso   1.000  O
  O134     1.0000 0.18803  0.45261  0.32493  Biso   1.000  O
  O135     1.0000 0.20542  0.43098  0.11183  Biso   1.000  O
  O136     1.0000 0.02490  0.47935  0.45433  Biso   1.000  O
  O137     1.0000 0.00879  0.48181  0.21713  Biso   1.000  O
  O138     1.0000 0.97055  0.40923  0.20143  Biso   1.000  O
  O139     1.0000 0.99171  0.43598  0.95543  Biso   1.000  O
  O140     1.0000 0.98611  0.38525  0.00003  Biso   1.000  O
  C183     1.0000 0.13720  0.39533  0.99073  Biso   1.000  C
  C184     1.0000 0.14607  0.41437  0.12313  Biso   1.000  C
  C185     1.0000 0.12849  0.42789  0.17183  Biso   1.000  C
  H79      1.0000 0.13487  0.44073  0.25983  Biso   1.000  H
  C186     1.0000 0.10113  0.42262  0.09083  Biso   1.000  C
  C187     1.0000 0.09346  0.40473  0.95613  Biso   1.000  C
  H80      1.0000 0.07607  0.40163  0.89803  Biso   1.000  H
  C188     1.0000 0.11134  0.39131  0.90483  Biso   1.000  C
  H81      1.0000 0.10587  0.37963  0.81283  Biso   1.000  H
  C189     1.0000 0.15360  0.37835  0.93263  Biso   1.000  C
  C190     1.0000 0.08125  0.43561  0.14583  Biso   1.000  C
  C191     1.0000 0.09292  0.46143  0.24583  Biso   1.000  C
  H82      1.0000 0.11387  0.47133  0.27833  Biso   1.000  H
  C192     1.0000 0.07322  0.47247  0.29723  Biso   1.000  C
  H83      1.0000 0.08117  0.48933  0.36663  Biso   1.000  H
  C193     1.0000 0.04278  0.45951  0.24973  Biso   1.000  C
  C194     1.0000 0.03055  0.43316  0.14593  Biso   1.000  C
  C195     1.0000 0.04964  0.42147  0.10063  Biso   1.000  C
  H84      1.0000 0.04127  0.40353  0.03773  Biso   1.000  H
  C196     1.0000 0.02429  0.47416  0.31153  Biso   1.000  C
  K15      1.0000 0.82869  0.75422  0.92567  Biso   1.000  K
  Pr15     1.0000 0.82811  0.67623  0.61762  Biso   1.000  Pr
  S29      1.0000 0.84837  0.75861  0.55901  Biso   1.000  S
  S30      1.0000 0.65779  0.74714  0.40368  Biso   1.000  S
  O141     1.0000 0.82800  0.69643  0.35727  Biso   1.000  O
  O142     1.0000 0.82497  0.71221  0.12087  Biso   1.000  O
  O143     1.0000 0.84069  0.73126  0.65927  Biso   1.000  O
  O144     1.0000 0.85469  0.78595  0.65827  Biso   1.000  O
  O145     1.0000 0.87208  0.76432  0.44517  Biso   1.000  O
  O146     1.0000 0.69156  0.81269  0.78767  Biso   1.000  O
  O147     1.0000 0.67545  0.81515  0.55047  Biso   1.000  O
  O148     1.0000 0.63721  0.74257  0.53477  Biso   1.000  O
  O149     1.0000 0.65837  0.76932  0.28877  Biso   1.000  O
  O150     1.0000 0.65277  0.71859  0.33337  Biso   1.000  O
  C197     1.0000 0.80386  0.72867  0.32407  Biso   1.000  C
  C198     1.0000 0.81273  0.74771  0.45647  Biso   1.000  C
  C199     1.0000 0.79515  0.76123  0.50517  Biso   1.000  C
  H85      1.0000 0.80153  0.77407  0.59317  Biso   1.000  H
  C200     1.0000 0.76779  0.75596  0.42417  Biso   1.000  C
  C201     1.0000 0.76012  0.73807  0.28947  Biso   1.000  C
  H86      1.0000 0.74273  0.73497  0.23137  Biso   1.000  H
  C202     1.0000 0.77800  0.72465  0.23817  Biso   1.000  C
  H87      1.0000 0.77253  0.71297  0.14617  Biso   1.000  H
  C203     1.0000 0.82026  0.71169  0.26597  Biso   1.000  C
  C204     1.0000 0.74791  0.76895  0.47917  Biso   1.000  C
  C205     1.0000 0.75958  0.79477  0.57917  Biso   1.000  C
  H88      1.0000 0.78053  0.80467  0.61167  Biso   1.000  H
  C206     1.0000 0.73988  0.80581  0.63057  Biso   1.000  C
  H89      1.0000 0.74783  0.82267  0.69997  Biso   1.000  H
  C207     1.0000 0.70944  0.79285  0.58307  Biso   1.000  C
  C208     1.0000 0.69721  0.76650  0.47927  Biso   1.000  C
  C209     1.0000 0.71630  0.75481  0.43397  Biso   1.000  C
  H90      1.0000 0.70793  0.73687  0.37107  Biso   1.000  H
  C210     1.0000 0.69095  0.80750  0.64487  Biso   1.000  C
  K16      1.0000 0.59219  0.50464  0.25900  Biso   1.000  K
  Pr16     1.0000 0.51478  0.50522  0.95095  Biso   1.000  Pr
  S31      1.0000 0.57690  0.48496  0.89234  Biso   1.000  S
  S32      1.0000 0.75601  0.67554  0.73701  Biso   1.000  S
  O151     1.0000 0.53509  0.50533  0.69060  Biso   1.000  O
  O152     1.0000 0.55390  0.50836  0.45420  Biso   1.000  O
  O153     1.0000 0.55723  0.49264  0.99260  Biso   1.000  O
  O154     1.0000 0.59792  0.47864  0.99160  Biso   1.000  O
  O155     1.0000 0.55890  0.46125  0.77850  Biso   1.000  O
  O156     1.0000 0.78779  0.64177  0.12100  Biso   1.000  O
  O157     1.0000 0.80636  0.65788  0.88380  Biso   1.000  O
  O158     1.0000 0.77202  0.69612  0.86810  Biso   1.000  O
  O159     1.0000 0.77761  0.67496  0.62210  Biso   1.000  O
  O160     1.0000 0.73248  0.68056  0.66670  Biso   1.000  O
  C211     1.0000 0.59147  0.52947  0.65740  Biso   1.000  C
  C212     1.0000 0.60164  0.52060  0.78980  Biso   1.000  C
  C213     1.0000 0.63274  0.53818  0.83850  Biso   1.000  C
  H91      1.0000 0.63920  0.53180  0.92650  Biso   1.000  H
  C214     1.0000 0.65483  0.56554  0.75750  Biso   1.000  C
  C215     1.0000 0.64461  0.57321  0.62280  Biso   1.000  C
  H92      1.0000 0.65890  0.59060  0.56470  Biso   1.000  H
  C216     1.0000 0.61331  0.55533  0.57150  Biso   1.000  C
  H93      1.0000 0.60710  0.56080  0.47950  Biso   1.000  H
  C217     1.0000 0.55809  0.51307  0.59930  Biso   1.000  C
  C218     1.0000 0.68770  0.58542  0.81250  Biso   1.000  C
  C219     1.0000 0.70185  0.57375  0.91250  Biso   1.000  C
  H94      1.0000 0.69080  0.55280  0.94500  Biso   1.000  H
  C220     1.0000 0.73259  0.59345  0.96390  Biso   1.000  C
  H95      1.0000 0.74150  0.58550  0.03330  Biso   1.000  H
  C221     1.0000 0.75007  0.62389  0.91640  Biso   1.000  C
  C222     1.0000 0.73595  0.63612  0.81260  Biso   1.000  C
  C223     1.0000 0.70517  0.61703  0.76730  Biso   1.000  C
  H96      1.0000 0.69560  0.62540  0.70440  Biso   1.000  H
  C224     1.0000 0.78321  0.64238  0.97820  Biso   1.000  C
  K17      1.0000 0.25886  0.83797  0.59233  Biso   1.000  K
  Pr17     1.0000 0.18145  0.83855  0.28428  Biso   1.000  Pr
  S33      1.0000 0.24357  0.81829  0.22567  Biso   1.000  S
  S34      1.0000 0.42268  0.00887  0.07034  Biso   1.000  S
  O161     1.0000 0.20176  0.83866  0.02393  Biso   1.000  O
  O162     1.0000 0.22057  0.84169  0.78753  Biso   1.000  O
  O163     1.0000 0.22390  0.82597  0.32593  Biso   1.000  O
  O164     1.0000 0.26459  0.81197  0.32493  Biso   1.000  O
  O165     1.0000 0.22557  0.79458  0.11183  Biso   1.000  O
  O166     1.0000 0.45446  0.97510  0.45433  Biso   1.000  O
  O167     1.0000 0.47303  0.99121  0.21713  Biso   1.000  O
  O168     1.0000 0.43869  0.02945  0.20143  Biso   1.000  O
  O169     1.0000 0.44428  0.00829  0.95543  Biso   1.000  O
  O170     1.0000 0.39915  0.01389  0.00003  Biso   1.000  O
  C225     1.0000 0.25814  0.86280  0.99073  Biso   1.000  C
  C226     1.0000 0.26831  0.85393  0.12313  Biso   1.000  C
  C227     1.0000 0.29941  0.87151  0.17183  Biso   1.000  C
  H97      1.0000 0.30587  0.86513  0.25983  Biso   1.000  H
  C228     1.0000 0.32150  0.89887  0.09083  Biso   1.000  C
  C229     1.0000 0.31128  0.90654  0.95613  Biso   1.000  C
  H98      1.0000 0.32557  0.92393  0.89803  Biso   1.000  H
  C230     1.0000 0.27998  0.88866  0.90483  Biso   1.000  C
  H99      1.0000 0.27377  0.89413  0.81283  Biso   1.000  H
  C231     1.0000 0.22476  0.84640  0.93263  Biso   1.000  C
  C232     1.0000 0.35437  0.91875  0.14583  Biso   1.000  C
  C233     1.0000 0.36852  0.90708  0.24583  Biso   1.000  C
  H100     1.0000 0.35747  0.88613  0.27833  Biso   1.000  H
  C234     1.0000 0.39926  0.92678  0.29723  Biso   1.000  C
  H101     1.0000 0.40817  0.91883  0.36663  Biso   1.000  H
  C235     1.0000 0.41674  0.95722  0.24973  Biso   1.000  C
  C236     1.0000 0.40262  0.96945  0.14593  Biso   1.000  C
  C237     1.0000 0.37184  0.95036  0.10063  Biso   1.000  C
  H102     1.0000 0.36227  0.95873  0.03773  Biso   1.000  H
  C238     1.0000 0.44988  0.97571  0.31153  Biso   1.000  C
  K18      1.0000 0.92552  0.17131  0.92567  Biso   1.000  K
  Pr18     1.0000 0.84811  0.17189  0.61762  Biso   1.000  Pr
  S35      1.0000 0.91023  0.15163  0.55901  Biso   1.000  S
  S36      1.0000 0.08934  0.34221  0.40368  Biso   1.000  S
  O171     1.0000 0.86842  0.17200  0.35727  Biso   1.000  O
  O172     1.0000 0.88723  0.17503  0.12087  Biso   1.000  O
  O173     1.0000 0.89056  0.15931  0.65927  Biso   1.000  O
  O174     1.0000 0.93125  0.14531  0.65827  Biso   1.000  O
  O175     1.0000 0.89223  0.12792  0.44517  Biso   1.000  O
  O176     1.0000 0.12112  0.30844  0.78767  Biso   1.000  O
  O177     1.0000 0.13969  0.32455  0.55047  Biso   1.000  O
  O178     1.0000 0.10535  0.36279  0.53477  Biso   1.000  O
  O179     1.0000 0.11094  0.34163  0.28877  Biso   1.000  O
  O180     1.0000 0.06581  0.34723  0.33337  Biso   1.000  O
  C239     1.0000 0.92480  0.19614  0.32407  Biso   1.000  C
  C240     1.0000 0.93497  0.18727  0.45647  Biso   1.000  C
  C241     1.0000 0.96607  0.20485  0.50517  Biso   1.000  C
  H103     1.0000 0.97253  0.19847  0.59317  Biso   1.000  H
  C242     1.0000 0.98816  0.23221  0.42417  Biso   1.000  C
  C243     1.0000 0.97794  0.23988  0.28947  Biso   1.000  C
  H104     1.0000 0.99223  0.25727  0.23137  Biso   1.000  H
  C244     1.0000 0.94664  0.22200  0.23817  Biso   1.000  C
  H105     1.0000 0.94043  0.22747  0.14617  Biso   1.000  H
  C245     1.0000 0.89142  0.17974  0.26597  Biso   1.000  C
  C246     1.0000 0.02103  0.25209  0.47917  Biso   1.000  C
  C247     1.0000 0.03518  0.24042  0.57917  Biso   1.000  C
  H106     1.0000 0.02413  0.21947  0.61167  Biso   1.000  H
  C248     1.0000 0.06592  0.26012  0.63057  Biso   1.000  C
  H107     1.0000 0.07483  0.25217  0.69997  Biso   1.000  H
  C249     1.0000 0.08340  0.29056  0.58307  Biso   1.000  C
  C250     1.0000 0.06928  0.30279  0.47927  Biso   1.000  C
  C251     1.0000 0.03850  0.28370  0.43397  Biso   1.000  C
  H108     1.0000 0.02893  0.29207  0.37107  Biso   1.000  H
  C252     1.0000 0.11654  0.30905  0.64487  Biso   1.000  C
