data_image0
_cell_length_a       48.7999
_cell_length_b       48.7999
_cell_length_c       8.4529
_cell_angle_alpha    90
_cell_angle_beta     90
_cell_angle_gamma    120

_symmetry_space_group_name_H-M    "P 1"
_symmetry_int_tables_number       1

loop_
  _symmetry_equiv_pos_as_xyz
  'x, y, z'

loop_
  _atom_site_label
  _atom_site_occupancy
  _atom_site_fract_x
  _atom_site_fract_y
  _atom_site_fract_z
  _atom_site_thermal_displace_type
  _atom_site_B_iso_or_equiv
  _atom_site_type_symbol
  K1       1.0000 0.82706  0.07445  0.43158  Biso   1.000  K
  Eu1      1.0000 0.82765  0.15298  0.11809  Biso   1.000  Eu
  S1       1.0000 0.84792  0.09178  0.06418  Biso   1.000  S
  S2       1.0000 0.65891  0.91032  0.89880  Biso   1.000  S
  O1       1.0000 0.82728  0.13320  0.85960  Biso   1.000  O
  O2       1.0000 0.82386  0.11444  0.62180  Biso   1.000  O
  O3       1.0000 0.84006  0.11159  0.16300  Biso   1.000  O
  O4       1.0000 0.85410  0.07122  0.16470  Biso   1.000  O
  O5       1.0000 0.87188  0.10960  0.94960  Biso   1.000  O
  O6       1.0000 0.69302  0.87877  0.28600  Biso   1.000  O
  O7       1.0000 0.67663  0.86058  0.04840  Biso   1.000  O
  O8       1.0000 0.63836  0.89452  0.03120  Biso   1.000  O
  O9       1.0000 0.65993  0.88840  0.78420  Biso   1.000  O
  O10      1.0000 0.65419  0.93422  0.82190  Biso   1.000  O
  C1       1.0000 0.80321  0.07694  0.82670  Biso   1.000  C
  C2       1.0000 0.81253  0.06626  0.95690  Biso   1.000  C
  C3       1.0000 0.79487  0.03490  0.00520  Biso   1.000  C
  H1       1.0000 0.80130  0.02830  0.09380  Biso   1.000  H
  C4       1.0000 0.76818  0.01347  0.92510  Biso   1.000  C
  C5       1.0000 0.76037  0.02343  0.79140  Biso   1.000  C
  H2       1.0000 0.74340  0.00880  0.73110  Biso   1.000  H
  C6       1.0000 0.77718  0.05511  0.74160  Biso   1.000  C
  H3       1.0000 0.77080  0.06140  0.65150  Biso   1.000  H
  C7       1.0000 0.81949  0.11027  0.76480  Biso   1.000  C
  C8       1.0000 0.74842  0.98050  0.98040  Biso   1.000  C
  C9       1.0000 0.76054  0.96567  0.07730  Biso   1.000  C
  H4       1.0000 0.78180  0.97650  0.10540  Biso   1.000  H
  C10      1.0000 0.74136  0.93546  0.13090  Biso   1.000  C
  H5       1.0000 0.74930  0.92700  0.20390  Biso   1.000  H
  C11      1.0000 0.71039  0.91721  0.07910  Biso   1.000  C
  C12      1.0000 0.69822  0.93020  0.97950  Biso   1.000  C
  C13      1.0000 0.71706  0.96225  0.93390  Biso   1.000  C
  H6       1.0000 0.70810  0.97140  0.87090  Biso   1.000  H
  C14      1.0000 0.69184  0.88328  0.14000  Biso   1.000  C
  K2       1.0000 0.49373  0.40778  0.76491  Biso   1.000  K
  Eu2      1.0000 0.49432  0.48631  0.45142  Biso   1.000  Eu
  S3       1.0000 0.51459  0.42511  0.39751  Biso   1.000  S
  S4       1.0000 0.32558  0.24365  0.23213  Biso   1.000  S
  O11      1.0000 0.49395  0.46653  0.19293  Biso   1.000  O
  O12      1.0000 0.49053  0.44777  0.95513  Biso   1.000  O
  O13      1.0000 0.50673  0.44492  0.49633  Biso   1.000  O
  O14      1.0000 0.52077  0.40455  0.49803  Biso   1.000  O
  O15      1.0000 0.53855  0.44293  0.28293  Biso   1.000  O
  O16      1.0000 0.35969  0.21210  0.61933  Biso   1.000  O
  O17      1.0000 0.34330  0.19391  0.38173  Biso   1.000  O
  O18      1.0000 0.30503  0.22785  0.36453  Biso   1.000  O
  O19      1.0000 0.32660  0.22173  0.11753  Biso   1.000  O
  O20      1.0000 0.32086  0.26755  0.15523  Biso   1.000  O
  C15      1.0000 0.46988  0.41027  0.16003  Biso   1.000  C
  C16      1.0000 0.47920  0.39959  0.29023  Biso   1.000  C
  C17      1.0000 0.46154  0.36823  0.33853  Biso   1.000  C
  H7       1.0000 0.46797  0.36163  0.42713  Biso   1.000  H
  C18      1.0000 0.43485  0.34680  0.25843  Biso   1.000  C
  C19      1.0000 0.42704  0.35676  0.12473  Biso   1.000  C
  H8       1.0000 0.41007  0.34213  0.06443  Biso   1.000  H
  C20      1.0000 0.44385  0.38844  0.07493  Biso   1.000  C
  H9       1.0000 0.43747  0.39473  0.98483  Biso   1.000  H
  C21      1.0000 0.48616  0.44360  0.09813  Biso   1.000  C
  C22      1.0000 0.41509  0.31383  0.31373  Biso   1.000  C
  C23      1.0000 0.42721  0.29900  0.41063  Biso   1.000  C
  H10      1.0000 0.44847  0.30983  0.43873  Biso   1.000  H
  C24      1.0000 0.40803  0.26879  0.46423  Biso   1.000  C
  H11      1.0000 0.41597  0.26033  0.53723  Biso   1.000  H
  C25      1.0000 0.37706  0.25054  0.41243  Biso   1.000  C
  C26      1.0000 0.36489  0.26353  0.31283  Biso   1.000  C
  C27      1.0000 0.38373  0.29558  0.26723  Biso   1.000  C
  H12      1.0000 0.37477  0.30473  0.20423  Biso   1.000  H
  C28      1.0000 0.35851  0.21661  0.47333  Biso   1.000  C
  K3       1.0000 0.16039  0.74112  0.09825  Biso   1.000  K
  Eu3      1.0000 0.16098  0.81965  0.78476  Biso   1.000  Eu
  S5       1.0000 0.18125  0.75845  0.73085  Biso   1.000  S
  S6       1.0000 0.99224  0.57699  0.56547  Biso   1.000  S
  O21      1.0000 0.16061  0.79987  0.52627  Biso   1.000  O
  O22      1.0000 0.15719  0.78111  0.28847  Biso   1.000  O
  O23      1.0000 0.17339  0.77826  0.82967  Biso   1.000  O
  O24      1.0000 0.18743  0.73789  0.83137  Biso   1.000  O
  O25      1.0000 0.20521  0.77627  0.61627  Biso   1.000  O
  O26      1.0000 0.02635  0.54544  0.95267  Biso   1.000  O
  O27      1.0000 0.00996  0.52725  0.71507  Biso   1.000  O
  O28      1.0000 0.97169  0.56119  0.69787  Biso   1.000  O
  O29      1.0000 0.99326  0.55507  0.45087  Biso   1.000  O
  O30      1.0000 0.98752  0.60089  0.48857  Biso   1.000  O
  C29      1.0000 0.13654  0.74361  0.49337  Biso   1.000  C
  C30      1.0000 0.14586  0.73293  0.62357  Biso   1.000  C
  C31      1.0000 0.12820  0.70157  0.67187  Biso   1.000  C
  H13      1.0000 0.13463  0.69497  0.76047  Biso   1.000  H
  C32      1.0000 0.10151  0.68014  0.59177  Biso   1.000  C
  C33      1.0000 0.09370  0.69010  0.45807  Biso   1.000  C
  H14      1.0000 0.07673  0.67547  0.39777  Biso   1.000  H
  C34      1.0000 0.11051  0.72178  0.40827  Biso   1.000  C
  H15      1.0000 0.10413  0.72807  0.31817  Biso   1.000  H
  C35      1.0000 0.15282  0.77694  0.43147  Biso   1.000  C
  C36      1.0000 0.08175  0.64717  0.64707  Biso   1.000  C
  C37      1.0000 0.09387  0.63234  0.74397  Biso   1.000  C
  H16      1.0000 0.11513  0.64317  0.77207  Biso   1.000  H
  C38      1.0000 0.07469  0.60213  0.79757  Biso   1.000  C
  H17      1.0000 0.08263  0.59367  0.87057  Biso   1.000  H
  C39      1.0000 0.04372  0.58388  0.74577  Biso   1.000  C
  C40      1.0000 0.03155  0.59687  0.64617  Biso   1.000  C
  C41      1.0000 0.05039  0.62892  0.60057  Biso   1.000  C
  H18      1.0000 0.04143  0.63807  0.53757  Biso   1.000  H
  C42      1.0000 0.02517  0.54995  0.80667  Biso   1.000  C
  K4       1.0000 0.92555  0.75261  0.43158  Biso   1.000  K
  Eu4      1.0000 0.84702  0.67467  0.11809  Biso   1.000  Eu
  S7       1.0000 0.90822  0.75614  0.06418  Biso   1.000  S
  S8       1.0000 0.08968  0.74859  0.89880  Biso   1.000  S
  O31      1.0000 0.86680  0.69408  0.85960  Biso   1.000  O
  O32      1.0000 0.88556  0.70942  0.62180  Biso   1.000  O
  O33      1.0000 0.88841  0.72847  0.16300  Biso   1.000  O
  O34      1.0000 0.92878  0.78288  0.16470  Biso   1.000  O
  O35      1.0000 0.89040  0.76228  0.94960  Biso   1.000  O
  O36      1.0000 0.12123  0.81425  0.28600  Biso   1.000  O
  O37      1.0000 0.13942  0.81605  0.04840  Biso   1.000  O
  O38      1.0000 0.10548  0.74384  0.03120  Biso   1.000  O
  O39      1.0000 0.11160  0.77153  0.78420  Biso   1.000  O
  O40      1.0000 0.06578  0.71997  0.82190  Biso   1.000  O
  C43      1.0000 0.92306  0.72627  0.82670  Biso   1.000  C
  C44      1.0000 0.93374  0.74627  0.95690  Biso   1.000  C
  C45      1.0000 0.96510  0.75997  0.00520  Biso   1.000  C
  H19      1.0000 0.97170  0.77300  0.09380  Biso   1.000  H
  C46      1.0000 0.98653  0.75471  0.92510  Biso   1.000  C
  C47      1.0000 0.97657  0.73694  0.79140  Biso   1.000  C
  H20      1.0000 0.99120  0.73460  0.73110  Biso   1.000  H
  C48      1.0000 0.94489  0.72207  0.74160  Biso   1.000  C
  H21      1.0000 0.93860  0.70940  0.65150  Biso   1.000  H
  C49      1.0000 0.88973  0.70922  0.76480  Biso   1.000  C
  C50      1.0000 0.01950  0.76792  0.98040  Biso   1.000  C
  C51      1.0000 0.03433  0.79487  0.07730  Biso   1.000  C
  H22      1.0000 0.02350  0.80530  0.10540  Biso   1.000  H
  C52      1.0000 0.06454  0.80590  0.13090  Biso   1.000  C
  H23      1.0000 0.07300  0.82230  0.20390  Biso   1.000  H
  C53      1.0000 0.08279  0.79318  0.07910  Biso   1.000  C
  C54      1.0000 0.06980  0.76802  0.97950  Biso   1.000  C
  C55      1.0000 0.03775  0.75481  0.93390  Biso   1.000  C
  H24      1.0000 0.02860  0.73670  0.87090  Biso   1.000  H
  C56      1.0000 0.11672  0.80856  0.14000  Biso   1.000  C
  K5       1.0000 0.59222  0.08594  0.76491  Biso   1.000  K
  Eu5      1.0000 0.51369  0.00800  0.45142  Biso   1.000  Eu
  S9       1.0000 0.57489  0.08947  0.39751  Biso   1.000  S
  S10      1.0000 0.75635  0.08192  0.23213  Biso   1.000  S
  O41      1.0000 0.53347  0.02741  0.19293  Biso   1.000  O
  O42      1.0000 0.55223  0.04275  0.95513  Biso   1.000  O
  O43      1.0000 0.55508  0.06180  0.49633  Biso   1.000  O
  O44      1.0000 0.59545  0.11621  0.49803  Biso   1.000  O
  O45      1.0000 0.55707  0.09561  0.28293  Biso   1.000  O
  O46      1.0000 0.78790  0.14758  0.61933  Biso   1.000  O
  O47      1.0000 0.80609  0.14938  0.38173  Biso   1.000  O
  O48      1.0000 0.77215  0.07717  0.36453  Biso   1.000  O
  O49      1.0000 0.77827  0.10486  0.11753  Biso   1.000  O
  O50      1.0000 0.73245  0.05330  0.15523  Biso   1.000  O
  C57      1.0000 0.58973  0.05960  0.16003  Biso   1.000  C
  C58      1.0000 0.60041  0.07960  0.29023  Biso   1.000  C
  C59      1.0000 0.63177  0.09330  0.33853  Biso   1.000  C
  H25      1.0000 0.63837  0.10633  0.42713  Biso   1.000  H
  C60      1.0000 0.65320  0.08804  0.25843  Biso   1.000  C
  C61      1.0000 0.64324  0.07027  0.12473  Biso   1.000  C
  H26      1.0000 0.65787  0.06793  0.06443  Biso   1.000  H
  C62      1.0000 0.61156  0.05540  0.07493  Biso   1.000  C
  H27      1.0000 0.60527  0.04273  0.98483  Biso   1.000  H
  C63      1.0000 0.55640  0.04255  0.09813  Biso   1.000  C
  C64      1.0000 0.68617  0.10125  0.31373  Biso   1.000  C
  C65      1.0000 0.70100  0.12820  0.41063  Biso   1.000  C
  H28      1.0000 0.69017  0.13863  0.43873  Biso   1.000  H
  C66      1.0000 0.73121  0.13923  0.46423  Biso   1.000  C
  H29      1.0000 0.73967  0.15563  0.53723  Biso   1.000  H
  C67      1.0000 0.74946  0.12651  0.41243  Biso   1.000  C
  C68      1.0000 0.73647  0.10135  0.31283  Biso   1.000  C
  C69      1.0000 0.70442  0.08814  0.26723  Biso   1.000  C
  H30      1.0000 0.69527  0.07003  0.20423  Biso   1.000  H
  C70      1.0000 0.78339  0.14189  0.47333  Biso   1.000  C
  K6       1.0000 0.25888  0.41928  0.09825  Biso   1.000  K
  Eu6      1.0000 0.18035  0.34134  0.78476  Biso   1.000  Eu
  S11      1.0000 0.24155  0.42281  0.73085  Biso   1.000  S
  S12      1.0000 0.42301  0.41526  0.56547  Biso   1.000  S
  O51      1.0000 0.20013  0.36075  0.52627  Biso   1.000  O
  O52      1.0000 0.21889  0.37609  0.28847  Biso   1.000  O
  O53      1.0000 0.22174  0.39514  0.82967  Biso   1.000  O
  O54      1.0000 0.26211  0.44955  0.83137  Biso   1.000  O
  O55      1.0000 0.22373  0.42895  0.61627  Biso   1.000  O
  O56      1.0000 0.45456  0.48092  0.95267  Biso   1.000  O
  O57      1.0000 0.47275  0.48272  0.71507  Biso   1.000  O
  O58      1.0000 0.43881  0.41051  0.69787  Biso   1.000  O
  O59      1.0000 0.44493  0.43820  0.45087  Biso   1.000  O
  O60      1.0000 0.39911  0.38664  0.48857  Biso   1.000  O
  C71      1.0000 0.25639  0.39294  0.49337  Biso   1.000  C
  C72      1.0000 0.26707  0.41294  0.62357  Biso   1.000  C
  C73      1.0000 0.29843  0.42664  0.67187  Biso   1.000  C
  H31      1.0000 0.30503  0.43967  0.76047  Biso   1.000  H
  C74      1.0000 0.31986  0.42138  0.59177  Biso   1.000  C
  C75      1.0000 0.30990  0.40361  0.45807  Biso   1.000  C
  H32      1.0000 0.32453  0.40127  0.39777  Biso   1.000  H
  C76      1.0000 0.27822  0.38874  0.40827  Biso   1.000  C
  H33      1.0000 0.27193  0.37607  0.31817  Biso   1.000  H
  C77      1.0000 0.22306  0.37589  0.43147  Biso   1.000  C
  C78      1.0000 0.35283  0.43459  0.64707  Biso   1.000  C
  C79      1.0000 0.36766  0.46154  0.74397  Biso   1.000  C
  H34      1.0000 0.35683  0.47197  0.77207  Biso   1.000  H
  C80      1.0000 0.39787  0.47257  0.79757  Biso   1.000  C
  H35      1.0000 0.40633  0.48897  0.87057  Biso   1.000  H
  C81      1.0000 0.41612  0.45985  0.74577  Biso   1.000  C
  C82      1.0000 0.40313  0.43469  0.64617  Biso   1.000  C
  C83      1.0000 0.37108  0.42148  0.60057  Biso   1.000  C
  H36      1.0000 0.36193  0.40337  0.53757  Biso   1.000  H
  C84      1.0000 0.45005  0.47523  0.80667  Biso   1.000  C
  K7       1.0000 0.24739  0.17294  0.43158  Biso   1.000  K
  Eu7      1.0000 0.32533  0.17235  0.11809  Biso   1.000  Eu
  S13      1.0000 0.24386  0.15208  0.06418  Biso   1.000  S
  S14      1.0000 0.25141  0.34109  0.89880  Biso   1.000  S
  O61      1.0000 0.30592  0.17272  0.85960  Biso   1.000  O
  O62      1.0000 0.29058  0.17614  0.62180  Biso   1.000  O
  O63      1.0000 0.27153  0.15994  0.16300  Biso   1.000  O
  O64      1.0000 0.21712  0.14590  0.16470  Biso   1.000  O
  O65      1.0000 0.23772  0.12812  0.94960  Biso   1.000  O
  O66      1.0000 0.18575  0.30698  0.28600  Biso   1.000  O
  O67      1.0000 0.18395  0.32337  0.04840  Biso   1.000  O
  O68      1.0000 0.25616  0.36164  0.03120  Biso   1.000  O
  O69      1.0000 0.22847  0.34007  0.78420  Biso   1.000  O
  O70      1.0000 0.28003  0.34581  0.82190  Biso   1.000  O
  C85      1.0000 0.27373  0.19679  0.82670  Biso   1.000  C
  C86      1.0000 0.25373  0.18747  0.95690  Biso   1.000  C
  C87      1.0000 0.24003  0.20513  0.00520  Biso   1.000  C
  H37      1.0000 0.22700  0.19870  0.09380  Biso   1.000  H
  C88      1.0000 0.24529  0.23182  0.92510  Biso   1.000  C
  C89      1.0000 0.26306  0.23963  0.79140  Biso   1.000  C
  H38      1.0000 0.26540  0.25660  0.73110  Biso   1.000  H
  C90      1.0000 0.27793  0.22282  0.74160  Biso   1.000  C
  H39      1.0000 0.29060  0.22920  0.65150  Biso   1.000  H
  C91      1.0000 0.29078  0.18051  0.76480  Biso   1.000  C
  C92      1.0000 0.23208  0.25158  0.98040  Biso   1.000  C
  C93      1.0000 0.20513  0.23946  0.07730  Biso   1.000  C
  H40      1.0000 0.19470  0.21820  0.10540  Biso   1.000  H
  C94      1.0000 0.19410  0.25864  0.13090  Biso   1.000  C
  H41      1.0000 0.17770  0.25070  0.20390  Biso   1.000  H
  C95      1.0000 0.20682  0.28961  0.07910  Biso   1.000  C
  C96      1.0000 0.23198  0.30178  0.97950  Biso   1.000  C
  C97      1.0000 0.24519  0.28294  0.93390  Biso   1.000  C
  H42      1.0000 0.26330  0.29190  0.87090  Biso   1.000  H
  C98      1.0000 0.19144  0.30816  0.14000  Biso   1.000  C
  K8       1.0000 0.91406  0.50627  0.76491  Biso   1.000  K
  Eu8      1.0000 0.99200  0.50568  0.45142  Biso   1.000  Eu
  S15      1.0000 0.91053  0.48541  0.39751  Biso   1.000  S
  S16      1.0000 0.91808  0.67442  0.23213  Biso   1.000  S
  O71      1.0000 0.97259  0.50605  0.19293  Biso   1.000  O
  O72      1.0000 0.95725  0.50947  0.95513  Biso   1.000  O
  O73      1.0000 0.93820  0.49327  0.49633  Biso   1.000  O
  O74      1.0000 0.88379  0.47923  0.49803  Biso   1.000  O
  O75      1.0000 0.90439  0.46145  0.28293  Biso   1.000  O
  O76      1.0000 0.85242  0.64031  0.61933  Biso   1.000  O
  O77      1.0000 0.85062  0.65670  0.38173  Biso   1.000  O
  O78      1.0000 0.92283  0.69497  0.36453  Biso   1.000  O
  O79      1.0000 0.89514  0.67340  0.11753  Biso   1.000  O
  O80      1.0000 0.94670  0.67914  0.15523  Biso   1.000  O
  C99      1.0000 0.94040  0.53012  0.16003  Biso   1.000  C
  C100     1.0000 0.92040  0.52080  0.29023  Biso   1.000  C
  C101     1.0000 0.90670  0.53846  0.33853  Biso   1.000  C
  H43      1.0000 0.89367  0.53203  0.42713  Biso   1.000  H
  C102     1.0000 0.91196  0.56515  0.25843  Biso   1.000  C
  C103     1.0000 0.92973  0.57296  0.12473  Biso   1.000  C
  H44      1.0000 0.93207  0.58993  0.06443  Biso   1.000  H
  C104     1.0000 0.94460  0.55615  0.07493  Biso   1.000  C
  H45      1.0000 0.95727  0.56253  0.98483  Biso   1.000  H
  C105     1.0000 0.95745  0.51384  0.09813  Biso   1.000  C
  C106     1.0000 0.89875  0.58491  0.31373  Biso   1.000  C
  C107     1.0000 0.87180  0.57279  0.41063  Biso   1.000  C
  H46      1.0000 0.86137  0.55153  0.43873  Biso   1.000  H
  C108     1.0000 0.86077  0.59197  0.46423  Biso   1.000  C
  H47      1.0000 0.84437  0.58403  0.53723  Biso   1.000  H
  C109     1.0000 0.87349  0.62294  0.41243  Biso   1.000  C
  C110     1.0000 0.89865  0.63511  0.31283  Biso   1.000  C
  C111     1.0000 0.91186  0.61627  0.26723  Biso   1.000  C
  H48      1.0000 0.92997  0.62523  0.20423  Biso   1.000  H
  C112     1.0000 0.85811  0.64149  0.47333  Biso   1.000  C
  K9       1.0000 0.58072  0.83961  0.09825  Biso   1.000  K
  Eu9      1.0000 0.65866  0.83902  0.78476  Biso   1.000  Eu
  S17      1.0000 0.57719  0.81875  0.73085  Biso   1.000  S
  S18      1.0000 0.58474  0.00776  0.56547  Biso   1.000  S
  O81      1.0000 0.63925  0.83939  0.52627  Biso   1.000  O
  O82      1.0000 0.62391  0.84281  0.28847  Biso   1.000  O
  O83      1.0000 0.60486  0.82661  0.82967  Biso   1.000  O
  O84      1.0000 0.55045  0.81257  0.83137  Biso   1.000  O
  O85      1.0000 0.57105  0.79479  0.61627  Biso   1.000  O
  O86      1.0000 0.51908  0.97365  0.95267  Biso   1.000  O
  O87      1.0000 0.51728  0.99004  0.71507  Biso   1.000  O
  O88      1.0000 0.58949  0.02831  0.69787  Biso   1.000  O
  O89      1.0000 0.56180  0.00674  0.45087  Biso   1.000  O
  O90      1.0000 0.61336  0.01248  0.48857  Biso   1.000  O
  C113     1.0000 0.60706  0.86346  0.49337  Biso   1.000  C
  C114     1.0000 0.58706  0.85414  0.62357  Biso   1.000  C
  C115     1.0000 0.57336  0.87180  0.67187  Biso   1.000  C
  H49      1.0000 0.56033  0.86537  0.76047  Biso   1.000  H
  C116     1.0000 0.57862  0.89849  0.59177  Biso   1.000  C
  C117     1.0000 0.59639  0.90630  0.45807  Biso   1.000  C
  H50      1.0000 0.59873  0.92327  0.39777  Biso   1.000  H
  C118     1.0000 0.61126  0.88949  0.40827  Biso   1.000  C
  H51      1.0000 0.62393  0.89587  0.31817  Biso   1.000  H
  C119     1.0000 0.62411  0.84718  0.43147  Biso   1.000  C
  C120     1.0000 0.56541  0.91825  0.64707  Biso   1.000  C
  C121     1.0000 0.53846  0.90613  0.74397  Biso   1.000  C
  H52      1.0000 0.52803  0.88487  0.77207  Biso   1.000  H
  C122     1.0000 0.52743  0.92531  0.79757  Biso   1.000  C
  H53      1.0000 0.51103  0.91737  0.87057  Biso   1.000  H
  C123     1.0000 0.54015  0.95628  0.74577  Biso   1.000  C
  C124     1.0000 0.56531  0.96845  0.64617  Biso   1.000  C
  C125     1.0000 0.57852  0.94961  0.60057  Biso   1.000  C
  H54      1.0000 0.59663  0.95857  0.53757  Biso   1.000  H
  C126     1.0000 0.52477  0.97483  0.80667  Biso   1.000  C
  K10      1.0000 0.92555  0.17294  0.93158  Biso   1.000  K
  Eu10     1.0000 0.84702  0.17235  0.61809  Biso   1.000  Eu
  S19      1.0000 0.90822  0.15208  0.56418  Biso   1.000  S
  S20      1.0000 0.08968  0.34109  0.39880  Biso   1.000  S
  O91      1.0000 0.86680  0.17272  0.35960  Biso   1.000  O
  O92      1.0000 0.88556  0.17614  0.12180  Biso   1.000  O
  O93      1.0000 0.88841  0.15994  0.66300  Biso   1.000  O
  O94      1.0000 0.92878  0.14590  0.66470  Biso   1.000  O
  O95      1.0000 0.89040  0.12812  0.44960  Biso   1.000  O
  O96      1.0000 0.12123  0.30698  0.78600  Biso   1.000  O
  O97      1.0000 0.13942  0.32337  0.54840  Biso   1.000  O
  O98      1.0000 0.10548  0.36164  0.53120  Biso   1.000  O
  O99      1.0000 0.11160  0.34007  0.28420  Biso   1.000  O
  O100     1.0000 0.06578  0.34581  0.32190  Biso   1.000  O
  C127     1.0000 0.92306  0.19679  0.32670  Biso   1.000  C
  C128     1.0000 0.93374  0.18747  0.45690  Biso   1.000  C
  C129     1.0000 0.96510  0.20513  0.50520  Biso   1.000  C
  H55      1.0000 0.97170  0.19870  0.59380  Biso   1.000  H
  C130     1.0000 0.98653  0.23182  0.42510  Biso   1.000  C
  C131     1.0000 0.97657  0.23963  0.29140  Biso   1.000  C
  H56      1.0000 0.99120  0.25660  0.23110  Biso   1.000  H
  C132     1.0000 0.94489  0.22282  0.24160  Biso   1.000  C
  H57      1.0000 0.93860  0.22920  0.15150  Biso   1.000  H
  C133     1.0000 0.88973  0.18051  0.26480  Biso   1.000  C
  C134     1.0000 0.01950  0.25158  0.48040  Biso   1.000  C
  C135     1.0000 0.03433  0.23946  0.57730  Biso   1.000  C
  H58      1.0000 0.02350  0.21820  0.60540  Biso   1.000  H
  C136     1.0000 0.06454  0.25864  0.63090  Biso   1.000  C
  H59      1.0000 0.07300  0.25070  0.70390  Biso   1.000  H
  C137     1.0000 0.08279  0.28961  0.57910  Biso   1.000  C
  C138     1.0000 0.06980  0.30178  0.47950  Biso   1.000  C
  C139     1.0000 0.03775  0.28294  0.43390  Biso   1.000  C
  H60      1.0000 0.02860  0.29190  0.37090  Biso   1.000  H
  C140     1.0000 0.11672  0.30816  0.64000  Biso   1.000  C
  K11      1.0000 0.59222  0.50627  0.26491  Biso   1.000  K
  Eu11     1.0000 0.51369  0.50568  0.95142  Biso   1.000  Eu
  S21      1.0000 0.57489  0.48541  0.89751  Biso   1.000  S
  S22      1.0000 0.75635  0.67442  0.73213  Biso   1.000  S
  O101     1.0000 0.53347  0.50605  0.69293  Biso   1.000  O
  O102     1.0000 0.55223  0.50947  0.45513  Biso   1.000  O
  O103     1.0000 0.55508  0.49327  0.99633  Biso   1.000  O
  O104     1.0000 0.59545  0.47923  0.99803  Biso   1.000  O
  O105     1.0000 0.55707  0.46145  0.78293  Biso   1.000  O
  O106     1.0000 0.78790  0.64031  0.11933  Biso   1.000  O
  O107     1.0000 0.80609  0.65670  0.88173  Biso   1.000  O
  O108     1.0000 0.77215  0.69497  0.86453  Biso   1.000  O
  O109     1.0000 0.77827  0.67340  0.61753  Biso   1.000  O
  O110     1.0000 0.73245  0.67914  0.65523  Biso   1.000  O
  C141     1.0000 0.58973  0.53012  0.66003  Biso   1.000  C
  C142     1.0000 0.60041  0.52080  0.79023  Biso   1.000  C
  C143     1.0000 0.63177  0.53846  0.83853  Biso   1.000  C
  H61      1.0000 0.63837  0.53203  0.92713  Biso   1.000  H
  C144     1.0000 0.65320  0.56515  0.75843  Biso   1.000  C
  C145     1.0000 0.64324  0.57296  0.62473  Biso   1.000  C
  H62      1.0000 0.65787  0.58993  0.56443  Biso   1.000  H
  C146     1.0000 0.61156  0.55615  0.57493  Biso   1.000  C
  H63      1.0000 0.60527  0.56253  0.48483  Biso   1.000  H
  C147     1.0000 0.55640  0.51384  0.59813  Biso   1.000  C
  C148     1.0000 0.68617  0.58491  0.81373  Biso   1.000  C
  C149     1.0000 0.70100  0.57279  0.91063  Biso   1.000  C
  H64      1.0000 0.69017  0.55153  0.93873  Biso   1.000  H
  C150     1.0000 0.73121  0.59197  0.96423  Biso   1.000  C
  H65      1.0000 0.73967  0.58403  0.03723  Biso   1.000  H
  C151     1.0000 0.74946  0.62294  0.91243  Biso   1.000  C
  C152     1.0000 0.73647  0.63511  0.81283  Biso   1.000  C
  C153     1.0000 0.70442  0.61627  0.76723  Biso   1.000  C
  H66      1.0000 0.69527  0.62523  0.70423  Biso   1.000  H
  C154     1.0000 0.78339  0.64149  0.97333  Biso   1.000  C
  K12      1.0000 0.25888  0.83961  0.59825  Biso   1.000  K
  Eu12     1.0000 0.18035  0.83902  0.28476  Biso   1.000  Eu
  S23      1.0000 0.24155  0.81875  0.23085  Biso   1.000  S
  S24      1.0000 0.42301  0.00776  0.06547  Biso   1.000  S
  O111     1.0000 0.20013  0.83939  0.02627  Biso   1.000  O
  O112     1.0000 0.21889  0.84281  0.78847  Biso   1.000  O
  O113     1.0000 0.22174  0.82661  0.32967  Biso   1.000  O
  O114     1.0000 0.26211  0.81257  0.33137  Biso   1.000  O
  O115     1.0000 0.22373  0.79479  0.11627  Biso   1.000  O
  O116     1.0000 0.45456  0.97365  0.45267  Biso   1.000  O
  O117     1.0000 0.47275  0.99004  0.21507  Biso   1.000  O
  O118     1.0000 0.43881  0.02831  0.19787  Biso   1.000  O
  O119     1.0000 0.44493  0.00674  0.95087  Biso   1.000  O
  O120     1.0000 0.39911  0.01248  0.98857  Biso   1.000  O
  C155     1.0000 0.25639  0.86346  0.99337  Biso   1.000  C
  C156     1.0000 0.26707  0.85414  0.12357  Biso   1.000  C
  C157     1.0000 0.29843  0.87180  0.17187  Biso   1.000  C
  H67      1.0000 0.30503  0.86537  0.26047  Biso   1.000  H
  C158     1.0000 0.31986  0.89849  0.09177  Biso   1.000  C
  C159     1.0000 0.30990  0.90630  0.95807  Biso   1.000  C
  H68      1.0000 0.32453  0.92327  0.89777  Biso   1.000  H
  C160     1.0000 0.27822  0.88949  0.90827  Biso   1.000  C
  H69      1.0000 0.27193  0.89587  0.81817  Biso   1.000  H
  C161     1.0000 0.22306  0.84718  0.93147  Biso   1.000  C
  C162     1.0000 0.35283  0.91825  0.14707  Biso   1.000  C
  C163     1.0000 0.36766  0.90613  0.24397  Biso   1.000  C
  H70      1.0000 0.35683  0.88487  0.27207  Biso   1.000  H
  C164     1.0000 0.39787  0.92531  0.29757  Biso   1.000  C
  H71      1.0000 0.40633  0.91737  0.37057  Biso   1.000  H
  C165     1.0000 0.41612  0.95628  0.24577  Biso   1.000  C
  C166     1.0000 0.40313  0.96845  0.14617  Biso   1.000  C
  C167     1.0000 0.37108  0.94961  0.10057  Biso   1.000  C
  H72      1.0000 0.36193  0.95857  0.03757  Biso   1.000  H
  C168     1.0000 0.45005  0.97483  0.30667  Biso   1.000  C
  K13      1.0000 0.24739  0.07445  0.93158  Biso   1.000  K
  Eu13     1.0000 0.32533  0.15298  0.61809  Biso   1.000  Eu
  S25      1.0000 0.24386  0.09178  0.56418  Biso   1.000  S
  S26      1.0000 0.25141  0.91032  0.39880  Biso   1.000  S
  O121     1.0000 0.30592  0.13320  0.35960  Biso   1.000  O
  O122     1.0000 0.29058  0.11444  0.12180  Biso   1.000  O
  O123     1.0000 0.27153  0.11159  0.66300  Biso   1.000  O
  O124     1.0000 0.21712  0.07122  0.66470  Biso   1.000  O
  O125     1.0000 0.23772  0.10960  0.44960  Biso   1.000  O
  O126     1.0000 0.18575  0.87877  0.78600  Biso   1.000  O
  O127     1.0000 0.18395  0.86058  0.54840  Biso   1.000  O
  O128     1.0000 0.25616  0.89452  0.53120  Biso   1.000  O
  O129     1.0000 0.22847  0.88840  0.28420  Biso   1.000  O
  O130     1.0000 0.28003  0.93422  0.32190  Biso   1.000  O
  C169     1.0000 0.27373  0.07694  0.32670  Biso   1.000  C
  C170     1.0000 0.25373  0.06626  0.45690  Biso   1.000  C
  C171     1.0000 0.24003  0.03490  0.50520  Biso   1.000  C
  H73      1.0000 0.22700  0.02830  0.59380  Biso   1.000  H
  C172     1.0000 0.24529  0.01347  0.42510  Biso   1.000  C
  C173     1.0000 0.26306  0.02343  0.29140  Biso   1.000  C
  H74      1.0000 0.26540  0.00880  0.23110  Biso   1.000  H
  C174     1.0000 0.27793  0.05511  0.24160  Biso   1.000  C
  H75      1.0000 0.29060  0.06140  0.15150  Biso   1.000  H
  C175     1.0000 0.29078  0.11027  0.26480  Biso   1.000  C
  C176     1.0000 0.23208  0.98050  0.48040  Biso   1.000  C
  C177     1.0000 0.20513  0.96567  0.57730  Biso   1.000  C
  H76      1.0000 0.19470  0.97650  0.60540  Biso   1.000  H
  C178     1.0000 0.19410  0.93546  0.63090  Biso   1.000  C
  H77      1.0000 0.17770  0.92700  0.70390  Biso   1.000  H
  C179     1.0000 0.20682  0.91721  0.57910  Biso   1.000  C
  C180     1.0000 0.23198  0.93020  0.47950  Biso   1.000  C
  C181     1.0000 0.24519  0.96225  0.43390  Biso   1.000  C
  H78      1.0000 0.26330  0.97140  0.37090  Biso   1.000  H
  C182     1.0000 0.19144  0.88328  0.64000  Biso   1.000  C
  K14      1.0000 0.91406  0.40778  0.26491  Biso   1.000  K
  Eu14     1.0000 0.99200  0.48631  0.95142  Biso   1.000  Eu
  S27      1.0000 0.91053  0.42511  0.89751  Biso   1.000  S
  S28      1.0000 0.91808  0.24365  0.73213  Biso   1.000  S
  O131     1.0000 0.97259  0.46653  0.69293  Biso   1.000  O
  O132     1.0000 0.95725  0.44777  0.45513  Biso   1.000  O
  O133     1.0000 0.93820  0.44492  0.99633  Biso   1.000  O
  O134     1.0000 0.88379  0.40455  0.99803  Biso   1.000  O
  O135     1.0000 0.90439  0.44293  0.78293  Biso   1.000  O
  O136     1.0000 0.85242  0.21210  0.11933  Biso   1.000  O
  O137     1.0000 0.85062  0.19391  0.88173  Biso   1.000  O
  O138     1.0000 0.92283  0.22785  0.86453  Biso   1.000  O
  O139     1.0000 0.89514  0.22173  0.61753  Biso   1.000  O
  O140     1.0000 0.94670  0.26755  0.65523  Biso   1.000  O
  C183     1.0000 0.94040  0.41027  0.66003  Biso   1.000  C
  C184     1.0000 0.92040  0.39959  0.79023  Biso   1.000  C
  C185     1.0000 0.90670  0.36823  0.83853  Biso   1.000  C
  H79      1.0000 0.89367  0.36163  0.92713  Biso   1.000  H
  C186     1.0000 0.91196  0.34680  0.75843  Biso   1.000  C
  C187     1.0000 0.92973  0.35676  0.62473  Biso   1.000  C
  H80      1.0000 0.93207  0.34213  0.56443  Biso   1.000  H
  C188     1.0000 0.94460  0.38844  0.57493  Biso   1.000  C
  H81      1.0000 0.95727  0.39473  0.48483  Biso   1.000  H
  C189     1.0000 0.95745  0.44360  0.59813  Biso   1.000  C
  C190     1.0000 0.89875  0.31383  0.81373  Biso   1.000  C
  C191     1.0000 0.87180  0.29900  0.91063  Biso   1.000  C
  H82      1.0000 0.86137  0.30983  0.93873  Biso   1.000  H
  C192     1.0000 0.86077  0.26879  0.96423  Biso   1.000  C
  H83      1.0000 0.84437  0.26033  0.03723  Biso   1.000  H
  C193     1.0000 0.87349  0.25054  0.91243  Biso   1.000  C
  C194     1.0000 0.89865  0.26353  0.81283  Biso   1.000  C
  C195     1.0000 0.91186  0.29558  0.76723  Biso   1.000  C
  H84      1.0000 0.92997  0.30473  0.70423  Biso   1.000  H
  C196     1.0000 0.85811  0.21661  0.97333  Biso   1.000  C
  K15      1.0000 0.58072  0.74112  0.59825  Biso   1.000  K
  Eu15     1.0000 0.65866  0.81965  0.28476  Biso   1.000  Eu
  S29      1.0000 0.57719  0.75845  0.23085  Biso   1.000  S
  S30      1.0000 0.58474  0.57699  0.06547  Biso   1.000  S
  O141     1.0000 0.63925  0.79987  0.02627  Biso   1.000  O
  O142     1.0000 0.62391  0.78111  0.78847  Biso   1.000  O
  O143     1.0000 0.60486  0.77826  0.32967  Biso   1.000  O
  O144     1.0000 0.55045  0.73789  0.33137  Biso   1.000  O
  O145     1.0000 0.57105  0.77627  0.11627  Biso   1.000  O
  O146     1.0000 0.51908  0.54544  0.45267  Biso   1.000  O
  O147     1.0000 0.51728  0.52725  0.21507  Biso   1.000  O
  O148     1.0000 0.58949  0.56119  0.19787  Biso   1.000  O
  O149     1.0000 0.56180  0.55507  0.95087  Biso   1.000  O
  O150     1.0000 0.61336  0.60089  0.98857  Biso   1.000  O
  C197     1.0000 0.60706  0.74361  0.99337  Biso   1.000  C
  C198     1.0000 0.58706  0.73293  0.12357  Biso   1.000  C
  C199     1.0000 0.57336  0.70157  0.17187  Biso   1.000  C
  H85      1.0000 0.56033  0.69497  0.26047  Biso   1.000  H
  C200     1.0000 0.57862  0.68014  0.09177  Biso   1.000  C
  C201     1.0000 0.59639  0.69010  0.95807  Biso   1.000  C
  H86      1.0000 0.59873  0.67547  0.89777  Biso   1.000  H
  C202     1.0000 0.61126  0.72178  0.90827  Biso   1.000  C
  H87      1.0000 0.62393  0.72807  0.81817  Biso   1.000  H
  C203     1.0000 0.62411  0.77694  0.93147  Biso   1.000  C
  C204     1.0000 0.56541  0.64717  0.14707  Biso   1.000  C
  C205     1.0000 0.53846  0.63234  0.24397  Biso   1.000  C
  H88      1.0000 0.52803  0.64317  0.27207  Biso   1.000  H
  C206     1.0000 0.52743  0.60213  0.29757  Biso   1.000  C
  H89      1.0000 0.51103  0.59367  0.37057  Biso   1.000  H
  C207     1.0000 0.54015  0.58388  0.24577  Biso   1.000  C
  C208     1.0000 0.56531  0.59687  0.14617  Biso   1.000  C
  C209     1.0000 0.57852  0.62892  0.10057  Biso   1.000  C
  H90      1.0000 0.59663  0.63807  0.03757  Biso   1.000  H
  C210     1.0000 0.52477  0.54995  0.30667  Biso   1.000  C
  K16      1.0000 0.82706  0.75261  0.93158  Biso   1.000  K
  Eu16     1.0000 0.82765  0.67467  0.61809  Biso   1.000  Eu
  S31      1.0000 0.84792  0.75614  0.56418  Biso   1.000  S
  S32      1.0000 0.65891  0.74859  0.39880  Biso   1.000  S
  O151     1.0000 0.82728  0.69408  0.35960  Biso   1.000  O
  O152     1.0000 0.82386  0.70942  0.12180  Biso   1.000  O
  O153     1.0000 0.84006  0.72847  0.66300  Biso   1.000  O
  O154     1.0000 0.85410  0.78288  0.66470  Biso   1.000  O
  O155     1.0000 0.87188  0.76228  0.44960  Biso   1.000  O
  O156     1.0000 0.69302  0.81425  0.78600  Biso   1.000  O
  O157     1.0000 0.67663  0.81605  0.54840  Biso   1.000  O
  O158     1.0000 0.63836  0.74384  0.53120  Biso   1.000  O
  O159     1.0000 0.65993  0.77153  0.28420  Biso   1.000  O
  O160     1.0000 0.65419  0.71997  0.32190  Biso   1.000  O
  C211     1.0000 0.80321  0.72627  0.32670  Biso   1.000  C
  C212     1.0000 0.81253  0.74627  0.45690  Biso   1.000  C
  C213     1.0000 0.79487  0.75997  0.50520  Biso   1.000  C
  H91      1.0000 0.80130  0.77300  0.59380  Biso   1.000  H
  C214     1.0000 0.76818  0.75471  0.42510  Biso   1.000  C
  C215     1.0000 0.76037  0.73694  0.29140  Biso   1.000  C
  H92      1.0000 0.74340  0.73460  0.23110  Biso   1.000  H
  C216     1.0000 0.77718  0.72207  0.24160  Biso   1.000  C
  H93      1.0000 0.77080  0.70940  0.15150  Biso   1.000  H
  C217     1.0000 0.81949  0.70922  0.26480  Biso   1.000  C
  C218     1.0000 0.74842  0.76792  0.48040  Biso   1.000  C
  C219     1.0000 0.76054  0.79487  0.57730  Biso   1.000  C
  H94      1.0000 0.78180  0.80530  0.60540  Biso   1.000  H
  C220     1.0000 0.74136  0.80590  0.63090  Biso   1.000  C
  H95      1.0000 0.74930  0.82230  0.70390  Biso   1.000  H
  C221     1.0000 0.71039  0.79318  0.57910  Biso   1.000  C
  C222     1.0000 0.69822  0.76802  0.47950  Biso   1.000  C
  C223     1.0000 0.71706  0.75481  0.43390  Biso   1.000  C
  H96      1.0000 0.70810  0.73670  0.37090  Biso   1.000  H
  C224     1.0000 0.69184  0.80856  0.64000  Biso   1.000  C
  K17      1.0000 0.49373  0.08594  0.26491  Biso   1.000  K
  Eu17     1.0000 0.49432  0.00800  0.95142  Biso   1.000  Eu
  S33      1.0000 0.51459  0.08947  0.89751  Biso   1.000  S
  S34      1.0000 0.32558  0.08192  0.73213  Biso   1.000  S
  O161     1.0000 0.49395  0.02741  0.69293  Biso   1.000  O
  O162     1.0000 0.49053  0.04275  0.45513  Biso   1.000  O
  O163     1.0000 0.50673  0.06180  0.99633  Biso   1.000  O
  O164     1.0000 0.52077  0.11621  0.99803  Biso   1.000  O
  O165     1.0000 0.53855  0.09561  0.78293  Biso   1.000  O
  O166     1.0000 0.35969  0.14758  0.11933  Biso   1.000  O
  O167     1.0000 0.34330  0.14938  0.88173  Biso   1.000  O
  O168     1.0000 0.30503  0.07717  0.86453  Biso   1.000  O
  O169     1.0000 0.32660  0.10486  0.61753  Biso   1.000  O
  O170     1.0000 0.32086  0.05330  0.65523  Biso   1.000  O
  C225     1.0000 0.46988  0.05960  0.66003  Biso   1.000  C
  C226     1.0000 0.47920  0.07960  0.79023  Biso   1.000  C
  C227     1.0000 0.46154  0.09330  0.83853  Biso   1.000  C
  H97      1.0000 0.46797  0.10633  0.92713  Biso   1.000  H
  C228     1.0000 0.43485  0.08804  0.75843  Biso   1.000  C
  C229     1.0000 0.42704  0.07027  0.62473  Biso   1.000  C
  H98      1.0000 0.41007  0.06793  0.56443  Biso   1.000  H
  C230     1.0000 0.44385  0.05540  0.57493  Biso   1.000  C
  H99      1.0000 0.43747  0.04273  0.48483  Biso   1.000  H
  C231     1.0000 0.48616  0.04255  0.59813  Biso   1.000  C
  C232     1.0000 0.41509  0.10125  0.81373  Biso   1.000  C
  C233     1.0000 0.42721  0.12820  0.91063  Biso   1.000  C
  H100     1.0000 0.44847  0.13863  0.93873  Biso   1.000  H
  C234     1.0000 0.40803  0.13923  0.96423  Biso   1.000  C
  H101     1.0000 0.41597  0.15563  0.03723  Biso   1.000  H
  C235     1.0000 0.37706  0.12651  0.91243  Biso   1.000  C
  C236     1.0000 0.36489  0.10135  0.81283  Biso   1.000  C
  C237     1.0000 0.38373  0.08814  0.76723  Biso   1.000  C
  H102     1.0000 0.37477  0.07003  0.70423  Biso   1.000  H
  C238     1.0000 0.35851  0.14189  0.97333  Biso   1.000  C
  K18      1.0000 0.16039  0.41928  0.59825  Biso   1.000  K
  Eu18     1.0000 0.16098  0.34134  0.28476  Biso   1.000  Eu
  S35      1.0000 0.18125  0.42281  0.23085  Biso   1.000  S
  S36      1.0000 0.99224  0.41526  0.06547  Biso   1.000  S
  O171     1.0000 0.16061  0.36075  0.02627  Biso   1.000  O
  O172     1.0000 0.15719  0.37609  0.78847  Biso   1.000  O
  O173     1.0000 0.17339  0.39514  0.32967  Biso   1.000  O
  O174     1.0000 0.18743  0.44955  0.33137  Biso   1.000  O
  O175     1.0000 0.20521  0.42895  0.11627  Biso   1.000  O
  O176     1.0000 0.02635  0.48092  0.45267  Biso   1.000  O
  O177     1.0000 0.00996  0.48272  0.21507  Biso   1.000  O
  O178     1.0000 0.97169  0.41051  0.19787  Biso   1.000  O
  O179     1.0000 0.99326  0.43820  0.95087  Biso   1.000  O
  O180     1.0000 0.98752  0.38664  0.98857  Biso   1.000  O
  C239     1.0000 0.13654  0.39294  0.99337  Biso   1.000  C
  C240     1.0000 0.14586  0.41294  0.12357  Biso   1.000  C
  C241     1.0000 0.12820  0.42664  0.17187  Biso   1.000  C
  H103     1.0000 0.13463  0.43967  0.26047  Biso   1.000  H
  C242     1.0000 0.10151  0.42138  0.09177  Biso   1.000  C
  C243     1.0000 0.09370  0.40361  0.95807  Biso   1.000  C
  H104     1.0000 0.07673  0.40127  0.89777  Biso   1.000  H
  C244     1.0000 0.11051  0.38874  0.90827  Biso   1.000  C
  H105     1.0000 0.10413  0.37607  0.81817  Biso   1.000  H
  C245     1.0000 0.15282  0.37589  0.93147  Biso   1.000  C
  C246     1.0000 0.08175  0.43459  0.14707  Biso   1.000  C
  C247     1.0000 0.09387  0.46154  0.24397  Biso   1.000  C
  H106     1.0000 0.11513  0.47197  0.27207  Biso   1.000  H
  C248     1.0000 0.07469  0.47257  0.29757  Biso   1.000  C
  H107     1.0000 0.08263  0.48897  0.37057  Biso   1.000  H
  C249     1.0000 0.04372  0.45985  0.24577  Biso   1.000  C
  C250     1.0000 0.03155  0.43469  0.14617  Biso   1.000  C
  C251     1.0000 0.05039  0.42148  0.10057  Biso   1.000  C
  H108     1.0000 0.04143  0.40337  0.03757  Biso   1.000  H
  C252     1.0000 0.02517  0.47523  0.30667  Biso   1.000  C
