data_image0
_cell_length_a       8.7627
_cell_length_b       13.8117
_cell_length_c       16.6187
_cell_angle_alpha    90
_cell_angle_beta     92.68
_cell_angle_gamma    90

_symmetry_space_group_name_H-M    "P 1"
_symmetry_int_tables_number       1

loop_
  _symmetry_equiv_pos_as_xyz
  'x, y, z'

loop_
  _atom_site_label
  _atom_site_occupancy
  _atom_site_fract_x
  _atom_site_fract_y
  _atom_site_fract_z
  _atom_site_thermal_displace_type
  _atom_site_B_iso_or_equiv
  _atom_site_type_symbol
  Zn1      1.0000 0.43729  0.39910  0.07522  Biso   1.000  Zn
  Zn2      1.0000 0.54837  0.10993  0.07748  Biso   1.000  Zn
  Zn3      1.0000 0.52121  0.24936  0.74927  Biso   1.000  Zn
  P1       1.0000 0.51500  0.38328  0.89473  Biso   1.000  P
  H1       1.0000 0.61140  0.31460  0.91890  Biso   1.000  H
  P2       1.0000 0.50980  0.10673  0.88955  Biso   1.000  P
  H2       1.0000 0.40160  0.17040  0.90300  Biso   1.000  H
  P3       1.0000 0.75520  0.28658  0.12036  Biso   1.000  P
  H3       1.0000 0.82710  0.26980  0.05370  Biso   1.000  H
  P4       1.0000 0.23480  0.22513  0.11389  Biso   1.000  P
  H4       1.0000 0.12080  0.24140  0.06090  Biso   1.000  H
  O1       1.0000 0.40190  0.39630  0.96010  Biso   1.000  O
  O2       1.0000 0.43200  0.34790  0.81780  Biso   1.000  O
  O3       1.0000 0.60870  0.47390  0.87930  Biso   1.000  O
  O4       1.0000 0.60330  0.14720  0.82160  Biso   1.000  O
  O5       1.0000 0.60750  0.09730  0.96670  Biso   1.000  O
  O6       1.0000 0.43050  0.01210  0.86430  Biso   1.000  O
  O7       1.0000 0.68210  0.19180  0.14370  Biso   1.000  O
  O8       1.0000 0.64680  0.37060  0.10220  Biso   1.000  O
  O9       1.0000 0.87550  0.32040  0.18310  Biso   1.000  O
  O10      1.0000 0.29980  0.32320  0.13710  Biso   1.000  O
  O11      1.0000 0.16440  0.17750  0.18720  Biso   1.000  O
  O12      1.0000 0.34280  0.15580  0.07380  Biso   1.000  O
  Zn4      1.0000 0.06271  0.89910  0.42478  Biso   1.000  Zn
  Zn5      1.0000 0.95163  0.60993  0.42252  Biso   1.000  Zn
  Zn6      1.0000 0.97879  0.74936  0.75073  Biso   1.000  Zn
  P5       1.0000 0.98500  0.88328  0.60527  Biso   1.000  P
  H5       1.0000 0.88860  0.81460  0.58110  Biso   1.000  H
  P6       1.0000 0.99020  0.60673  0.61045  Biso   1.000  P
  H6       1.0000 0.09840  0.67040  0.59700  Biso   1.000  H
  P7       1.0000 0.74480  0.78658  0.37964  Biso   1.000  P
  H7       1.0000 0.67290  0.76980  0.44630  Biso   1.000  H
  P8       1.0000 0.26520  0.72513  0.38611  Biso   1.000  P
  H8       1.0000 0.37920  0.74140  0.43910  Biso   1.000  H
  O13      1.0000 0.09810  0.89630  0.53990  Biso   1.000  O
  O14      1.0000 0.06800  0.84790  0.68220  Biso   1.000  O
  O15      1.0000 0.89130  0.97390  0.62070  Biso   1.000  O
  O16      1.0000 0.89670  0.64720  0.67840  Biso   1.000  O
  O17      1.0000 0.89250  0.59730  0.53330  Biso   1.000  O
  O18      1.0000 0.06950  0.51210  0.63570  Biso   1.000  O
  O19      1.0000 0.81790  0.69180  0.35630  Biso   1.000  O
  O20      1.0000 0.85320  0.87060  0.39780  Biso   1.000  O
  O21      1.0000 0.62450  0.82040  0.31690  Biso   1.000  O
  O22      1.0000 0.20020  0.82320  0.36290  Biso   1.000  O
  O23      1.0000 0.33560  0.67750  0.31280  Biso   1.000  O
  O24      1.0000 0.15720  0.65580  0.42620  Biso   1.000  O
  Zn7      1.0000 0.56271  0.60090  0.92478  Biso   1.000  Zn
  Zn8      1.0000 0.45163  0.89007  0.92252  Biso   1.000  Zn
  Zn9      1.0000 0.47879  0.75064  0.25073  Biso   1.000  Zn
  P9       1.0000 0.48500  0.61672  0.10527  Biso   1.000  P
  H9       1.0000 0.38860  0.68540  0.08110  Biso   1.000  H
  P10      1.0000 0.49020  0.89327  0.11045  Biso   1.000  P
  H10      1.0000 0.59840  0.82960  0.09700  Biso   1.000  H
  P11      1.0000 0.24480  0.71342  0.87964  Biso   1.000  P
  H11      1.0000 0.17290  0.73020  0.94630  Biso   1.000  H
  P12      1.0000 0.76520  0.77487  0.88611  Biso   1.000  P
  H12      1.0000 0.87920  0.75860  0.93910  Biso   1.000  H
  O25      1.0000 0.59810  0.60370  0.03990  Biso   1.000  O
  O26      1.0000 0.56800  0.65210  0.18220  Biso   1.000  O
  O27      1.0000 0.39130  0.52610  0.12070  Biso   1.000  O
  O28      1.0000 0.39670  0.85280  0.17840  Biso   1.000  O
  O29      1.0000 0.39250  0.90270  0.03330  Biso   1.000  O
  O30      1.0000 0.56950  0.98790  0.13570  Biso   1.000  O
  O31      1.0000 0.31790  0.80820  0.85630  Biso   1.000  O
  O32      1.0000 0.35320  0.62940  0.89780  Biso   1.000  O
  O33      1.0000 0.12450  0.67960  0.81690  Biso   1.000  O
  O34      1.0000 0.70020  0.67680  0.86290  Biso   1.000  O
  O35      1.0000 0.83560  0.82250  0.81280  Biso   1.000  O
  O36      1.0000 0.65720  0.84420  0.92620  Biso   1.000  O
  Zn10     1.0000 0.93729  0.10090  0.57522  Biso   1.000  Zn
  Zn11     1.0000 0.04837  0.39007  0.57748  Biso   1.000  Zn
  Zn12     1.0000 0.02121  0.25064  0.24927  Biso   1.000  Zn
  P13      1.0000 0.01500  0.11672  0.39473  Biso   1.000  P
  H13      1.0000 0.11140  0.18540  0.41890  Biso   1.000  H
  P14      1.0000 0.00980  0.39327  0.38955  Biso   1.000  P
  H14      1.0000 0.90160  0.32960  0.40300  Biso   1.000  H
  P15      1.0000 0.25520  0.21342  0.62036  Biso   1.000  P
  H15      1.0000 0.32710  0.23020  0.55370  Biso   1.000  H
  P16      1.0000 0.73480  0.27487  0.61389  Biso   1.000  P
  H16      1.0000 0.62080  0.25860  0.56090  Biso   1.000  H
  O37      1.0000 0.90190  0.10370  0.46010  Biso   1.000  O
  O38      1.0000 0.93200  0.15210  0.31780  Biso   1.000  O
  O39      1.0000 0.10870  0.02610  0.37930  Biso   1.000  O
  O40      1.0000 0.10330  0.35280  0.32160  Biso   1.000  O
  O41      1.0000 0.10750  0.40270  0.46670  Biso   1.000  O
  O42      1.0000 0.93050  0.48790  0.36430  Biso   1.000  O
  O43      1.0000 0.18210  0.30820  0.64370  Biso   1.000  O
  O44      1.0000 0.14680  0.12940  0.60220  Biso   1.000  O
  O45      1.0000 0.37550  0.17960  0.68310  Biso   1.000  O
  O46      1.0000 0.79980  0.17680  0.63710  Biso   1.000  O
  O47      1.0000 0.66440  0.32250  0.68720  Biso   1.000  O
  O48      1.0000 0.84280  0.34420  0.57380  Biso   1.000  O
