data_image0
_cell_length_a       8.8754
_cell_length_b       16.667
_cell_length_c       13.864
_cell_angle_alpha    90
_cell_angle_beta     90
_cell_angle_gamma    90

_symmetry_space_group_name_H-M    "P 1"
_symmetry_int_tables_number       1

loop_
  _symmetry_equiv_pos_as_xyz
  'x, y, z'

loop_
  _atom_site_label
  _atom_site_occupancy
  _atom_site_fract_x
  _atom_site_fract_y
  _atom_site_fract_z
  _atom_site_thermal_displace_type
  _atom_site_B_iso_or_equiv
  _atom_site_type_symbol
  Zn1      1.0000 0.44689  0.92309  0.10618  Biso   1.000  Zn
  P1       1.0000 0.50544  0.10828  0.11139  Biso   1.000  P
  P2       1.0000 0.74170  0.38158  0.22009  Biso   1.000  P
  O1       1.0000 0.40320  0.03636  0.10220  Biso   1.000  O
  O2       1.0000 0.81160  0.35976  0.31549  Biso   1.000  O
  O3       1.0000 0.58810  0.12842  0.01851  Biso   1.000  O
  O4       1.0000 0.84790  0.40900  0.14380  Biso   1.000  O
  O5       1.0000 0.41770  0.18083  0.14900  Biso   1.000  O
  O6       1.0000 0.64590  0.31410  0.18073  Biso   1.000  O
  H1       1.0000 0.61500  0.09010  0.17400  Biso   1.000  H
  H2       1.0000 0.64700  0.44800  0.23900  Biso   1.000  H
  Zn2      1.0000 0.05311  0.57691  0.60618  Biso   1.000  Zn
  P3       1.0000 0.99456  0.39172  0.61139  Biso   1.000  P
  P4       1.0000 0.75830  0.11842  0.72009  Biso   1.000  P
  O7       1.0000 0.09680  0.46364  0.60220  Biso   1.000  O
  O8       1.0000 0.68840  0.14024  0.81549  Biso   1.000  O
  O9       1.0000 0.91190  0.37158  0.51851  Biso   1.000  O
  O10      1.0000 0.65210  0.09100  0.64380  Biso   1.000  O
  O11      1.0000 0.08230  0.31917  0.64900  Biso   1.000  O
  O12      1.0000 0.85410  0.18590  0.68073  Biso   1.000  O
  H3       1.0000 0.88500  0.40990  0.67400  Biso   1.000  H
  H4       1.0000 0.85300  0.05200  0.73900  Biso   1.000  H
  Zn3      1.0000 0.55311  0.92309  0.39382  Biso   1.000  Zn
  P5       1.0000 0.49456  0.10828  0.38861  Biso   1.000  P
  P6       1.0000 0.25830  0.38158  0.27991  Biso   1.000  P
  O13      1.0000 0.59680  0.03636  0.39780  Biso   1.000  O
  O14      1.0000 0.18840  0.35976  0.18451  Biso   1.000  O
  O15      1.0000 0.41190  0.12842  0.48149  Biso   1.000  O
  O16      1.0000 0.15210  0.40900  0.35620  Biso   1.000  O
  O17      1.0000 0.58230  0.18083  0.35100  Biso   1.000  O
  O18      1.0000 0.35410  0.31410  0.31927  Biso   1.000  O
  H5       1.0000 0.38500  0.09010  0.32600  Biso   1.000  H
  H6       1.0000 0.35300  0.44800  0.26100  Biso   1.000  H
  Zn4      1.0000 0.94689  0.57691  0.89382  Biso   1.000  Zn
  P7       1.0000 0.00544  0.39172  0.88861  Biso   1.000  P
  P8       1.0000 0.24170  0.11842  0.77991  Biso   1.000  P
  O19      1.0000 0.90320  0.46364  0.89780  Biso   1.000  O
  O20      1.0000 0.31160  0.14024  0.68451  Biso   1.000  O
  O21      1.0000 0.08810  0.37158  0.98149  Biso   1.000  O
  O22      1.0000 0.34790  0.09100  0.85620  Biso   1.000  O
  O23      1.0000 0.91770  0.31917  0.85100  Biso   1.000  O
  O24      1.0000 0.14590  0.18590  0.81927  Biso   1.000  O
  H7       1.0000 0.11500  0.40990  0.82600  Biso   1.000  H
  H8       1.0000 0.14700  0.05200  0.76100  Biso   1.000  H
  Zn5      1.0000 0.55311  0.07691  0.89382  Biso   1.000  Zn
  P9       1.0000 0.49456  0.89172  0.88861  Biso   1.000  P
  P10      1.0000 0.25830  0.61842  0.77991  Biso   1.000  P
  O25      1.0000 0.59680  0.96364  0.89780  Biso   1.000  O
  O26      1.0000 0.18840  0.64024  0.68451  Biso   1.000  O
  O27      1.0000 0.41190  0.87158  0.98149  Biso   1.000  O
  O28      1.0000 0.15210  0.59100  0.85620  Biso   1.000  O
  O29      1.0000 0.58230  0.81917  0.85100  Biso   1.000  O
  O30      1.0000 0.35410  0.68590  0.81927  Biso   1.000  O
  H9       1.0000 0.38500  0.90990  0.82600  Biso   1.000  H
  H10      1.0000 0.35300  0.55200  0.76100  Biso   1.000  H
  Zn6      1.0000 0.94689  0.42309  0.39382  Biso   1.000  Zn
  P11      1.0000 0.00544  0.60828  0.38861  Biso   1.000  P
  P12      1.0000 0.24170  0.88158  0.27991  Biso   1.000  P
  O31      1.0000 0.90320  0.53636  0.39780  Biso   1.000  O
  O32      1.0000 0.31160  0.85976  0.18451  Biso   1.000  O
  O33      1.0000 0.08810  0.62842  0.48149  Biso   1.000  O
  O34      1.0000 0.34790  0.90900  0.35620  Biso   1.000  O
  O35      1.0000 0.91770  0.68083  0.35100  Biso   1.000  O
  O36      1.0000 0.14590  0.81410  0.31927  Biso   1.000  O
  H11      1.0000 0.11500  0.59010  0.32600  Biso   1.000  H
  H12      1.0000 0.14700  0.94800  0.26100  Biso   1.000  H
  Zn7      1.0000 0.44689  0.07691  0.60618  Biso   1.000  Zn
  P13      1.0000 0.50544  0.89172  0.61139  Biso   1.000  P
  P14      1.0000 0.74170  0.61842  0.72009  Biso   1.000  P
  O37      1.0000 0.40320  0.96364  0.60220  Biso   1.000  O
  O38      1.0000 0.81160  0.64024  0.81549  Biso   1.000  O
  O39      1.0000 0.58810  0.87158  0.51851  Biso   1.000  O
  O40      1.0000 0.84790  0.59100  0.64380  Biso   1.000  O
  O41      1.0000 0.41770  0.81917  0.64900  Biso   1.000  O
  O42      1.0000 0.64590  0.68590  0.68073  Biso   1.000  O
  H13      1.0000 0.61500  0.90990  0.67400  Biso   1.000  H
  H14      1.0000 0.64700  0.55200  0.73900  Biso   1.000  H
  Zn8      1.0000 0.05311  0.42309  0.10618  Biso   1.000  Zn
  P15      1.0000 0.99456  0.60828  0.11139  Biso   1.000  P
  P16      1.0000 0.75830  0.88158  0.22009  Biso   1.000  P
  O43      1.0000 0.09680  0.53636  0.10220  Biso   1.000  O
  O44      1.0000 0.68840  0.85976  0.31549  Biso   1.000  O
  O45      1.0000 0.91190  0.62842  0.01851  Biso   1.000  O
  O46      1.0000 0.65210  0.90900  0.14380  Biso   1.000  O
  O47      1.0000 0.08230  0.68083  0.14900  Biso   1.000  O
  O48      1.0000 0.85410  0.81410  0.18073  Biso   1.000  O
  H15      1.0000 0.88500  0.59010  0.17400  Biso   1.000  H
  H16      1.0000 0.85300  0.94800  0.23900  Biso   1.000  H
  Zn9      1.0000 0.50000  0.25069  0.25000  Biso   1.000  Zn
  Zn10     1.0000 0.00000  0.24931  0.75000  Biso   1.000  Zn
  Zn11     1.0000 0.50000  0.74931  0.75000  Biso   1.000  Zn
  Zn12     1.0000 0.00000  0.75069  0.25000  Biso   1.000  Zn
