data_image0
_cell_length_a       10.7673
_cell_length_b       11.0209
_cell_length_c       13.0918
_cell_angle_alpha    105.064
_cell_angle_beta     94.854
_cell_angle_gamma    93.847

_symmetry_space_group_name_H-M    "P 1"
_symmetry_int_tables_number       1

loop_
  _symmetry_equiv_pos_as_xyz
  'x, y, z'

loop_
  _atom_site_label
  _atom_site_occupancy
  _atom_site_fract_x
  _atom_site_fract_y
  _atom_site_fract_z
  _atom_site_thermal_displace_type
  _atom_site_B_iso_or_equiv
  _atom_site_type_symbol
  Dy1      1.0000 0.03020  0.55128  0.17541  Biso   1.000  Dy
  C1       1.0000 0.99540  0.73880  0.00920  Biso   1.000  C
  C2       1.0000 0.01180  0.76710  0.33520  Biso   1.000  C
  C3       1.0000 0.23280  0.51920  0.98570  Biso   1.000  C
  C4       1.0000 0.99830  0.87500  0.00710  Biso   1.000  C
  C5       1.0000 0.00420  0.88760  0.42020  Biso   1.000  C
  C6       1.0000 0.37150  0.51000  0.99110  Biso   1.000  C
  C7       1.0000 0.10800  0.93490  0.98520  Biso   1.000  C
  C8       1.0000 0.05090  0.00070  0.40520  Biso   1.000  C
  C9       1.0000 0.42540  0.43460  0.90730  Biso   1.000  C
  C10      1.0000 0.22110  0.87700  0.97500  Biso   1.000  C
  H1       1.0000 0.22410  0.79630  0.98410  Biso   1.000  H
  C11      1.0000 0.09920  0.00760  0.30540  Biso   1.000  C
  H2       1.0000 0.09920  0.93470  0.25030  Biso   1.000  H
  C12      1.0000 0.44760  0.57400  0.08120  Biso   1.000  C
  H3       1.0000 0.41160  0.62530  0.13700  Biso   1.000  H
  C13      1.0000 0.32430  0.93560  0.95250  Biso   1.000  C
  H4       1.0000 0.39660  0.89390  0.94420  Biso   1.000  H
  C14      1.0000 0.14470  0.12200  0.29310  Biso   1.000  C
  H5       1.0000 0.17590  0.12540  0.22970  Biso   1.000  H
  C15      1.0000 0.32510  0.05880  0.94140  Biso   1.000  C
  H6       1.0000 0.39780  0.09910  0.92730  Biso   1.000  H
  C16      1.0000 0.14490  0.23450  0.37500  Biso   1.000  C
  H7       1.0000 0.17840  0.31080  0.36630  Biso   1.000  H
  C17      1.0000 0.21980  0.11830  0.95150  Biso   1.000  C
  H8       1.0000 0.22030  0.19880  0.94130  Biso   1.000  H
  C18      1.0000 0.09520  0.23070  0.46750  Biso   1.000  C
  H9       1.0000 0.09180  0.30570  0.51960  Biso   1.000  H
  C19      1.0000 0.89270  0.93800  0.02270  Biso   1.000  C
  C20      1.0000 0.95140  0.88550  0.51410  Biso   1.000  C
  N1       1.0000 0.35100  0.36000  0.81380  Biso   1.000  N
  H10      1.0000 0.38540  0.31000  0.76470  Biso   1.000  H
  H11      1.0000 0.27140  0.36540  0.80660  Biso   1.000  H
  O1       1.0000 0.00920  0.71730  0.09650  Biso   1.000  O
  O2       1.0000 0.91140  0.70720  0.28790  Biso   1.000  O
  O3       1.0000 0.18870  0.55810  0.07210  Biso   1.000  O
  O4       1.0000 0.97750  0.65870  0.92200  Biso   1.000  O
  O5       1.0000 0.11620  0.72880  0.31720  Biso   1.000  O
  O6       1.0000 0.17240  0.49250  0.89840  Biso   1.000  O
  Dy2      1.0000 0.96980  0.44872  0.82459  Biso   1.000  Dy
  C21      1.0000 0.00460  0.26120  0.99080  Biso   1.000  C
  C22      1.0000 0.98820  0.23290  0.66480  Biso   1.000  C
  C23      1.0000 0.76720  0.48080  0.01430  Biso   1.000  C
  C24      1.0000 0.00170  0.12500  0.99290  Biso   1.000  C
  C25      1.0000 0.99580  0.11240  0.57980  Biso   1.000  C
  C26      1.0000 0.62850  0.49000  0.00890  Biso   1.000  C
  C27      1.0000 0.89200  0.06510  0.01480  Biso   1.000  C
  C28      1.0000 0.94910  0.99930  0.59480  Biso   1.000  C
  C29      1.0000 0.57460  0.56540  0.09270  Biso   1.000  C
  C30      1.0000 0.77890  0.12300  0.02500  Biso   1.000  C
  H12      1.0000 0.77590  0.20370  0.01590  Biso   1.000  H
  C31      1.0000 0.90080  0.99240  0.69460  Biso   1.000  C
  H13      1.0000 0.90080  0.06530  0.74970  Biso   1.000  H
  C32      1.0000 0.55240  0.42600  0.91880  Biso   1.000  C
  H14      1.0000 0.58840  0.37470  0.86300  Biso   1.000  H
  C33      1.0000 0.67570  0.06440  0.04750  Biso   1.000  C
  H15      1.0000 0.60340  0.10610  0.05580  Biso   1.000  H
  C34      1.0000 0.85530  0.87800  0.70690  Biso   1.000  C
  H16      1.0000 0.82410  0.87460  0.77030  Biso   1.000  H
  C35      1.0000 0.67490  0.94120  0.05860  Biso   1.000  C
  H17      1.0000 0.60220  0.90090  0.07270  Biso   1.000  H
  C36      1.0000 0.85510  0.76550  0.62500  Biso   1.000  C
  H18      1.0000 0.82160  0.68920  0.63370  Biso   1.000  H
  C37      1.0000 0.78020  0.88170  0.04850  Biso   1.000  C
  H19      1.0000 0.77970  0.80120  0.05870  Biso   1.000  H
  C38      1.0000 0.90480  0.76930  0.53250  Biso   1.000  C
  H20      1.0000 0.90820  0.69430  0.48040  Biso   1.000  H
  C39      1.0000 0.10730  0.06200  0.97730  Biso   1.000  C
  C40      1.0000 0.04860  0.11450  0.48590  Biso   1.000  C
  N2       1.0000 0.64900  0.64000  0.18620  Biso   1.000  N
  H21      1.0000 0.61460  0.69000  0.23530  Biso   1.000  H
  H22      1.0000 0.72860  0.63460  0.19340  Biso   1.000  H
  O7       1.0000 0.99080  0.28270  0.90350  Biso   1.000  O
  O8       1.0000 0.08860  0.29280  0.71210  Biso   1.000  O
  O9       1.0000 0.81130  0.44190  0.92790  Biso   1.000  O
  O10      1.0000 0.02250  0.34130  0.07800  Biso   1.000  O
  O11      1.0000 0.88380  0.27120  0.68280  Biso   1.000  O
  O12      1.0000 0.82760  0.50750  0.10160  Biso   1.000  O
