data_image0
_cell_length_a       24.5907
_cell_length_b       17.8811
_cell_length_c       25.0765
_cell_angle_alpha    90
_cell_angle_beta     104.335
_cell_angle_gamma    90

_symmetry_space_group_name_H-M    "P 1"
_symmetry_int_tables_number       1

loop_
  _symmetry_equiv_pos_as_xyz
  'x, y, z'

loop_
  _atom_site_label
  _atom_site_occupancy
  _atom_site_fract_x
  _atom_site_fract_y
  _atom_site_fract_z
  _atom_site_thermal_displace_type
  _atom_site_B_iso_or_equiv
  _atom_site_type_symbol
  Dy1      1.0000 0.40838  0.42356  0.74179  Biso   1.000  Dy
  Dy2      1.0000 0.71556  0.80903  0.05628  Biso   1.000  Dy
  C1       1.0000 0.52257  0.59365  0.86347  Biso   1.000  C
  C2       1.0000 0.51004  0.26961  0.86917  Biso   1.000  C
  C3       1.0000 0.74955  0.56417  0.08744  Biso   1.000  C
  C4       1.0000 0.57725  0.61812  0.88431  Biso   1.000  C
  H1       1.0000 0.60620  0.59590  0.87210  Biso   1.000  H
  C5       1.0000 0.45774  0.26022  0.88029  Biso   1.000  C
  H2       1.0000 0.42820  0.29180  0.86420  Biso   1.000  H
  C6       1.0000 0.71212  0.57898  0.11952  Biso   1.000  C
  H3       1.0000 0.69410  0.62510  0.11700  Biso   1.000  H
  C7       1.0000 0.58990  0.67590  0.92358  Biso   1.000  C
  C8       1.0000 0.44973  0.20332  0.91568  Biso   1.000  C
  C9       1.0000 0.70165  0.52458  0.15549  Biso   1.000  C
  C10      1.0000 0.54562  0.70859  0.94094  Biso   1.000  C
  H4       1.0000 0.55290  0.74690  0.96680  Biso   1.000  H
  C11      1.0000 0.49347  0.15587  0.93972  Biso   1.000  C
  H5       1.0000 0.48780  0.11720  0.96260  Biso   1.000  H
  C12      1.0000 0.72757  0.45543  0.15861  Biso   1.000  C
  H6       1.0000 0.72080  0.41930  0.18290  Biso   1.000  H
  C13      1.0000 0.49068  0.68427  0.91972  Biso   1.000  C
  C14      1.0000 0.54585  0.16654  0.92935  Biso   1.000  C
  C15      1.0000 0.76373  0.44014  0.12532  Biso   1.000  C
  C16      1.0000 0.47884  0.62580  0.88176  Biso   1.000  C
  H7       1.0000 0.44230  0.60850  0.86880  Biso   1.000  H
  C17      1.0000 0.55441  0.22456  0.89444  Biso   1.000  C
  H8       1.0000 0.58980  0.23250  0.88840  Biso   1.000  H
  C18      1.0000 0.77504  0.49489  0.08993  Biso   1.000  C
  H9       1.0000 0.79970  0.48480  0.06800  Biso   1.000  H
  C19      1.0000 0.50964  0.53066  0.82195  Biso   1.000  C
  C20      1.0000 0.51672  0.32673  0.82717  Biso   1.000  C
  C21      1.0000 0.76127  0.62203  0.04791  Biso   1.000  C
  C22      1.0000 0.64897  0.70109  0.94730  Biso   1.000  C
  C23      1.0000 0.39206  0.19212  0.92528  Biso   1.000  C
  C24      1.0000 0.66035  0.53976  0.18969  Biso   1.000  C
  C25      1.0000 0.44473  0.71960  0.93709  Biso   1.000  C
  C26      1.0000 0.59190  0.11786  0.95337  Biso   1.000  C
  C27      1.0000 0.78817  0.36642  0.12612  Biso   1.000  C
  N1       1.0000 0.40804  0.74580  0.94993  Biso   1.000  N
  N2       1.0000 0.62860  0.07839  0.97152  Biso   1.000  N
  N3       1.0000 0.80734  0.30793  0.12586  Biso   1.000  N
  O1       1.0000 0.46009  0.50797  0.80864  Biso   1.000  O
  O2       1.0000 0.47219  0.34834  0.79458  Biso   1.000  O
  O3       1.0000 0.74535  0.68832  0.05169  Biso   1.000  O
  O4       1.0000 0.54977  0.50711  0.80409  Biso   1.000  O
  O5       1.0000 0.56502  0.34629  0.82569  Biso   1.000  O
  O6       1.0000 0.78588  0.60037  0.01216  Biso   1.000  O
  O7       1.0000 0.68730  0.66780  0.93224  Biso   1.000  O
  O8       1.0000 0.35412  0.23873  0.90356  Biso   1.000  O
  O9       1.0000 0.62665  0.59302  0.17561  Biso   1.000  O
  O10      1.0000 0.65447  0.75451  0.98026  Biso   1.000  O
  O11      1.0000 0.38353  0.13822  0.95436  Biso   1.000  O
  O12      1.0000 0.66177  0.49957  0.23152  Biso   1.000  O
  Dy3      1.0000 0.90838  0.92356  0.74179  Biso   1.000  Dy
  Dy4      1.0000 0.21556  0.30903  0.05628  Biso   1.000  Dy
  C28      1.0000 0.02257  0.09365  0.86347  Biso   1.000  C
  C29      1.0000 0.01004  0.76961  0.86917  Biso   1.000  C
  C30      1.0000 0.24955  0.06417  0.08744  Biso   1.000  C
  C31      1.0000 0.07725  0.11812  0.88431  Biso   1.000  C
  H10      1.0000 0.10620  0.09590  0.87210  Biso   1.000  H
  C32      1.0000 0.95774  0.76022  0.88029  Biso   1.000  C
  H11      1.0000 0.92820  0.79180  0.86420  Biso   1.000  H
  C33      1.0000 0.21212  0.07898  0.11952  Biso   1.000  C
  H12      1.0000 0.19410  0.12510  0.11700  Biso   1.000  H
  C34      1.0000 0.08990  0.17590  0.92358  Biso   1.000  C
  C35      1.0000 0.94973  0.70332  0.91568  Biso   1.000  C
  C36      1.0000 0.20165  0.02458  0.15549  Biso   1.000  C
  C37      1.0000 0.04562  0.20859  0.94094  Biso   1.000  C
  H13      1.0000 0.05290  0.24690  0.96680  Biso   1.000  H
  C38      1.0000 0.99347  0.65587  0.93972  Biso   1.000  C
  H14      1.0000 0.98780  0.61720  0.96260  Biso   1.000  H
  C39      1.0000 0.22757  0.95543  0.15861  Biso   1.000  C
  H15      1.0000 0.22080  0.91930  0.18290  Biso   1.000  H
  C40      1.0000 0.99068  0.18427  0.91972  Biso   1.000  C
  C41      1.0000 0.04585  0.66654  0.92935  Biso   1.000  C
  C42      1.0000 0.26373  0.94014  0.12532  Biso   1.000  C
  C43      1.0000 0.97884  0.12580  0.88176  Biso   1.000  C
  H16      1.0000 0.94230  0.10850  0.86880  Biso   1.000  H
  C44      1.0000 0.05441  0.72456  0.89444  Biso   1.000  C
  H17      1.0000 0.08980  0.73250  0.88840  Biso   1.000  H
  C45      1.0000 0.27504  0.99489  0.08993  Biso   1.000  C
  H18      1.0000 0.29970  0.98480  0.06800  Biso   1.000  H
  C46      1.0000 0.00964  0.03066  0.82195  Biso   1.000  C
  C47      1.0000 0.01672  0.82673  0.82717  Biso   1.000  C
  C48      1.0000 0.26127  0.12203  0.04791  Biso   1.000  C
  C49      1.0000 0.14897  0.20109  0.94730  Biso   1.000  C
  C50      1.0000 0.89206  0.69212  0.92528  Biso   1.000  C
  C51      1.0000 0.16035  0.03976  0.18969  Biso   1.000  C
  C52      1.0000 0.94473  0.21960  0.93709  Biso   1.000  C
  C53      1.0000 0.09190  0.61786  0.95337  Biso   1.000  C
  C54      1.0000 0.28817  0.86642  0.12612  Biso   1.000  C
  N4       1.0000 0.90804  0.24580  0.94993  Biso   1.000  N
  N5       1.0000 0.12860  0.57839  0.97152  Biso   1.000  N
  N6       1.0000 0.30734  0.80793  0.12586  Biso   1.000  N
  O13      1.0000 0.96009  0.00797  0.80864  Biso   1.000  O
  O14      1.0000 0.97219  0.84834  0.79458  Biso   1.000  O
  O15      1.0000 0.24535  0.18832  0.05169  Biso   1.000  O
  O16      1.0000 0.04977  0.00711  0.80409  Biso   1.000  O
  O17      1.0000 0.06502  0.84629  0.82569  Biso   1.000  O
  O18      1.0000 0.28588  0.10037  0.01216  Biso   1.000  O
  O19      1.0000 0.18730  0.16780  0.93224  Biso   1.000  O
  O20      1.0000 0.85412  0.73873  0.90356  Biso   1.000  O
  O21      1.0000 0.12665  0.09302  0.17561  Biso   1.000  O
  O22      1.0000 0.15447  0.25451  0.98026  Biso   1.000  O
  O23      1.0000 0.88353  0.63822  0.95436  Biso   1.000  O
  O24      1.0000 0.16177  0.99957  0.23152  Biso   1.000  O
  Dy5      1.0000 0.59162  0.42356  0.75821  Biso   1.000  Dy
  Dy6      1.0000 0.28444  0.80903  0.44372  Biso   1.000  Dy
  C55      1.0000 0.47743  0.59365  0.63653  Biso   1.000  C
  C56      1.0000 0.48996  0.26961  0.63083  Biso   1.000  C
  C57      1.0000 0.25045  0.56417  0.41256  Biso   1.000  C
  C58      1.0000 0.42275  0.61812  0.61569  Biso   1.000  C
  H19      1.0000 0.39380  0.59590  0.62790  Biso   1.000  H
  C59      1.0000 0.54226  0.26022  0.61971  Biso   1.000  C
  H20      1.0000 0.57180  0.29180  0.63580  Biso   1.000  H
  C60      1.0000 0.28788  0.57898  0.38048  Biso   1.000  C
  H21      1.0000 0.30590  0.62510  0.38300  Biso   1.000  H
  C61      1.0000 0.41010  0.67590  0.57642  Biso   1.000  C
  C62      1.0000 0.55027  0.20332  0.58432  Biso   1.000  C
  C63      1.0000 0.29835  0.52458  0.34451  Biso   1.000  C
  C64      1.0000 0.45438  0.70859  0.55906  Biso   1.000  C
  H22      1.0000 0.44710  0.74690  0.53320  Biso   1.000  H
  C65      1.0000 0.50653  0.15587  0.56028  Biso   1.000  C
  H23      1.0000 0.51220  0.11720  0.53740  Biso   1.000  H
  C66      1.0000 0.27243  0.45543  0.34139  Biso   1.000  C
  H24      1.0000 0.27920  0.41930  0.31710  Biso   1.000  H
  C67      1.0000 0.50932  0.68427  0.58028  Biso   1.000  C
  C68      1.0000 0.45415  0.16654  0.57065  Biso   1.000  C
  C69      1.0000 0.23627  0.44014  0.37468  Biso   1.000  C
  C70      1.0000 0.52116  0.62580  0.61824  Biso   1.000  C
  H25      1.0000 0.55770  0.60850  0.63120  Biso   1.000  H
  C71      1.0000 0.44559  0.22456  0.60556  Biso   1.000  C
  H26      1.0000 0.41020  0.23250  0.61160  Biso   1.000  H
  C72      1.0000 0.22496  0.49489  0.41007  Biso   1.000  C
  H27      1.0000 0.20030  0.48480  0.43200  Biso   1.000  H
  C73      1.0000 0.49036  0.53066  0.67805  Biso   1.000  C
  C74      1.0000 0.48328  0.32673  0.67283  Biso   1.000  C
  C75      1.0000 0.23873  0.62203  0.45209  Biso   1.000  C
  C76      1.0000 0.35103  0.70109  0.55270  Biso   1.000  C
  C77      1.0000 0.60794  0.19212  0.57472  Biso   1.000  C
  C78      1.0000 0.33965  0.53976  0.31031  Biso   1.000  C
  C79      1.0000 0.55527  0.71960  0.56291  Biso   1.000  C
  C80      1.0000 0.40810  0.11786  0.54663  Biso   1.000  C
  C81      1.0000 0.21183  0.36642  0.37388  Biso   1.000  C
  N7       1.0000 0.59196  0.74580  0.55007  Biso   1.000  N
  N8       1.0000 0.37140  0.07839  0.52848  Biso   1.000  N
  N9       1.0000 0.19266  0.30793  0.37414  Biso   1.000  N
  O25      1.0000 0.53991  0.50797  0.69136  Biso   1.000  O
  O26      1.0000 0.52781  0.34834  0.70542  Biso   1.000  O
  O27      1.0000 0.25465  0.68832  0.44831  Biso   1.000  O
  O28      1.0000 0.45023  0.50711  0.69591  Biso   1.000  O
  O29      1.0000 0.43498  0.34629  0.67431  Biso   1.000  O
  O30      1.0000 0.21412  0.60037  0.48784  Biso   1.000  O
  O31      1.0000 0.31270  0.66780  0.56776  Biso   1.000  O
  O32      1.0000 0.64588  0.23873  0.59644  Biso   1.000  O
  O33      1.0000 0.37335  0.59302  0.32439  Biso   1.000  O
  O34      1.0000 0.34553  0.75451  0.51974  Biso   1.000  O
  O35      1.0000 0.61647  0.13822  0.54564  Biso   1.000  O
  O36      1.0000 0.33823  0.49957  0.26848  Biso   1.000  O
  Dy7      1.0000 0.09162  0.92356  0.75821  Biso   1.000  Dy
  Dy8      1.0000 0.78444  0.30903  0.44372  Biso   1.000  Dy
  C82      1.0000 0.97743  0.09365  0.63653  Biso   1.000  C
  C83      1.0000 0.98996  0.76961  0.63083  Biso   1.000  C
  C84      1.0000 0.75045  0.06417  0.41256  Biso   1.000  C
  C85      1.0000 0.92275  0.11812  0.61569  Biso   1.000  C
  H28      1.0000 0.89380  0.09590  0.62790  Biso   1.000  H
  C86      1.0000 0.04226  0.76022  0.61971  Biso   1.000  C
  H29      1.0000 0.07180  0.79180  0.63580  Biso   1.000  H
  C87      1.0000 0.78788  0.07898  0.38048  Biso   1.000  C
  H30      1.0000 0.80590  0.12510  0.38300  Biso   1.000  H
  C88      1.0000 0.91010  0.17590  0.57642  Biso   1.000  C
  C89      1.0000 0.05027  0.70332  0.58432  Biso   1.000  C
  C90      1.0000 0.79835  0.02458  0.34451  Biso   1.000  C
  C91      1.0000 0.95438  0.20859  0.55906  Biso   1.000  C
  H31      1.0000 0.94710  0.24690  0.53320  Biso   1.000  H
  C92      1.0000 0.00653  0.65587  0.56028  Biso   1.000  C
  H32      1.0000 0.01220  0.61720  0.53740  Biso   1.000  H
  C93      1.0000 0.77243  0.95543  0.34139  Biso   1.000  C
  H33      1.0000 0.77920  0.91930  0.31710  Biso   1.000  H
  C94      1.0000 0.00932  0.18427  0.58028  Biso   1.000  C
  C95      1.0000 0.95415  0.66654  0.57065  Biso   1.000  C
  C96      1.0000 0.73627  0.94014  0.37468  Biso   1.000  C
  C97      1.0000 0.02116  0.12580  0.61824  Biso   1.000  C
  H34      1.0000 0.05770  0.10850  0.63120  Biso   1.000  H
  C98      1.0000 0.94559  0.72456  0.60556  Biso   1.000  C
  H35      1.0000 0.91020  0.73250  0.61160  Biso   1.000  H
  C99      1.0000 0.72496  0.99489  0.41007  Biso   1.000  C
  H36      1.0000 0.70030  0.98480  0.43200  Biso   1.000  H
  C100     1.0000 0.99036  0.03066  0.67805  Biso   1.000  C
  C101     1.0000 0.98328  0.82673  0.67283  Biso   1.000  C
  C102     1.0000 0.73873  0.12203  0.45209  Biso   1.000  C
  C103     1.0000 0.85103  0.20109  0.55270  Biso   1.000  C
  C104     1.0000 0.10794  0.69212  0.57472  Biso   1.000  C
  C105     1.0000 0.83965  0.03976  0.31031  Biso   1.000  C
  C106     1.0000 0.05527  0.21960  0.56291  Biso   1.000  C
  C107     1.0000 0.90810  0.61786  0.54663  Biso   1.000  C
  C108     1.0000 0.71183  0.86642  0.37388  Biso   1.000  C
  N10      1.0000 0.09196  0.24580  0.55007  Biso   1.000  N
  N11      1.0000 0.87140  0.57839  0.52848  Biso   1.000  N
  N12      1.0000 0.69266  0.80793  0.37414  Biso   1.000  N
  O37      1.0000 0.03991  0.00797  0.69136  Biso   1.000  O
  O38      1.0000 0.02781  0.84834  0.70542  Biso   1.000  O
  O39      1.0000 0.75465  0.18832  0.44831  Biso   1.000  O
  O40      1.0000 0.95023  0.00711  0.69591  Biso   1.000  O
  O41      1.0000 0.93498  0.84629  0.67431  Biso   1.000  O
  O42      1.0000 0.71412  0.10037  0.48784  Biso   1.000  O
  O43      1.0000 0.81270  0.16780  0.56776  Biso   1.000  O
  O44      1.0000 0.14588  0.73873  0.59644  Biso   1.000  O
  O45      1.0000 0.87335  0.09302  0.32439  Biso   1.000  O
  O46      1.0000 0.84553  0.25451  0.51974  Biso   1.000  O
  O47      1.0000 0.11647  0.63822  0.54564  Biso   1.000  O
  O48      1.0000 0.83823  0.99957  0.26848  Biso   1.000  O
  Dy9      1.0000 0.59162  0.57644  0.25821  Biso   1.000  Dy
  Dy10     1.0000 0.28444  0.19097  0.94372  Biso   1.000  Dy
  C109     1.0000 0.47743  0.40635  0.13653  Biso   1.000  C
  C110     1.0000 0.48996  0.73039  0.13083  Biso   1.000  C
  C111     1.0000 0.25045  0.43583  0.91256  Biso   1.000  C
  C112     1.0000 0.42275  0.38188  0.11569  Biso   1.000  C
  H37      1.0000 0.39380  0.40410  0.12790  Biso   1.000  H
  C113     1.0000 0.54226  0.73978  0.11971  Biso   1.000  C
  H38      1.0000 0.57180  0.70820  0.13580  Biso   1.000  H
  C114     1.0000 0.28788  0.42102  0.88048  Biso   1.000  C
  H39      1.0000 0.30590  0.37490  0.88300  Biso   1.000  H
  C115     1.0000 0.41010  0.32410  0.07642  Biso   1.000  C
  C116     1.0000 0.55027  0.79668  0.08432  Biso   1.000  C
  C117     1.0000 0.29835  0.47542  0.84451  Biso   1.000  C
  C118     1.0000 0.45438  0.29141  0.05906  Biso   1.000  C
  H40      1.0000 0.44710  0.25310  0.03320  Biso   1.000  H
  C119     1.0000 0.50653  0.84413  0.06028  Biso   1.000  C
  H41      1.0000 0.51220  0.88280  0.03740  Biso   1.000  H
  C120     1.0000 0.27243  0.54457  0.84139  Biso   1.000  C
  H42      1.0000 0.27920  0.58070  0.81710  Biso   1.000  H
  C121     1.0000 0.50932  0.31573  0.08028  Biso   1.000  C
  C122     1.0000 0.45415  0.83346  0.07065  Biso   1.000  C
  C123     1.0000 0.23627  0.55986  0.87468  Biso   1.000  C
  C124     1.0000 0.52116  0.37420  0.11824  Biso   1.000  C
  H43      1.0000 0.55770  0.39150  0.13120  Biso   1.000  H
  C125     1.0000 0.44559  0.77544  0.10556  Biso   1.000  C
  H44      1.0000 0.41020  0.76750  0.11160  Biso   1.000  H
  C126     1.0000 0.22496  0.50511  0.91007  Biso   1.000  C
  H45      1.0000 0.20030  0.51520  0.93200  Biso   1.000  H
  C127     1.0000 0.49036  0.46934  0.17805  Biso   1.000  C
  C128     1.0000 0.48328  0.67327  0.17283  Biso   1.000  C
  C129     1.0000 0.23873  0.37797  0.95209  Biso   1.000  C
  C130     1.0000 0.35103  0.29891  0.05270  Biso   1.000  C
  C131     1.0000 0.60794  0.80788  0.07472  Biso   1.000  C
  C132     1.0000 0.33965  0.46024  0.81031  Biso   1.000  C
  C133     1.0000 0.55527  0.28040  0.06291  Biso   1.000  C
  C134     1.0000 0.40810  0.88214  0.04663  Biso   1.000  C
  C135     1.0000 0.21183  0.63358  0.87388  Biso   1.000  C
  N13      1.0000 0.59196  0.25420  0.05007  Biso   1.000  N
  N14      1.0000 0.37140  0.92161  0.02848  Biso   1.000  N
  N15      1.0000 0.19266  0.69207  0.87414  Biso   1.000  N
  O49      1.0000 0.53991  0.49203  0.19136  Biso   1.000  O
  O50      1.0000 0.52781  0.65166  0.20542  Biso   1.000  O
  O51      1.0000 0.25465  0.31168  0.94831  Biso   1.000  O
  O52      1.0000 0.45023  0.49289  0.19591  Biso   1.000  O
  O53      1.0000 0.43498  0.65371  0.17431  Biso   1.000  O
  O54      1.0000 0.21412  0.39963  0.98784  Biso   1.000  O
  O55      1.0000 0.31270  0.33220  0.06776  Biso   1.000  O
  O56      1.0000 0.64588  0.76127  0.09644  Biso   1.000  O
  O57      1.0000 0.37335  0.40698  0.82439  Biso   1.000  O
  O58      1.0000 0.34553  0.24549  0.01974  Biso   1.000  O
  O59      1.0000 0.61647  0.86178  0.04564  Biso   1.000  O
  O60      1.0000 0.33823  0.50043  0.76848  Biso   1.000  O
  Dy11     1.0000 0.09162  0.07644  0.25821  Biso   1.000  Dy
  Dy12     1.0000 0.78444  0.69097  0.94372  Biso   1.000  Dy
  C136     1.0000 0.97743  0.90635  0.13653  Biso   1.000  C
  C137     1.0000 0.98996  0.23039  0.13083  Biso   1.000  C
  C138     1.0000 0.75045  0.93583  0.91256  Biso   1.000  C
  C139     1.0000 0.92275  0.88188  0.11569  Biso   1.000  C
  H46      1.0000 0.89380  0.90410  0.12790  Biso   1.000  H
  C140     1.0000 0.04226  0.23978  0.11971  Biso   1.000  C
  H47      1.0000 0.07180  0.20820  0.13580  Biso   1.000  H
  C141     1.0000 0.78788  0.92102  0.88048  Biso   1.000  C
  H48      1.0000 0.80590  0.87490  0.88300  Biso   1.000  H
  C142     1.0000 0.91010  0.82410  0.07642  Biso   1.000  C
  C143     1.0000 0.05027  0.29668  0.08432  Biso   1.000  C
  C144     1.0000 0.79835  0.97542  0.84451  Biso   1.000  C
  C145     1.0000 0.95438  0.79141  0.05906  Biso   1.000  C
  H49      1.0000 0.94710  0.75310  0.03320  Biso   1.000  H
  C146     1.0000 0.00653  0.34413  0.06028  Biso   1.000  C
  H50      1.0000 0.01220  0.38280  0.03740  Biso   1.000  H
  C147     1.0000 0.77243  0.04457  0.84139  Biso   1.000  C
  H51      1.0000 0.77920  0.08070  0.81710  Biso   1.000  H
  C148     1.0000 0.00932  0.81573  0.08028  Biso   1.000  C
  C149     1.0000 0.95415  0.33346  0.07065  Biso   1.000  C
  C150     1.0000 0.73627  0.05986  0.87468  Biso   1.000  C
  C151     1.0000 0.02116  0.87420  0.11824  Biso   1.000  C
  H52      1.0000 0.05770  0.89150  0.13120  Biso   1.000  H
  C152     1.0000 0.94559  0.27544  0.10556  Biso   1.000  C
  H53      1.0000 0.91020  0.26750  0.11160  Biso   1.000  H
  C153     1.0000 0.72496  0.00511  0.91007  Biso   1.000  C
  H54      1.0000 0.70030  0.01520  0.93200  Biso   1.000  H
  C154     1.0000 0.99036  0.96934  0.17805  Biso   1.000  C
  C155     1.0000 0.98328  0.17327  0.17283  Biso   1.000  C
  C156     1.0000 0.73873  0.87797  0.95209  Biso   1.000  C
  C157     1.0000 0.85103  0.79891  0.05270  Biso   1.000  C
  C158     1.0000 0.10794  0.30788  0.07472  Biso   1.000  C
  C159     1.0000 0.83965  0.96024  0.81031  Biso   1.000  C
  C160     1.0000 0.05527  0.78040  0.06291  Biso   1.000  C
  C161     1.0000 0.90810  0.38214  0.04663  Biso   1.000  C
  C162     1.0000 0.71183  0.13358  0.87388  Biso   1.000  C
  N16      1.0000 0.09196  0.75420  0.05007  Biso   1.000  N
  N17      1.0000 0.87140  0.42161  0.02848  Biso   1.000  N
  N18      1.0000 0.69266  0.19207  0.87414  Biso   1.000  N
  O61      1.0000 0.03991  0.99203  0.19136  Biso   1.000  O
  O62      1.0000 0.02781  0.15166  0.20542  Biso   1.000  O
  O63      1.0000 0.75465  0.81168  0.94831  Biso   1.000  O
  O64      1.0000 0.95023  0.99289  0.19591  Biso   1.000  O
  O65      1.0000 0.93498  0.15371  0.17431  Biso   1.000  O
  O66      1.0000 0.71412  0.89963  0.98784  Biso   1.000  O
  O67      1.0000 0.81270  0.83220  0.06776  Biso   1.000  O
  O68      1.0000 0.14588  0.26127  0.09644  Biso   1.000  O
  O69      1.0000 0.87335  0.90698  0.82439  Biso   1.000  O
  O70      1.0000 0.84553  0.74549  0.01974  Biso   1.000  O
  O71      1.0000 0.11647  0.36178  0.04564  Biso   1.000  O
  O72      1.0000 0.83823  0.00043  0.76848  Biso   1.000  O
  Dy13     1.0000 0.40838  0.57644  0.24179  Biso   1.000  Dy
  Dy14     1.0000 0.71556  0.19097  0.55628  Biso   1.000  Dy
  C163     1.0000 0.52257  0.40635  0.36347  Biso   1.000  C
  C164     1.0000 0.51004  0.73039  0.36917  Biso   1.000  C
  C165     1.0000 0.74955  0.43583  0.58744  Biso   1.000  C
  C166     1.0000 0.57725  0.38188  0.38431  Biso   1.000  C
  H55      1.0000 0.60620  0.40410  0.37210  Biso   1.000  H
  C167     1.0000 0.45774  0.73978  0.38029  Biso   1.000  C
  H56      1.0000 0.42820  0.70820  0.36420  Biso   1.000  H
  C168     1.0000 0.71212  0.42102  0.61952  Biso   1.000  C
  H57      1.0000 0.69410  0.37490  0.61700  Biso   1.000  H
  C169     1.0000 0.58990  0.32410  0.42358  Biso   1.000  C
  C170     1.0000 0.44973  0.79668  0.41568  Biso   1.000  C
  C171     1.0000 0.70165  0.47542  0.65549  Biso   1.000  C
  C172     1.0000 0.54562  0.29141  0.44094  Biso   1.000  C
  H58      1.0000 0.55290  0.25310  0.46680  Biso   1.000  H
  C173     1.0000 0.49347  0.84413  0.43972  Biso   1.000  C
  H59      1.0000 0.48780  0.88280  0.46260  Biso   1.000  H
  C174     1.0000 0.72757  0.54457  0.65861  Biso   1.000  C
  H60      1.0000 0.72080  0.58070  0.68290  Biso   1.000  H
  C175     1.0000 0.49068  0.31573  0.41972  Biso   1.000  C
  C176     1.0000 0.54585  0.83346  0.42935  Biso   1.000  C
  C177     1.0000 0.76373  0.55986  0.62532  Biso   1.000  C
  C178     1.0000 0.47884  0.37420  0.38176  Biso   1.000  C
  H61      1.0000 0.44230  0.39150  0.36880  Biso   1.000  H
  C179     1.0000 0.55441  0.77544  0.39444  Biso   1.000  C
  H62      1.0000 0.58980  0.76750  0.38840  Biso   1.000  H
  C180     1.0000 0.77504  0.50511  0.58993  Biso   1.000  C
  H63      1.0000 0.79970  0.51520  0.56800  Biso   1.000  H
  C181     1.0000 0.50964  0.46934  0.32195  Biso   1.000  C
  C182     1.0000 0.51672  0.67327  0.32717  Biso   1.000  C
  C183     1.0000 0.76127  0.37797  0.54791  Biso   1.000  C
  C184     1.0000 0.64897  0.29891  0.44730  Biso   1.000  C
  C185     1.0000 0.39206  0.80788  0.42528  Biso   1.000  C
  C186     1.0000 0.66035  0.46024  0.68969  Biso   1.000  C
  C187     1.0000 0.44473  0.28040  0.43709  Biso   1.000  C
  C188     1.0000 0.59190  0.88214  0.45337  Biso   1.000  C
  C189     1.0000 0.78817  0.63358  0.62612  Biso   1.000  C
  N19      1.0000 0.40804  0.25420  0.44993  Biso   1.000  N
  N20      1.0000 0.62860  0.92161  0.47152  Biso   1.000  N
  N21      1.0000 0.80734  0.69207  0.62586  Biso   1.000  N
  O73      1.0000 0.46009  0.49203  0.30864  Biso   1.000  O
  O74      1.0000 0.47219  0.65166  0.29458  Biso   1.000  O
  O75      1.0000 0.74535  0.31168  0.55169  Biso   1.000  O
  O76      1.0000 0.54977  0.49289  0.30409  Biso   1.000  O
  O77      1.0000 0.56502  0.65371  0.32569  Biso   1.000  O
  O78      1.0000 0.78588  0.39963  0.51216  Biso   1.000  O
  O79      1.0000 0.68730  0.33220  0.43224  Biso   1.000  O
  O80      1.0000 0.35412  0.76127  0.40356  Biso   1.000  O
  O81      1.0000 0.62665  0.40698  0.67561  Biso   1.000  O
  O82      1.0000 0.65447  0.24549  0.48026  Biso   1.000  O
  O83      1.0000 0.38353  0.86178  0.45436  Biso   1.000  O
  O84      1.0000 0.66177  0.50043  0.73152  Biso   1.000  O
  Dy15     1.0000 0.90838  0.07644  0.24179  Biso   1.000  Dy
  Dy16     1.0000 0.21556  0.69097  0.55628  Biso   1.000  Dy
  C190     1.0000 0.02257  0.90635  0.36347  Biso   1.000  C
  C191     1.0000 0.01004  0.23039  0.36917  Biso   1.000  C
  C192     1.0000 0.24955  0.93583  0.58744  Biso   1.000  C
  C193     1.0000 0.07725  0.88188  0.38431  Biso   1.000  C
  H64      1.0000 0.10620  0.90410  0.37210  Biso   1.000  H
  C194     1.0000 0.95774  0.23978  0.38029  Biso   1.000  C
  H65      1.0000 0.92820  0.20820  0.36420  Biso   1.000  H
  C195     1.0000 0.21212  0.92102  0.61952  Biso   1.000  C
  H66      1.0000 0.19410  0.87490  0.61700  Biso   1.000  H
  C196     1.0000 0.08990  0.82410  0.42358  Biso   1.000  C
  C197     1.0000 0.94973  0.29668  0.41568  Biso   1.000  C
  C198     1.0000 0.20165  0.97542  0.65549  Biso   1.000  C
  C199     1.0000 0.04562  0.79141  0.44094  Biso   1.000  C
  H67      1.0000 0.05290  0.75310  0.46680  Biso   1.000  H
  C200     1.0000 0.99347  0.34413  0.43972  Biso   1.000  C
  H68      1.0000 0.98780  0.38280  0.46260  Biso   1.000  H
  C201     1.0000 0.22757  0.04457  0.65861  Biso   1.000  C
  H69      1.0000 0.22080  0.08070  0.68290  Biso   1.000  H
  C202     1.0000 0.99068  0.81573  0.41972  Biso   1.000  C
  C203     1.0000 0.04585  0.33346  0.42935  Biso   1.000  C
  C204     1.0000 0.26373  0.05986  0.62532  Biso   1.000  C
  C205     1.0000 0.97884  0.87420  0.38176  Biso   1.000  C
  H70      1.0000 0.94230  0.89150  0.36880  Biso   1.000  H
  C206     1.0000 0.05441  0.27544  0.39444  Biso   1.000  C
  H71      1.0000 0.08980  0.26750  0.38840  Biso   1.000  H
  C207     1.0000 0.27504  0.00511  0.58993  Biso   1.000  C
  H72      1.0000 0.29970  0.01520  0.56800  Biso   1.000  H
  C208     1.0000 0.00964  0.96934  0.32195  Biso   1.000  C
  C209     1.0000 0.01672  0.17327  0.32717  Biso   1.000  C
  C210     1.0000 0.26127  0.87797  0.54791  Biso   1.000  C
  C211     1.0000 0.14897  0.79891  0.44730  Biso   1.000  C
  C212     1.0000 0.89206  0.30788  0.42528  Biso   1.000  C
  C213     1.0000 0.16035  0.96024  0.68969  Biso   1.000  C
  C214     1.0000 0.94473  0.78040  0.43709  Biso   1.000  C
  C215     1.0000 0.09190  0.38214  0.45337  Biso   1.000  C
  C216     1.0000 0.28817  0.13358  0.62612  Biso   1.000  C
  N22      1.0000 0.90804  0.75420  0.44993  Biso   1.000  N
  N23      1.0000 0.12860  0.42161  0.47152  Biso   1.000  N
  N24      1.0000 0.30734  0.19207  0.62586  Biso   1.000  N
  O85      1.0000 0.96009  0.99203  0.30864  Biso   1.000  O
  O86      1.0000 0.97219  0.15166  0.29458  Biso   1.000  O
  O87      1.0000 0.24535  0.81168  0.55169  Biso   1.000  O
  O88      1.0000 0.04977  0.99289  0.30409  Biso   1.000  O
  O89      1.0000 0.06502  0.15371  0.32569  Biso   1.000  O
  O90      1.0000 0.28588  0.89963  0.51216  Biso   1.000  O
  O91      1.0000 0.18730  0.83220  0.43224  Biso   1.000  O
  O92      1.0000 0.85412  0.26127  0.40356  Biso   1.000  O
  O93      1.0000 0.12665  0.90698  0.67561  Biso   1.000  O
  O94      1.0000 0.15447  0.74549  0.48026  Biso   1.000  O
  O95      1.0000 0.88353  0.36178  0.45436  Biso   1.000  O
  O96      1.0000 0.16177  0.00043  0.73152  Biso   1.000  O
