data_image0
_cell_length_a       10.5851
_cell_length_b       10.7883
_cell_length_c       12.8727
_cell_angle_alpha    73.878
_cell_angle_beta     67.677
_cell_angle_gamma    81.16

_symmetry_space_group_name_H-M    "P 1"
_symmetry_int_tables_number       1

loop_
  _symmetry_equiv_pos_as_xyz
  'x, y, z'

loop_
  _atom_site_label
  _atom_site_occupancy
  _atom_site_fract_x
  _atom_site_fract_y
  _atom_site_fract_z
  _atom_site_thermal_displace_type
  _atom_site_B_iso_or_equiv
  _atom_site_type_symbol
  Dy1      1.0000 0.06145  0.03411  0.31558  Biso   1.000  Dy
  C1       1.0000 0.96730  0.24210  0.49130  Biso   1.000  C
  C2       1.0000 0.03700  0.25630  0.15220  Biso   1.000  C
  C3       1.0000 0.75010  0.97980  0.54520  Biso   1.000  C
  C4       1.0000 0.98470  0.37620  0.49290  Biso   1.000  C
  C5       1.0000 0.01900  0.38250  0.07420  Biso   1.000  C
  C6       1.0000 0.61980  0.98990  0.52390  Biso   1.000  C
  C7       1.0000 0.06890  0.46200  0.39600  Biso   1.000  C
  C8       1.0000 0.12820  0.46460  0.01190  Biso   1.000  C
  C9       1.0000 0.49590  0.95490  0.61460  Biso   1.000  C
  C10      1.0000 0.91680  0.41620  0.59540  Biso   1.000  C
  H1       1.0000 0.86050  0.35970  0.65940  Biso   1.000  H
  C11      1.0000 0.89180  0.41860  0.06170  Biso   1.000  C
  H2       1.0000 0.81990  0.36410  0.10300  Biso   1.000  H
  C12      1.0000 0.62200  0.03480  0.41060  Biso   1.000  C
  H3       1.0000 0.70420  0.05840  0.35080  Biso   1.000  H
  N1       1.0000 0.13860  0.43090  0.29271  Biso   1.000  N
  H4       1.0000 0.18940  0.48620  0.23560  Biso   1.000  H
  H5       1.0000 0.13190  0.35600  0.28450  Biso   1.000  H
  N2       1.0000 0.25400  0.43510  0.01890  Biso   1.000  N
  H6       1.0000 0.31820  0.48770  0.97870  Biso   1.000  H
  H7       1.0000 0.26990  0.36370  0.06360  Biso   1.000  H
  N3       1.0000 0.48590  0.91000  0.72661  Biso   1.000  N
  H8       1.0000 0.40800  0.88890  0.77950  Biso   1.000  H
  H9       1.0000 0.55740  0.90260  0.74480  Biso   1.000  H
  O1       1.0000 0.02040  0.21249  0.39423  Biso   1.000  O
  O2       1.0000 0.15340  0.22296  0.16249  Biso   1.000  O
  O3       1.0000 0.86011  0.00018  0.46072  Biso   1.000  O
  O4       1.0000 0.90070  0.16798  0.58451  Biso   1.000  O
  O5       1.0000 0.93780  0.18387  0.20915  Biso   1.000  O
  O6       1.0000 0.74330  0.95087  0.65014  Biso   1.000  O
  Dy2      1.0000 0.93855  0.96589  0.68442  Biso   1.000  Dy
  C13      1.0000 0.03270  0.75790  0.50870  Biso   1.000  C
  C14      1.0000 0.96300  0.74370  0.84780  Biso   1.000  C
  C15      1.0000 0.24990  0.02020  0.45480  Biso   1.000  C
  C16      1.0000 0.01530  0.62380  0.50710  Biso   1.000  C
  C17      1.0000 0.98100  0.61750  0.92580  Biso   1.000  C
  C18      1.0000 0.38020  0.01010  0.47610  Biso   1.000  C
  C19      1.0000 0.93110  0.53800  0.60400  Biso   1.000  C
  C20      1.0000 0.87180  0.53540  0.98810  Biso   1.000  C
  C21      1.0000 0.50410  0.04510  0.38540  Biso   1.000  C
  C22      1.0000 0.08320  0.58380  0.40460  Biso   1.000  C
  H10      1.0000 0.13950  0.64030  0.34060  Biso   1.000  H
  C23      1.0000 0.10820  0.58140  0.93830  Biso   1.000  C
  H11      1.0000 0.18010  0.63590  0.89700  Biso   1.000  H
  C24      1.0000 0.37800  0.96520  0.58940  Biso   1.000  C
  H12      1.0000 0.29580  0.94160  0.64920  Biso   1.000  H
  N4       1.0000 0.86140  0.56910  0.70729  Biso   1.000  N
  H13      1.0000 0.81060  0.51380  0.76440  Biso   1.000  H
  H14      1.0000 0.86810  0.64400  0.71550  Biso   1.000  H
  N5       1.0000 0.74600  0.56490  0.98110  Biso   1.000  N
  H15      1.0000 0.68180  0.51230  0.02130  Biso   1.000  H
  H16      1.0000 0.73010  0.63630  0.93640  Biso   1.000  H
  N6       1.0000 0.51410  0.09000  0.27339  Biso   1.000  N
  H17      1.0000 0.59200  0.11110  0.22050  Biso   1.000  H
  H18      1.0000 0.44260  0.09740  0.25520  Biso   1.000  H
  O7       1.0000 0.97960  0.78751  0.60577  Biso   1.000  O
  O8       1.0000 0.84660  0.77704  0.83751  Biso   1.000  O
  O9       1.0000 0.13989  0.99982  0.53928  Biso   1.000  O
  O10      1.0000 0.09930  0.83202  0.41549  Biso   1.000  O
  O11      1.0000 0.06220  0.81613  0.79085  Biso   1.000  O
  O12      1.0000 0.25670  0.04913  0.34986  Biso   1.000  O
