data_image0
_cell_length_a       13.8848
_cell_length_b       7.9026
_cell_length_c       13.8314
_cell_angle_alpha    90
_cell_angle_beta     108.21
_cell_angle_gamma    90

_symmetry_space_group_name_H-M    "P 1"
_symmetry_int_tables_number       1

loop_
  _symmetry_equiv_pos_as_xyz
  'x, y, z'

loop_
  _atom_site_label
  _atom_site_occupancy
  _atom_site_fract_x
  _atom_site_fract_y
  _atom_site_fract_z
  _atom_site_thermal_displace_type
  _atom_site_B_iso_or_equiv
  _atom_site_type_symbol
  N1       1.0000 0.43660  0.17700  0.43630  Biso   1.000  N
  N2       1.0000 0.65600  0.94060  0.30180  Biso   1.000  N
  N3       1.0000 0.66100  0.41490  0.40300  Biso   1.000  N
  C1       1.0000 0.63340  0.20580  0.04010  Biso   1.000  C
  C2       1.0000 0.80750  0.04190  0.06140  Biso   1.000  C
  C3       1.0000 0.69000  0.13160  0.87610  Biso   1.000  C
  N4       1.0000 0.93660  0.67700  0.43630  Biso   1.000  N
  N5       1.0000 0.15600  0.44060  0.30180  Biso   1.000  N
  N6       1.0000 0.16100  0.91490  0.40300  Biso   1.000  N
  C4       1.0000 0.13340  0.70580  0.04010  Biso   1.000  C
  C5       1.0000 0.30750  0.54190  0.06140  Biso   1.000  C
  C6       1.0000 0.19000  0.63160  0.87610  Biso   1.000  C
  N7       1.0000 0.56340  0.17700  0.06370  Biso   1.000  N
  N8       1.0000 0.34400  0.94060  0.19820  Biso   1.000  N
  N9       1.0000 0.33900  0.41490  0.09700  Biso   1.000  N
  C7       1.0000 0.36660  0.20580  0.45990  Biso   1.000  C
  C8       1.0000 0.19250  0.04190  0.43860  Biso   1.000  C
  C9       1.0000 0.31000  0.13160  0.62390  Biso   1.000  C
  N10      1.0000 0.06340  0.67700  0.06370  Biso   1.000  N
  N11      1.0000 0.84400  0.44060  0.19820  Biso   1.000  N
  N12      1.0000 0.83900  0.91490  0.09700  Biso   1.000  N
  C10      1.0000 0.86660  0.70580  0.45990  Biso   1.000  C
  C11      1.0000 0.69250  0.54190  0.43860  Biso   1.000  C
  C12      1.0000 0.81000  0.63160  0.62390  Biso   1.000  C
  N13      1.0000 0.56340  0.82300  0.56370  Biso   1.000  N
  N14      1.0000 0.34400  0.05940  0.69820  Biso   1.000  N
  N15      1.0000 0.33900  0.58510  0.59700  Biso   1.000  N
  C13      1.0000 0.36660  0.79420  0.95990  Biso   1.000  C
  C14      1.0000 0.19250  0.95810  0.93860  Biso   1.000  C
  C15      1.0000 0.31000  0.86840  0.12390  Biso   1.000  C
  N16      1.0000 0.06340  0.32300  0.56370  Biso   1.000  N
  N17      1.0000 0.84400  0.55940  0.69820  Biso   1.000  N
  N18      1.0000 0.83900  0.08510  0.59700  Biso   1.000  N
  C16      1.0000 0.86660  0.29420  0.95990  Biso   1.000  C
  C17      1.0000 0.69250  0.45810  0.93860  Biso   1.000  C
  C18      1.0000 0.81000  0.36840  0.12390  Biso   1.000  C
  N19      1.0000 0.43660  0.82300  0.93630  Biso   1.000  N
  N20      1.0000 0.65600  0.05940  0.80180  Biso   1.000  N
  N21      1.0000 0.66100  0.58510  0.90300  Biso   1.000  N
  C19      1.0000 0.63340  0.79420  0.54010  Biso   1.000  C
  C20      1.0000 0.80750  0.95810  0.56140  Biso   1.000  C
  C21      1.0000 0.69000  0.86840  0.37610  Biso   1.000  C
  N22      1.0000 0.93660  0.32300  0.93630  Biso   1.000  N
  N23      1.0000 0.15600  0.55940  0.80180  Biso   1.000  N
  N24      1.0000 0.16100  0.08510  0.90300  Biso   1.000  N
  C22      1.0000 0.13340  0.29420  0.54010  Biso   1.000  C
  C23      1.0000 0.30750  0.45810  0.56140  Biso   1.000  C
  C24      1.0000 0.19000  0.36840  0.37610  Biso   1.000  C
  Rb1      1.0000 0.50000  0.21132  0.25000  Biso   1.000  Rb
  Rb2      1.0000 0.00000  0.71132  0.25000  Biso   1.000  Rb
  Rb3      1.0000 0.50000  0.78868  0.75000  Biso   1.000  Rb
  Rb4      1.0000 0.00000  0.28868  0.75000  Biso   1.000  Rb
  Co1      1.0000 0.75000  0.25000  0.00000  Biso   1.000  Co
  Co2      1.0000 0.25000  0.25000  0.50000  Biso   1.000  Co
  Co3      1.0000 0.25000  0.75000  0.00000  Biso   1.000  Co
  Co4      1.0000 0.75000  0.75000  0.50000  Biso   1.000  Co
