data_image0
_cell_length_a       14.0845
_cell_length_b       14.0845
_cell_length_c       44.2036
_cell_angle_alpha    90
_cell_angle_beta     90
_cell_angle_gamma    90

_symmetry_space_group_name_H-M    "P 1"
_symmetry_int_tables_number       1

loop_
  _symmetry_equiv_pos_as_xyz
  'x, y, z'

loop_
  _atom_site_label
  _atom_site_occupancy
  _atom_site_fract_x
  _atom_site_fract_y
  _atom_site_fract_z
  _atom_site_thermal_displace_type
  _atom_site_B_iso_or_equiv
  _atom_site_type_symbol
  N1       1.0000 0.61789  0.40450  0.24249  Biso   1.000  N
  N2       1.0000 0.69881  0.37295  0.22902  Biso   1.000  N
  N3       1.0000 0.57102  0.32172  0.20410  Biso   1.000  N
  N4       1.0000 0.63184  0.61952  0.34950  Biso   1.000  N
  N5       1.0000 0.71271  0.64707  0.36414  Biso   1.000  N
  N6       1.0000 0.58262  0.69003  0.39003  Biso   1.000  N
  C1       1.0000 0.66684  0.32415  0.20596  Biso   1.000  C
  H1       1.0000 0.70640  0.29390  0.19210  Biso   1.000  H
  C2       1.0000 0.54273  0.37301  0.22747  Biso   1.000  C
  H2       1.0000 0.47980  0.38510  0.23260  Biso   1.000  H
  C3       1.0000 0.62215  0.46067  0.26965  Biso   1.000  C
  C4       1.0000 0.62450  0.55967  0.26704  Biso   1.000  C
  C5       1.0000 0.62099  0.60843  0.23881  Biso   1.000  C
  H3       1.0000 0.61780  0.57400  0.22090  Biso   1.000  H
  C6       1.0000 0.62230  0.70483  0.23790  Biso   1.000  C
  H4       1.0000 0.61980  0.73580  0.21930  Biso   1.000  H
  C7       1.0000 0.62730  0.75895  0.26501  Biso   1.000  C
  H5       1.0000 0.62800  0.82490  0.26400  Biso   1.000  H
  C8       1.0000 0.63100  0.71560  0.29235  Biso   1.000  C
  H6       1.0000 0.63450  0.75190  0.30990  Biso   1.000  H
  C9       1.0000 0.62961  0.61448  0.29437  Biso   1.000  C
  C10      1.0000 0.63318  0.56576  0.32178  Biso   1.000  C
  C11      1.0000 0.63318  0.46694  0.32431  Biso   1.000  C
  C12      1.0000 0.63944  0.41883  0.35256  Biso   1.000  C
  H7       1.0000 0.64620  0.45370  0.37030  Biso   1.000  H
  C13      1.0000 0.63560  0.32250  0.35385  Biso   1.000  C
  H8       1.0000 0.64040  0.29200  0.37240  Biso   1.000  H
  C14      1.0000 0.62430  0.26821  0.32715  Biso   1.000  C
  H9       1.0000 0.61940  0.20250  0.32850  Biso   1.000  H
  C15      1.0000 0.62053  0.31100  0.29966  Biso   1.000  C
  H10      1.0000 0.61450  0.27420  0.28230  Biso   1.000  H
  C16      1.0000 0.62579  0.41206  0.29717  Biso   1.000  C
  C17      1.0000 0.67945  0.68918  0.38835  Biso   1.000  C
  H11      1.0000 0.71830  0.71610  0.40310  Biso   1.000  H
  C18      1.0000 0.55556  0.64521  0.36512  Biso   1.000  C
  H12      1.0000 0.49300  0.63360  0.35950  Biso   1.000  H
  N7       1.0000 0.11789  0.90450  0.74249  Biso   1.000  N
  N8       1.0000 0.19881  0.87295  0.72902  Biso   1.000  N
  N9       1.0000 0.07102  0.82172  0.70410  Biso   1.000  N
  N10      1.0000 0.13184  0.11952  0.84950  Biso   1.000  N
  N11      1.0000 0.21271  0.14707  0.86414  Biso   1.000  N
  N12      1.0000 0.08262  0.19003  0.89003  Biso   1.000  N
  C19      1.0000 0.16684  0.82415  0.70596  Biso   1.000  C
  H13      1.0000 0.20640  0.79390  0.69210  Biso   1.000  H
  C20      1.0000 0.04273  0.87301  0.72747  Biso   1.000  C
  H14      1.0000 0.97980  0.88510  0.73260  Biso   1.000  H
  C21      1.0000 0.12215  0.96067  0.76965  Biso   1.000  C
  C22      1.0000 0.12450  0.05967  0.76704  Biso   1.000  C
  C23      1.0000 0.12099  0.10843  0.73881  Biso   1.000  C
  H15      1.0000 0.11780  0.07400  0.72090  Biso   1.000  H
  C24      1.0000 0.12230  0.20483  0.73790  Biso   1.000  C
  H16      1.0000 0.11980  0.23580  0.71930  Biso   1.000  H
  C25      1.0000 0.12730  0.25895  0.76501  Biso   1.000  C
  H17      1.0000 0.12800  0.32490  0.76400  Biso   1.000  H
  C26      1.0000 0.13100  0.21560  0.79235  Biso   1.000  C
  H18      1.0000 0.13450  0.25190  0.80990  Biso   1.000  H
  C27      1.0000 0.12961  0.11448  0.79437  Biso   1.000  C
  C28      1.0000 0.13318  0.06576  0.82178  Biso   1.000  C
  C29      1.0000 0.13318  0.96694  0.82431  Biso   1.000  C
  C30      1.0000 0.13944  0.91883  0.85256  Biso   1.000  C
  H19      1.0000 0.14620  0.95370  0.87030  Biso   1.000  H
  C31      1.0000 0.13560  0.82250  0.85385  Biso   1.000  C
  H20      1.0000 0.14040  0.79200  0.87240  Biso   1.000  H
  C32      1.0000 0.12430  0.76821  0.82715  Biso   1.000  C
  H21      1.0000 0.11940  0.70250  0.82850  Biso   1.000  H
  C33      1.0000 0.12053  0.81100  0.79966  Biso   1.000  C
  H22      1.0000 0.11450  0.77420  0.78230  Biso   1.000  H
  C34      1.0000 0.12579  0.91206  0.79717  Biso   1.000  C
  C35      1.0000 0.17945  0.18918  0.88835  Biso   1.000  C
  H23      1.0000 0.21830  0.21610  0.90310  Biso   1.000  H
  C36      1.0000 0.05556  0.14521  0.86512  Biso   1.000  C
  H24      1.0000 0.99300  0.13360  0.85950  Biso   1.000  H
  N13      1.0000 0.88211  0.59550  0.74249  Biso   1.000  N
  N14      1.0000 0.80119  0.62705  0.72902  Biso   1.000  N
  N15      1.0000 0.92898  0.67828  0.70410  Biso   1.000  N
  N16      1.0000 0.86816  0.38048  0.84950  Biso   1.000  N
  N17      1.0000 0.78729  0.35293  0.86414  Biso   1.000  N
  N18      1.0000 0.91738  0.30997  0.89003  Biso   1.000  N
  C37      1.0000 0.83316  0.67585  0.70596  Biso   1.000  C
  H25      1.0000 0.79360  0.70610  0.69210  Biso   1.000  H
  C38      1.0000 0.95727  0.62699  0.72747  Biso   1.000  C
  H26      1.0000 0.02020  0.61490  0.73260  Biso   1.000  H
  C39      1.0000 0.87785  0.53933  0.76965  Biso   1.000  C
  C40      1.0000 0.87550  0.44033  0.76704  Biso   1.000  C
  C41      1.0000 0.87901  0.39157  0.73881  Biso   1.000  C
  H27      1.0000 0.88220  0.42600  0.72090  Biso   1.000  H
  C42      1.0000 0.87770  0.29517  0.73790  Biso   1.000  C
  H28      1.0000 0.88020  0.26420  0.71930  Biso   1.000  H
  C43      1.0000 0.87270  0.24105  0.76501  Biso   1.000  C
  H29      1.0000 0.87200  0.17510  0.76400  Biso   1.000  H
  C44      1.0000 0.86900  0.28440  0.79235  Biso   1.000  C
  H30      1.0000 0.86550  0.24810  0.80990  Biso   1.000  H
  C45      1.0000 0.87039  0.38552  0.79437  Biso   1.000  C
  C46      1.0000 0.86682  0.43424  0.82178  Biso   1.000  C
  C47      1.0000 0.86682  0.53306  0.82431  Biso   1.000  C
  C48      1.0000 0.86056  0.58117  0.85256  Biso   1.000  C
  H31      1.0000 0.85380  0.54630  0.87030  Biso   1.000  H
  C49      1.0000 0.86440  0.67750  0.85385  Biso   1.000  C
  H32      1.0000 0.85960  0.70800  0.87240  Biso   1.000  H
  C50      1.0000 0.87570  0.73179  0.82715  Biso   1.000  C
  H33      1.0000 0.88060  0.79750  0.82850  Biso   1.000  H
  C51      1.0000 0.87947  0.68900  0.79966  Biso   1.000  C
  H34      1.0000 0.88550  0.72580  0.78230  Biso   1.000  H
  C52      1.0000 0.87421  0.58794  0.79717  Biso   1.000  C
  C53      1.0000 0.82055  0.31082  0.88835  Biso   1.000  C
  H35      1.0000 0.78170  0.28390  0.90310  Biso   1.000  H
  C54      1.0000 0.94444  0.35479  0.86512  Biso   1.000  C
  H36      1.0000 0.00700  0.36640  0.85950  Biso   1.000  H
  N19      1.0000 0.38211  0.09550  0.24249  Biso   1.000  N
  N20      1.0000 0.30119  0.12705  0.22902  Biso   1.000  N
  N21      1.0000 0.42898  0.17828  0.20410  Biso   1.000  N
  N22      1.0000 0.36816  0.88048  0.34950  Biso   1.000  N
  N23      1.0000 0.28729  0.85293  0.36414  Biso   1.000  N
  N24      1.0000 0.41738  0.80997  0.39003  Biso   1.000  N
  C55      1.0000 0.33316  0.17585  0.20596  Biso   1.000  C
  H37      1.0000 0.29360  0.20610  0.19210  Biso   1.000  H
  C56      1.0000 0.45727  0.12699  0.22747  Biso   1.000  C
  H38      1.0000 0.52020  0.11490  0.23260  Biso   1.000  H
  C57      1.0000 0.37785  0.03933  0.26965  Biso   1.000  C
  C58      1.0000 0.37550  0.94033  0.26704  Biso   1.000  C
  C59      1.0000 0.37901  0.89157  0.23881  Biso   1.000  C
  H39      1.0000 0.38220  0.92600  0.22090  Biso   1.000  H
  C60      1.0000 0.37770  0.79517  0.23790  Biso   1.000  C
  H40      1.0000 0.38020  0.76420  0.21930  Biso   1.000  H
  C61      1.0000 0.37270  0.74105  0.26501  Biso   1.000  C
  H41      1.0000 0.37200  0.67510  0.26400  Biso   1.000  H
  C62      1.0000 0.36900  0.78440  0.29235  Biso   1.000  C
  H42      1.0000 0.36550  0.74810  0.30990  Biso   1.000  H
  C63      1.0000 0.37039  0.88552  0.29437  Biso   1.000  C
  C64      1.0000 0.36682  0.93424  0.32178  Biso   1.000  C
  C65      1.0000 0.36682  0.03306  0.32431  Biso   1.000  C
  C66      1.0000 0.36056  0.08117  0.35256  Biso   1.000  C
  H43      1.0000 0.35380  0.04630  0.37030  Biso   1.000  H
  C67      1.0000 0.36440  0.17750  0.35385  Biso   1.000  C
  H44      1.0000 0.35960  0.20800  0.37240  Biso   1.000  H
  C68      1.0000 0.37570  0.23179  0.32715  Biso   1.000  C
  H45      1.0000 0.38060  0.29750  0.32850  Biso   1.000  H
  C69      1.0000 0.37947  0.18900  0.29966  Biso   1.000  C
  H46      1.0000 0.38550  0.22580  0.28230  Biso   1.000  H
  C70      1.0000 0.37421  0.08794  0.29717  Biso   1.000  C
  C71      1.0000 0.32055  0.81082  0.38835  Biso   1.000  C
  H47      1.0000 0.28170  0.78390  0.40310  Biso   1.000  H
  C72      1.0000 0.44444  0.85479  0.36512  Biso   1.000  C
  H48      1.0000 0.50700  0.86640  0.35950  Biso   1.000  H
  N25      1.0000 0.34550  0.86789  0.49249  Biso   1.000  N
  N26      1.0000 0.37705  0.94881  0.47902  Biso   1.000  N
  N27      1.0000 0.42828  0.82102  0.45410  Biso   1.000  N
  N28      1.0000 0.13048  0.88184  0.59950  Biso   1.000  N
  N29      1.0000 0.10293  0.96271  0.61414  Biso   1.000  N
  N30      1.0000 0.05997  0.83262  0.64003  Biso   1.000  N
  C73      1.0000 0.42585  0.91684  0.45596  Biso   1.000  C
  H49      1.0000 0.45610  0.95640  0.44210  Biso   1.000  H
  C74      1.0000 0.37699  0.79273  0.47747  Biso   1.000  C
  H50      1.0000 0.36490  0.72980  0.48260  Biso   1.000  H
  C75      1.0000 0.28933  0.87215  0.51965  Biso   1.000  C
  C76      1.0000 0.19033  0.87450  0.51704  Biso   1.000  C
  C77      1.0000 0.14157  0.87099  0.48881  Biso   1.000  C
  H51      1.0000 0.17600  0.86780  0.47090  Biso   1.000  H
  C78      1.0000 0.04517  0.87230  0.48790  Biso   1.000  C
  H52      1.0000 0.01420  0.86980  0.46930  Biso   1.000  H
  C79      1.0000 0.99105  0.87730  0.51501  Biso   1.000  C
  H53      1.0000 0.92510  0.87800  0.51400  Biso   1.000  H
  C80      1.0000 0.03440  0.88100  0.54235  Biso   1.000  C
  H54      1.0000 0.99810  0.88450  0.55990  Biso   1.000  H
  C81      1.0000 0.13552  0.87961  0.54437  Biso   1.000  C
  C82      1.0000 0.18424  0.88318  0.57178  Biso   1.000  C
  C83      1.0000 0.28306  0.88318  0.57431  Biso   1.000  C
  C84      1.0000 0.33117  0.88944  0.60256  Biso   1.000  C
  H55      1.0000 0.29630  0.89620  0.62030  Biso   1.000  H
  C85      1.0000 0.42750  0.88560  0.60385  Biso   1.000  C
  H56      1.0000 0.45800  0.89040  0.62240  Biso   1.000  H
  C86      1.0000 0.48179  0.87430  0.57715  Biso   1.000  C
  H57      1.0000 0.54750  0.86940  0.57850  Biso   1.000  H
  C87      1.0000 0.43900  0.87053  0.54966  Biso   1.000  C
  H58      1.0000 0.47580  0.86450  0.53230  Biso   1.000  H
  C88      1.0000 0.33794  0.87579  0.54717  Biso   1.000  C
  C89      1.0000 0.06082  0.92945  0.63835  Biso   1.000  C
  H59      1.0000 0.03390  0.96830  0.65310  Biso   1.000  H
  C90      1.0000 0.10479  0.80556  0.61512  Biso   1.000  C
  H60      1.0000 0.11640  0.74300  0.60950  Biso   1.000  H
  N31      1.0000 0.84550  0.36789  0.99249  Biso   1.000  N
  N32      1.0000 0.87705  0.44881  0.97902  Biso   1.000  N
  N33      1.0000 0.92828  0.32102  0.95410  Biso   1.000  N
  N34      1.0000 0.63048  0.38184  0.09950  Biso   1.000  N
  N35      1.0000 0.60293  0.46271  0.11414  Biso   1.000  N
  N36      1.0000 0.55997  0.33262  0.14003  Biso   1.000  N
  C91      1.0000 0.92585  0.41684  0.95596  Biso   1.000  C
  H61      1.0000 0.95610  0.45640  0.94210  Biso   1.000  H
  C92      1.0000 0.87699  0.29273  0.97747  Biso   1.000  C
  H62      1.0000 0.86490  0.22980  0.98260  Biso   1.000  H
  C93      1.0000 0.78933  0.37215  0.01965  Biso   1.000  C
  C94      1.0000 0.69033  0.37450  0.01704  Biso   1.000  C
  C95      1.0000 0.64157  0.37099  0.98881  Biso   1.000  C
  H63      1.0000 0.67600  0.36780  0.97090  Biso   1.000  H
  C96      1.0000 0.54517  0.37230  0.98790  Biso   1.000  C
  H64      1.0000 0.51420  0.36980  0.96930  Biso   1.000  H
  C97      1.0000 0.49105  0.37730  0.01501  Biso   1.000  C
  H65      1.0000 0.42510  0.37800  0.01400  Biso   1.000  H
  C98      1.0000 0.53440  0.38100  0.04235  Biso   1.000  C
  H66      1.0000 0.49810  0.38450  0.05990  Biso   1.000  H
  C99      1.0000 0.63552  0.37961  0.04437  Biso   1.000  C
  C100     1.0000 0.68424  0.38318  0.07178  Biso   1.000  C
  C101     1.0000 0.78306  0.38318  0.07431  Biso   1.000  C
  C102     1.0000 0.83117  0.38944  0.10256  Biso   1.000  C
  H67      1.0000 0.79630  0.39620  0.12030  Biso   1.000  H
  C103     1.0000 0.92750  0.38560  0.10385  Biso   1.000  C
  H68      1.0000 0.95800  0.39040  0.12240  Biso   1.000  H
  C104     1.0000 0.98179  0.37430  0.07715  Biso   1.000  C
  H69      1.0000 0.04750  0.36940  0.07850  Biso   1.000  H
  C105     1.0000 0.93900  0.37053  0.04966  Biso   1.000  C
  H70      1.0000 0.97580  0.36450  0.03230  Biso   1.000  H
  C106     1.0000 0.83794  0.37579  0.04717  Biso   1.000  C
  C107     1.0000 0.56082  0.42945  0.13835  Biso   1.000  C
  H71      1.0000 0.53390  0.46830  0.15310  Biso   1.000  H
  C108     1.0000 0.60479  0.30556  0.11512  Biso   1.000  C
  H72      1.0000 0.61640  0.24300  0.10950  Biso   1.000  H
  N37      1.0000 0.15450  0.13211  0.99249  Biso   1.000  N
  N38      1.0000 0.12295  0.05119  0.97902  Biso   1.000  N
  N39      1.0000 0.07172  0.17898  0.95410  Biso   1.000  N
  N40      1.0000 0.36952  0.11816  0.09950  Biso   1.000  N
  N41      1.0000 0.39707  0.03729  0.11414  Biso   1.000  N
  N42      1.0000 0.44003  0.16738  0.14003  Biso   1.000  N
  C109     1.0000 0.07415  0.08316  0.95596  Biso   1.000  C
  H73      1.0000 0.04390  0.04360  0.94210  Biso   1.000  H
  C110     1.0000 0.12301  0.20727  0.97747  Biso   1.000  C
  H74      1.0000 0.13510  0.27020  0.98260  Biso   1.000  H
  C111     1.0000 0.21067  0.12785  0.01965  Biso   1.000  C
  C112     1.0000 0.30967  0.12550  0.01704  Biso   1.000  C
  C113     1.0000 0.35843  0.12901  0.98881  Biso   1.000  C
  H75      1.0000 0.32400  0.13220  0.97090  Biso   1.000  H
  C114     1.0000 0.45483  0.12770  0.98790  Biso   1.000  C
  H76      1.0000 0.48580  0.13020  0.96930  Biso   1.000  H
  C115     1.0000 0.50895  0.12270  0.01501  Biso   1.000  C
  H77      1.0000 0.57490  0.12200  0.01400  Biso   1.000  H
  C116     1.0000 0.46560  0.11900  0.04235  Biso   1.000  C
  H78      1.0000 0.50190  0.11550  0.05990  Biso   1.000  H
  C117     1.0000 0.36448  0.12039  0.04437  Biso   1.000  C
  C118     1.0000 0.31576  0.11682  0.07178  Biso   1.000  C
  C119     1.0000 0.21694  0.11682  0.07431  Biso   1.000  C
  C120     1.0000 0.16883  0.11056  0.10256  Biso   1.000  C
  H79      1.0000 0.20370  0.10380  0.12030  Biso   1.000  H
  C121     1.0000 0.07250  0.11440  0.10385  Biso   1.000  C
  H80      1.0000 0.04200  0.10960  0.12240  Biso   1.000  H
  C122     1.0000 0.01821  0.12570  0.07715  Biso   1.000  C
  H81      1.0000 0.95250  0.13060  0.07850  Biso   1.000  H
  C123     1.0000 0.06100  0.12947  0.04966  Biso   1.000  C
  H82      1.0000 0.02420  0.13550  0.03230  Biso   1.000  H
  C124     1.0000 0.16206  0.12421  0.04717  Biso   1.000  C
  C125     1.0000 0.43918  0.07055  0.13835  Biso   1.000  C
  H83      1.0000 0.46610  0.03170  0.15310  Biso   1.000  H
  C126     1.0000 0.39521  0.19444  0.11512  Biso   1.000  C
  H84      1.0000 0.38360  0.25700  0.10950  Biso   1.000  H
  N43      1.0000 0.65450  0.63211  0.49249  Biso   1.000  N
  N44      1.0000 0.62295  0.55119  0.47902  Biso   1.000  N
  N45      1.0000 0.57172  0.67898  0.45410  Biso   1.000  N
  N46      1.0000 0.86952  0.61816  0.59950  Biso   1.000  N
  N47      1.0000 0.89707  0.53729  0.61414  Biso   1.000  N
  N48      1.0000 0.94003  0.66738  0.64003  Biso   1.000  N
  C127     1.0000 0.57415  0.58316  0.45596  Biso   1.000  C
  H85      1.0000 0.54390  0.54360  0.44210  Biso   1.000  H
  C128     1.0000 0.62301  0.70727  0.47747  Biso   1.000  C
  H86      1.0000 0.63510  0.77020  0.48260  Biso   1.000  H
  C129     1.0000 0.71067  0.62785  0.51965  Biso   1.000  C
  C130     1.0000 0.80967  0.62550  0.51704  Biso   1.000  C
  C131     1.0000 0.85843  0.62901  0.48881  Biso   1.000  C
  H87      1.0000 0.82400  0.63220  0.47090  Biso   1.000  H
  C132     1.0000 0.95483  0.62770  0.48790  Biso   1.000  C
  H88      1.0000 0.98580  0.63020  0.46930  Biso   1.000  H
  C133     1.0000 0.00895  0.62270  0.51501  Biso   1.000  C
  H89      1.0000 0.07490  0.62200  0.51400  Biso   1.000  H
  C134     1.0000 0.96560  0.61900  0.54235  Biso   1.000  C
  H90      1.0000 0.00190  0.61550  0.55990  Biso   1.000  H
  C135     1.0000 0.86448  0.62039  0.54437  Biso   1.000  C
  C136     1.0000 0.81576  0.61682  0.57178  Biso   1.000  C
  C137     1.0000 0.71694  0.61682  0.57431  Biso   1.000  C
  C138     1.0000 0.66883  0.61056  0.60256  Biso   1.000  C
  H91      1.0000 0.70370  0.60380  0.62030  Biso   1.000  H
  C139     1.0000 0.57250  0.61440  0.60385  Biso   1.000  C
  H92      1.0000 0.54200  0.60960  0.62240  Biso   1.000  H
  C140     1.0000 0.51821  0.62570  0.57715  Biso   1.000  C
  H93      1.0000 0.45250  0.63060  0.57850  Biso   1.000  H
  C141     1.0000 0.56100  0.62947  0.54966  Biso   1.000  C
  H94      1.0000 0.52420  0.63550  0.53230  Biso   1.000  H
  C142     1.0000 0.66206  0.62421  0.54717  Biso   1.000  C
  C143     1.0000 0.93918  0.57055  0.63835  Biso   1.000  C
  H95      1.0000 0.96610  0.53170  0.65310  Biso   1.000  H
  C144     1.0000 0.89521  0.69444  0.61512  Biso   1.000  C
  H96      1.0000 0.88360  0.75700  0.60950  Biso   1.000  H
  Cu1      1.0000 0.50000  0.25000  0.17191  Biso   1.000  Cu
  Cu2      1.0000 0.00000  0.75000  0.67191  Biso   1.000  Cu
  Cu3      1.0000 0.50000  0.75000  0.42191  Biso   1.000  Cu
  Cu4      1.0000 0.00000  0.25000  0.92191  Biso   1.000  Cu
  N49      1.0000 0.38211  0.59550  0.75751  Biso   1.000  N
  N50      1.0000 0.30119  0.62705  0.77098  Biso   1.000  N
  N51      1.0000 0.42898  0.67828  0.79590  Biso   1.000  N
  N52      1.0000 0.36816  0.38048  0.65050  Biso   1.000  N
  N53      1.0000 0.28729  0.35293  0.63586  Biso   1.000  N
  N54      1.0000 0.41738  0.30997  0.60997  Biso   1.000  N
  C145     1.0000 0.33316  0.67585  0.79404  Biso   1.000  C
  H97      1.0000 0.29360  0.70610  0.80790  Biso   1.000  H
  C146     1.0000 0.45727  0.62699  0.77253  Biso   1.000  C
  H98      1.0000 0.52020  0.61490  0.76740  Biso   1.000  H
  C147     1.0000 0.37785  0.53933  0.73035  Biso   1.000  C
  C148     1.0000 0.37550  0.44033  0.73296  Biso   1.000  C
  C149     1.0000 0.37901  0.39157  0.76119  Biso   1.000  C
  H99      1.0000 0.38220  0.42600  0.77910  Biso   1.000  H
  C150     1.0000 0.37770  0.29517  0.76210  Biso   1.000  C
  H100     1.0000 0.38020  0.26420  0.78070  Biso   1.000  H
  C151     1.0000 0.37270  0.24105  0.73499  Biso   1.000  C
  H101     1.0000 0.37200  0.17510  0.73600  Biso   1.000  H
  C152     1.0000 0.36900  0.28440  0.70765  Biso   1.000  C
  H102     1.0000 0.36550  0.24810  0.69010  Biso   1.000  H
  C153     1.0000 0.37039  0.38552  0.70563  Biso   1.000  C
  C154     1.0000 0.36682  0.43424  0.67822  Biso   1.000  C
  C155     1.0000 0.36682  0.53306  0.67569  Biso   1.000  C
  C156     1.0000 0.36056  0.58117  0.64744  Biso   1.000  C
  H103     1.0000 0.35380  0.54630  0.62970  Biso   1.000  H
  C157     1.0000 0.36440  0.67750  0.64615  Biso   1.000  C
  H104     1.0000 0.35960  0.70800  0.62760  Biso   1.000  H
  C158     1.0000 0.37570  0.73179  0.67285  Biso   1.000  C
  H105     1.0000 0.38060  0.79750  0.67150  Biso   1.000  H
  C159     1.0000 0.37947  0.68900  0.70034  Biso   1.000  C
  H106     1.0000 0.38550  0.72580  0.71770  Biso   1.000  H
  C160     1.0000 0.37421  0.58794  0.70283  Biso   1.000  C
  C161     1.0000 0.32055  0.31082  0.61165  Biso   1.000  C
  H107     1.0000 0.28170  0.28390  0.59690  Biso   1.000  H
  C162     1.0000 0.44444  0.35479  0.63488  Biso   1.000  C
  H108     1.0000 0.50700  0.36640  0.64050  Biso   1.000  H
  N55      1.0000 0.88211  0.09550  0.25751  Biso   1.000  N
  N56      1.0000 0.80119  0.12705  0.27098  Biso   1.000  N
  N57      1.0000 0.92898  0.17828  0.29590  Biso   1.000  N
  N58      1.0000 0.86816  0.88048  0.15050  Biso   1.000  N
  N59      1.0000 0.78729  0.85293  0.13586  Biso   1.000  N
  N60      1.0000 0.91738  0.80997  0.10997  Biso   1.000  N
  C163     1.0000 0.83316  0.17585  0.29404  Biso   1.000  C
  H109     1.0000 0.79360  0.20610  0.30790  Biso   1.000  H
  C164     1.0000 0.95727  0.12699  0.27253  Biso   1.000  C
  H110     1.0000 0.02020  0.11490  0.26740  Biso   1.000  H
  C165     1.0000 0.87785  0.03933  0.23035  Biso   1.000  C
  C166     1.0000 0.87550  0.94033  0.23296  Biso   1.000  C
  C167     1.0000 0.87901  0.89157  0.26119  Biso   1.000  C
  H111     1.0000 0.88220  0.92600  0.27910  Biso   1.000  H
  C168     1.0000 0.87770  0.79517  0.26210  Biso   1.000  C
  H112     1.0000 0.88020  0.76420  0.28070  Biso   1.000  H
  C169     1.0000 0.87270  0.74105  0.23499  Biso   1.000  C
  H113     1.0000 0.87200  0.67510  0.23600  Biso   1.000  H
  C170     1.0000 0.86900  0.78440  0.20765  Biso   1.000  C
  H114     1.0000 0.86550  0.74810  0.19010  Biso   1.000  H
  C171     1.0000 0.87039  0.88552  0.20563  Biso   1.000  C
  C172     1.0000 0.86682  0.93424  0.17822  Biso   1.000  C
  C173     1.0000 0.86682  0.03306  0.17569  Biso   1.000  C
  C174     1.0000 0.86056  0.08117  0.14744  Biso   1.000  C
  H115     1.0000 0.85380  0.04630  0.12970  Biso   1.000  H
  C175     1.0000 0.86440  0.17750  0.14615  Biso   1.000  C
  H116     1.0000 0.85960  0.20800  0.12760  Biso   1.000  H
  C176     1.0000 0.87570  0.23179  0.17285  Biso   1.000  C
  H117     1.0000 0.88060  0.29750  0.17150  Biso   1.000  H
  C177     1.0000 0.87947  0.18900  0.20034  Biso   1.000  C
  H118     1.0000 0.88550  0.22580  0.21770  Biso   1.000  H
  C178     1.0000 0.87421  0.08794  0.20283  Biso   1.000  C
  C179     1.0000 0.82055  0.81082  0.11165  Biso   1.000  C
  H119     1.0000 0.78170  0.78390  0.09690  Biso   1.000  H
  C180     1.0000 0.94444  0.85479  0.13488  Biso   1.000  C
  H120     1.0000 0.00700  0.86640  0.14050  Biso   1.000  H
  N61      1.0000 0.11789  0.40450  0.25751  Biso   1.000  N
  N62      1.0000 0.19881  0.37295  0.27098  Biso   1.000  N
  N63      1.0000 0.07102  0.32172  0.29590  Biso   1.000  N
  N64      1.0000 0.13184  0.61952  0.15050  Biso   1.000  N
  N65      1.0000 0.21271  0.64707  0.13586  Biso   1.000  N
  N66      1.0000 0.08262  0.69003  0.10997  Biso   1.000  N
  C181     1.0000 0.16684  0.32415  0.29404  Biso   1.000  C
  H121     1.0000 0.20640  0.29390  0.30790  Biso   1.000  H
  C182     1.0000 0.04273  0.37301  0.27253  Biso   1.000  C
  H122     1.0000 0.97980  0.38510  0.26740  Biso   1.000  H
  C183     1.0000 0.12215  0.46067  0.23035  Biso   1.000  C
  C184     1.0000 0.12450  0.55967  0.23296  Biso   1.000  C
  C185     1.0000 0.12099  0.60843  0.26119  Biso   1.000  C
  H123     1.0000 0.11780  0.57400  0.27910  Biso   1.000  H
  C186     1.0000 0.12230  0.70483  0.26210  Biso   1.000  C
  H124     1.0000 0.11980  0.73580  0.28070  Biso   1.000  H
  C187     1.0000 0.12730  0.75895  0.23499  Biso   1.000  C
  H125     1.0000 0.12800  0.82490  0.23600  Biso   1.000  H
  C188     1.0000 0.13100  0.71560  0.20765  Biso   1.000  C
  H126     1.0000 0.13450  0.75190  0.19010  Biso   1.000  H
  C189     1.0000 0.12961  0.61448  0.20563  Biso   1.000  C
  C190     1.0000 0.13318  0.56576  0.17822  Biso   1.000  C
  C191     1.0000 0.13318  0.46694  0.17569  Biso   1.000  C
  C192     1.0000 0.13944  0.41883  0.14744  Biso   1.000  C
  H127     1.0000 0.14620  0.45370  0.12970  Biso   1.000  H
  C193     1.0000 0.13560  0.32250  0.14615  Biso   1.000  C
  H128     1.0000 0.14040  0.29200  0.12760  Biso   1.000  H
  C194     1.0000 0.12430  0.26821  0.17285  Biso   1.000  C
  H129     1.0000 0.11940  0.20250  0.17150  Biso   1.000  H
  C195     1.0000 0.12053  0.31100  0.20034  Biso   1.000  C
  H130     1.0000 0.11450  0.27420  0.21770  Biso   1.000  H
  C196     1.0000 0.12579  0.41206  0.20283  Biso   1.000  C
  C197     1.0000 0.17945  0.68918  0.11165  Biso   1.000  C
  H131     1.0000 0.21830  0.71610  0.09690  Biso   1.000  H
  C198     1.0000 0.05556  0.64521  0.13488  Biso   1.000  C
  H132     1.0000 0.99300  0.63360  0.14050  Biso   1.000  H
  N67      1.0000 0.61789  0.90450  0.75751  Biso   1.000  N
  N68      1.0000 0.69881  0.87295  0.77098  Biso   1.000  N
  N69      1.0000 0.57102  0.82172  0.79590  Biso   1.000  N
  N70      1.0000 0.63184  0.11952  0.65050  Biso   1.000  N
  N71      1.0000 0.71271  0.14707  0.63586  Biso   1.000  N
  N72      1.0000 0.58262  0.19003  0.60997  Biso   1.000  N
  C199     1.0000 0.66684  0.82415  0.79404  Biso   1.000  C
  H133     1.0000 0.70640  0.79390  0.80790  Biso   1.000  H
  C200     1.0000 0.54273  0.87301  0.77253  Biso   1.000  C
  H134     1.0000 0.47980  0.88510  0.76740  Biso   1.000  H
  C201     1.0000 0.62215  0.96067  0.73035  Biso   1.000  C
  C202     1.0000 0.62450  0.05967  0.73296  Biso   1.000  C
  C203     1.0000 0.62099  0.10843  0.76119  Biso   1.000  C
  H135     1.0000 0.61780  0.07400  0.77910  Biso   1.000  H
  C204     1.0000 0.62230  0.20483  0.76210  Biso   1.000  C
  H136     1.0000 0.61980  0.23580  0.78070  Biso   1.000  H
  C205     1.0000 0.62730  0.25895  0.73499  Biso   1.000  C
  H137     1.0000 0.62800  0.32490  0.73600  Biso   1.000  H
  C206     1.0000 0.63100  0.21560  0.70765  Biso   1.000  C
  H138     1.0000 0.63450  0.25190  0.69010  Biso   1.000  H
  C207     1.0000 0.62961  0.11448  0.70563  Biso   1.000  C
  C208     1.0000 0.63318  0.06576  0.67822  Biso   1.000  C
  C209     1.0000 0.63318  0.96694  0.67569  Biso   1.000  C
  C210     1.0000 0.63944  0.91883  0.64744  Biso   1.000  C
  H139     1.0000 0.64620  0.95370  0.62970  Biso   1.000  H
  C211     1.0000 0.63560  0.82250  0.64615  Biso   1.000  C
  H140     1.0000 0.64040  0.79200  0.62760  Biso   1.000  H
  C212     1.0000 0.62430  0.76821  0.67285  Biso   1.000  C
  H141     1.0000 0.61940  0.70250  0.67150  Biso   1.000  H
  C213     1.0000 0.62053  0.81100  0.70034  Biso   1.000  C
  H142     1.0000 0.61450  0.77420  0.71770  Biso   1.000  H
  C214     1.0000 0.62579  0.91206  0.70283  Biso   1.000  C
  C215     1.0000 0.67945  0.18918  0.61165  Biso   1.000  C
  H143     1.0000 0.71830  0.21610  0.59690  Biso   1.000  H
  C216     1.0000 0.55556  0.14521  0.63488  Biso   1.000  C
  H144     1.0000 0.49300  0.13360  0.64050  Biso   1.000  H
  N73      1.0000 0.65450  0.13211  0.50751  Biso   1.000  N
  N74      1.0000 0.62295  0.05119  0.52098  Biso   1.000  N
  N75      1.0000 0.57172  0.17898  0.54590  Biso   1.000  N
  N76      1.0000 0.86952  0.11816  0.40050  Biso   1.000  N
  N77      1.0000 0.89707  0.03729  0.38586  Biso   1.000  N
  N78      1.0000 0.94003  0.16738  0.35997  Biso   1.000  N
  C217     1.0000 0.57415  0.08316  0.54404  Biso   1.000  C
  H145     1.0000 0.54390  0.04360  0.55790  Biso   1.000  H
  C218     1.0000 0.62301  0.20727  0.52253  Biso   1.000  C
  H146     1.0000 0.63510  0.27020  0.51740  Biso   1.000  H
  C219     1.0000 0.71067  0.12785  0.48035  Biso   1.000  C
  C220     1.0000 0.80967  0.12550  0.48296  Biso   1.000  C
  C221     1.0000 0.85843  0.12901  0.51119  Biso   1.000  C
  H147     1.0000 0.82400  0.13220  0.52910  Biso   1.000  H
  C222     1.0000 0.95483  0.12770  0.51210  Biso   1.000  C
  H148     1.0000 0.98580  0.13020  0.53070  Biso   1.000  H
  C223     1.0000 0.00895  0.12270  0.48499  Biso   1.000  C
  H149     1.0000 0.07490  0.12200  0.48600  Biso   1.000  H
  C224     1.0000 0.96560  0.11900  0.45765  Biso   1.000  C
  H150     1.0000 0.00190  0.11550  0.44010  Biso   1.000  H
  C225     1.0000 0.86448  0.12039  0.45563  Biso   1.000  C
  C226     1.0000 0.81576  0.11682  0.42822  Biso   1.000  C
  C227     1.0000 0.71694  0.11682  0.42569  Biso   1.000  C
  C228     1.0000 0.66883  0.11056  0.39744  Biso   1.000  C
  H151     1.0000 0.70370  0.10380  0.37970  Biso   1.000  H
  C229     1.0000 0.57250  0.11440  0.39615  Biso   1.000  C
  H152     1.0000 0.54200  0.10960  0.37760  Biso   1.000  H
  C230     1.0000 0.51821  0.12570  0.42285  Biso   1.000  C
  H153     1.0000 0.45250  0.13060  0.42150  Biso   1.000  H
  C231     1.0000 0.56100  0.12947  0.45034  Biso   1.000  C
  H154     1.0000 0.52420  0.13550  0.46770  Biso   1.000  H
  C232     1.0000 0.66206  0.12421  0.45283  Biso   1.000  C
  C233     1.0000 0.93918  0.07055  0.36165  Biso   1.000  C
  H155     1.0000 0.96610  0.03170  0.34690  Biso   1.000  H
  C234     1.0000 0.89521  0.19444  0.38488  Biso   1.000  C
  H156     1.0000 0.88360  0.25700  0.39050  Biso   1.000  H
  N79      1.0000 0.15450  0.63211  0.00751  Biso   1.000  N
  N80      1.0000 0.12295  0.55119  0.02098  Biso   1.000  N
  N81      1.0000 0.07172  0.67898  0.04590  Biso   1.000  N
  N82      1.0000 0.36952  0.61816  0.90050  Biso   1.000  N
  N83      1.0000 0.39707  0.53729  0.88586  Biso   1.000  N
  N84      1.0000 0.44003  0.66738  0.85997  Biso   1.000  N
  C235     1.0000 0.07415  0.58316  0.04404  Biso   1.000  C
  H157     1.0000 0.04390  0.54360  0.05790  Biso   1.000  H
  C236     1.0000 0.12301  0.70727  0.02253  Biso   1.000  C
  H158     1.0000 0.13510  0.77020  0.01740  Biso   1.000  H
  C237     1.0000 0.21067  0.62785  0.98035  Biso   1.000  C
  C238     1.0000 0.30967  0.62550  0.98296  Biso   1.000  C
  C239     1.0000 0.35843  0.62901  0.01119  Biso   1.000  C
  H159     1.0000 0.32400  0.63220  0.02910  Biso   1.000  H
  C240     1.0000 0.45483  0.62770  0.01210  Biso   1.000  C
  H160     1.0000 0.48580  0.63020  0.03070  Biso   1.000  H
  C241     1.0000 0.50895  0.62270  0.98499  Biso   1.000  C
  H161     1.0000 0.57490  0.62200  0.98600  Biso   1.000  H
  C242     1.0000 0.46560  0.61900  0.95765  Biso   1.000  C
  H162     1.0000 0.50190  0.61550  0.94010  Biso   1.000  H
  C243     1.0000 0.36448  0.62039  0.95563  Biso   1.000  C
  C244     1.0000 0.31576  0.61682  0.92822  Biso   1.000  C
  C245     1.0000 0.21694  0.61682  0.92569  Biso   1.000  C
  C246     1.0000 0.16883  0.61056  0.89744  Biso   1.000  C
  H163     1.0000 0.20370  0.60380  0.87970  Biso   1.000  H
  C247     1.0000 0.07250  0.61440  0.89615  Biso   1.000  C
  H164     1.0000 0.04200  0.60960  0.87760  Biso   1.000  H
  C248     1.0000 0.01821  0.62570  0.92285  Biso   1.000  C
  H165     1.0000 0.95250  0.63060  0.92150  Biso   1.000  H
  C249     1.0000 0.06100  0.62947  0.95034  Biso   1.000  C
  H166     1.0000 0.02420  0.63550  0.96770  Biso   1.000  H
  C250     1.0000 0.16206  0.62421  0.95283  Biso   1.000  C
  C251     1.0000 0.43918  0.57055  0.86165  Biso   1.000  C
  H167     1.0000 0.46610  0.53170  0.84690  Biso   1.000  H
  C252     1.0000 0.39521  0.69444  0.88488  Biso   1.000  C
  H168     1.0000 0.38360  0.75700  0.89050  Biso   1.000  H
  N85      1.0000 0.84550  0.86789  0.00751  Biso   1.000  N
  N86      1.0000 0.87705  0.94881  0.02098  Biso   1.000  N
  N87      1.0000 0.92828  0.82102  0.04590  Biso   1.000  N
  N88      1.0000 0.63048  0.88184  0.90050  Biso   1.000  N
  N89      1.0000 0.60293  0.96271  0.88586  Biso   1.000  N
  N90      1.0000 0.55997  0.83262  0.85997  Biso   1.000  N
  C253     1.0000 0.92585  0.91684  0.04404  Biso   1.000  C
  H169     1.0000 0.95610  0.95640  0.05790  Biso   1.000  H
  C254     1.0000 0.87699  0.79273  0.02253  Biso   1.000  C
  H170     1.0000 0.86490  0.72980  0.01740  Biso   1.000  H
  C255     1.0000 0.78933  0.87215  0.98035  Biso   1.000  C
  C256     1.0000 0.69033  0.87450  0.98296  Biso   1.000  C
  C257     1.0000 0.64157  0.87099  0.01119  Biso   1.000  C
  H171     1.0000 0.67600  0.86780  0.02910  Biso   1.000  H
  C258     1.0000 0.54517  0.87230  0.01210  Biso   1.000  C
  H172     1.0000 0.51420  0.86980  0.03070  Biso   1.000  H
  C259     1.0000 0.49105  0.87730  0.98499  Biso   1.000  C
  H173     1.0000 0.42510  0.87800  0.98600  Biso   1.000  H
  C260     1.0000 0.53440  0.88100  0.95765  Biso   1.000  C
  H174     1.0000 0.49810  0.88450  0.94010  Biso   1.000  H
  C261     1.0000 0.63552  0.87961  0.95563  Biso   1.000  C
  C262     1.0000 0.68424  0.88318  0.92822  Biso   1.000  C
  C263     1.0000 0.78306  0.88318  0.92569  Biso   1.000  C
  C264     1.0000 0.83117  0.88944  0.89744  Biso   1.000  C
  H175     1.0000 0.79630  0.89620  0.87970  Biso   1.000  H
  C265     1.0000 0.92750  0.88560  0.89615  Biso   1.000  C
  H176     1.0000 0.95800  0.89040  0.87760  Biso   1.000  H
  C266     1.0000 0.98179  0.87430  0.92285  Biso   1.000  C
  H177     1.0000 0.04750  0.86940  0.92150  Biso   1.000  H
  C267     1.0000 0.93900  0.87053  0.95034  Biso   1.000  C
  H178     1.0000 0.97580  0.86450  0.96770  Biso   1.000  H
  C268     1.0000 0.83794  0.87579  0.95283  Biso   1.000  C
  C269     1.0000 0.56082  0.92945  0.86165  Biso   1.000  C
  H179     1.0000 0.53390  0.96830  0.84690  Biso   1.000  H
  C270     1.0000 0.60479  0.80556  0.88488  Biso   1.000  C
  H180     1.0000 0.61640  0.74300  0.89050  Biso   1.000  H
  N91      1.0000 0.34550  0.36789  0.50751  Biso   1.000  N
  N92      1.0000 0.37705  0.44881  0.52098  Biso   1.000  N
  N93      1.0000 0.42828  0.32102  0.54590  Biso   1.000  N
  N94      1.0000 0.13048  0.38184  0.40050  Biso   1.000  N
  N95      1.0000 0.10293  0.46271  0.38586  Biso   1.000  N
  N96      1.0000 0.05997  0.33262  0.35997  Biso   1.000  N
  C271     1.0000 0.42585  0.41684  0.54404  Biso   1.000  C
  H181     1.0000 0.45610  0.45640  0.55790  Biso   1.000  H
  C272     1.0000 0.37699  0.29273  0.52253  Biso   1.000  C
  H182     1.0000 0.36490  0.22980  0.51740  Biso   1.000  H
  C273     1.0000 0.28933  0.37215  0.48035  Biso   1.000  C
  C274     1.0000 0.19033  0.37450  0.48296  Biso   1.000  C
  C275     1.0000 0.14157  0.37099  0.51119  Biso   1.000  C
  H183     1.0000 0.17600  0.36780  0.52910  Biso   1.000  H
  C276     1.0000 0.04517  0.37230  0.51210  Biso   1.000  C
  H184     1.0000 0.01420  0.36980  0.53070  Biso   1.000  H
  C277     1.0000 0.99105  0.37730  0.48499  Biso   1.000  C
  H185     1.0000 0.92510  0.37800  0.48600  Biso   1.000  H
  C278     1.0000 0.03440  0.38100  0.45765  Biso   1.000  C
  H186     1.0000 0.99810  0.38450  0.44010  Biso   1.000  H
  C279     1.0000 0.13552  0.37961  0.45563  Biso   1.000  C
  C280     1.0000 0.18424  0.38318  0.42822  Biso   1.000  C
  C281     1.0000 0.28306  0.38318  0.42569  Biso   1.000  C
  C282     1.0000 0.33117  0.38944  0.39744  Biso   1.000  C
  H187     1.0000 0.29630  0.39620  0.37970  Biso   1.000  H
  C283     1.0000 0.42750  0.38560  0.39615  Biso   1.000  C
  H188     1.0000 0.45800  0.39040  0.37760  Biso   1.000  H
  C284     1.0000 0.48179  0.37430  0.42285  Biso   1.000  C
  H189     1.0000 0.54750  0.36940  0.42150  Biso   1.000  H
  C285     1.0000 0.43900  0.37053  0.45034  Biso   1.000  C
  H190     1.0000 0.47580  0.36450  0.46770  Biso   1.000  H
  C286     1.0000 0.33794  0.37579  0.45283  Biso   1.000  C
  C287     1.0000 0.06082  0.42945  0.36165  Biso   1.000  C
  H191     1.0000 0.03390  0.46830  0.34690  Biso   1.000  H
  C288     1.0000 0.10479  0.30556  0.38488  Biso   1.000  C
  H192     1.0000 0.11640  0.24300  0.39050  Biso   1.000  H
  Cu5      1.0000 0.50000  0.75000  0.82809  Biso   1.000  Cu
  Cu6      1.0000 0.00000  0.25000  0.32809  Biso   1.000  Cu
  Cu7      1.0000 0.50000  0.25000  0.57809  Biso   1.000  Cu
  Cu8      1.0000 0.00000  0.75000  0.07809  Biso   1.000  Cu
