data_image0
_cell_length_a       20.438
_cell_length_b       9.502
_cell_length_c       22.808
_cell_angle_alpha    90
_cell_angle_beta     90.136
_cell_angle_gamma    90

_symmetry_space_group_name_H-M    "P 1"
_symmetry_int_tables_number       1

loop_
  _symmetry_equiv_pos_as_xyz
  'x, y, z'

loop_
  _atom_site_label
  _atom_site_occupancy
  _atom_site_fract_x
  _atom_site_fract_y
  _atom_site_fract_z
  _atom_site_thermal_displace_type
  _atom_site_B_iso_or_equiv
  _atom_site_type_symbol
  Zn1      1.0000 0.10462  0.96359  0.02827  Biso   1.000  Zn
  Zn2      1.0000 0.15585  0.25422  0.87771  Biso   1.000  Zn
  Zn3      1.0000 0.21988  0.72571  0.82414  Biso   1.000  Zn
  P1       1.0000 0.02682  0.14430  0.93023  Biso   1.000  P
  P2       1.0000 0.12984  0.93010  0.89689  Biso   1.000  P
  P3       1.0000 0.23256  0.03430  0.10403  Biso   1.000  P
  P4       1.0000 0.29115  0.08010  0.22647  Biso   1.000  P
  O1       1.0000 0.04990  0.11470  0.99310  Biso   1.000  O
  O2       1.0000 0.95340  0.16320  0.92760  Biso   1.000  O
  O3       1.0000 0.06260  0.26970  0.90260  Biso   1.000  O
  O4       1.0000 0.00230  0.87500  0.89850  Biso   1.000  O
  H1       1.0000 0.98820  0.88430  0.93190  Biso   1.000  H
  O5       1.0000 0.17450  0.05700  0.89150  Biso   1.000  O
  O6       1.0000 0.14230  0.82100  0.85090  Biso   1.000  O
  O7       1.0000 0.13240  0.86530  0.95800  Biso   1.000  O
  O8       1.0000 0.17280  0.06560  0.06750  Biso   1.000  O
  O9       1.0000 0.29210  0.10810  0.07720  Biso   1.000  O
  O10      1.0000 0.24260  0.87770  0.11240  Biso   1.000  O
  O11      1.0000 0.35070  0.14570  0.19710  Biso   1.000  O
  O12      1.0000 0.27870  0.14700  0.28630  Biso   1.000  O
  O13      1.0000 0.29840  0.92090  0.23400  Biso   1.000  O
  O14      1.0000 0.22340  0.26470  0.16390  Biso   1.000  O
  H2       1.0000 0.21700  0.30910  0.19420  Biso   1.000  H
  C1       1.0000 0.04530  0.98930  0.88520  Biso   1.000  C
  C2       1.0000 0.03410  0.02740  0.81980  Biso   1.000  C
  H3       1.0000 0.04360  0.94710  0.79580  Biso   1.000  H
  H4       1.0000 0.06230  0.10390  0.80910  Biso   1.000  H
  H5       1.0000 0.98930  0.05490  0.81410  Biso   1.000  H
  C3       1.0000 0.22210  0.11750  0.17630  Biso   1.000  C
  C4       1.0000 0.15580  0.07160  0.20320  Biso   1.000  C
  H6       1.0000 0.15060  0.11470  0.24100  Biso   1.000  H
  H7       1.0000 0.15500  0.97110  0.20740  Biso   1.000  H
  H8       1.0000 0.12070  0.10070  0.17790  Biso   1.000  H
  Zn4      1.0000 0.60462  0.46359  0.02827  Biso   1.000  Zn
  Zn5      1.0000 0.65585  0.75422  0.87771  Biso   1.000  Zn
  Zn6      1.0000 0.71988  0.22571  0.82414  Biso   1.000  Zn
  P5       1.0000 0.52682  0.64430  0.93023  Biso   1.000  P
  P6       1.0000 0.62984  0.43010  0.89689  Biso   1.000  P
  P7       1.0000 0.73256  0.53430  0.10403  Biso   1.000  P
  P8       1.0000 0.79115  0.58010  0.22647  Biso   1.000  P
  O15      1.0000 0.54990  0.61470  0.99310  Biso   1.000  O
  O16      1.0000 0.45340  0.66320  0.92760  Biso   1.000  O
  O17      1.0000 0.56260  0.76970  0.90260  Biso   1.000  O
  O18      1.0000 0.50230  0.37500  0.89850  Biso   1.000  O
  H9       1.0000 0.48820  0.38430  0.93190  Biso   1.000  H
  O19      1.0000 0.67450  0.55700  0.89150  Biso   1.000  O
  O20      1.0000 0.64230  0.32100  0.85090  Biso   1.000  O
  O21      1.0000 0.63240  0.36530  0.95800  Biso   1.000  O
  O22      1.0000 0.67280  0.56560  0.06750  Biso   1.000  O
  O23      1.0000 0.79210  0.60810  0.07720  Biso   1.000  O
  O24      1.0000 0.74260  0.37770  0.11240  Biso   1.000  O
  O25      1.0000 0.85070  0.64570  0.19710  Biso   1.000  O
  O26      1.0000 0.77870  0.64700  0.28630  Biso   1.000  O
  O27      1.0000 0.79840  0.42090  0.23400  Biso   1.000  O
  O28      1.0000 0.72340  0.76470  0.16390  Biso   1.000  O
  H10      1.0000 0.71700  0.80910  0.19420  Biso   1.000  H
  C5       1.0000 0.54530  0.48930  0.88520  Biso   1.000  C
  C6       1.0000 0.53410  0.52740  0.81980  Biso   1.000  C
  H11      1.0000 0.54360  0.44710  0.79580  Biso   1.000  H
  H12      1.0000 0.56230  0.60390  0.80910  Biso   1.000  H
  H13      1.0000 0.48930  0.55490  0.81410  Biso   1.000  H
  C7       1.0000 0.72210  0.61750  0.17630  Biso   1.000  C
  C8       1.0000 0.65580  0.57160  0.20320  Biso   1.000  C
  H14      1.0000 0.65060  0.61470  0.24100  Biso   1.000  H
  H15      1.0000 0.65500  0.47110  0.20740  Biso   1.000  H
  H16      1.0000 0.62070  0.60070  0.17790  Biso   1.000  H
  Zn7      1.0000 0.89538  0.96359  0.47173  Biso   1.000  Zn
  Zn8      1.0000 0.84415  0.25422  0.62229  Biso   1.000  Zn
  Zn9      1.0000 0.78012  0.72571  0.67586  Biso   1.000  Zn
  P9       1.0000 0.97318  0.14430  0.56977  Biso   1.000  P
  P10      1.0000 0.87016  0.93010  0.60311  Biso   1.000  P
  P11      1.0000 0.76744  0.03430  0.39597  Biso   1.000  P
  P12      1.0000 0.70885  0.08010  0.27353  Biso   1.000  P
  O29      1.0000 0.95010  0.11470  0.50690  Biso   1.000  O
  O30      1.0000 0.04660  0.16320  0.57240  Biso   1.000  O
  O31      1.0000 0.93740  0.26970  0.59740  Biso   1.000  O
  O32      1.0000 0.99770  0.87500  0.60150  Biso   1.000  O
  H17      1.0000 0.01180  0.88430  0.56810  Biso   1.000  H
  O33      1.0000 0.82550  0.05700  0.60850  Biso   1.000  O
  O34      1.0000 0.85770  0.82100  0.64910  Biso   1.000  O
  O35      1.0000 0.86760  0.86530  0.54200  Biso   1.000  O
  O36      1.0000 0.82720  0.06560  0.43250  Biso   1.000  O
  O37      1.0000 0.70790  0.10810  0.42280  Biso   1.000  O
  O38      1.0000 0.75740  0.87770  0.38760  Biso   1.000  O
  O39      1.0000 0.64930  0.14570  0.30290  Biso   1.000  O
  O40      1.0000 0.72130  0.14700  0.21370  Biso   1.000  O
  O41      1.0000 0.70160  0.92090  0.26600  Biso   1.000  O
  O42      1.0000 0.77660  0.26470  0.33610  Biso   1.000  O
  H18      1.0000 0.78300  0.30910  0.30580  Biso   1.000  H
  C9       1.0000 0.95470  0.98930  0.61480  Biso   1.000  C
  C10      1.0000 0.96590  0.02740  0.68020  Biso   1.000  C
  H19      1.0000 0.95640  0.94710  0.70420  Biso   1.000  H
  H20      1.0000 0.93770  0.10390  0.69090  Biso   1.000  H
  H21      1.0000 0.01070  0.05490  0.68590  Biso   1.000  H
  C11      1.0000 0.77790  0.11750  0.32370  Biso   1.000  C
  C12      1.0000 0.84420  0.07160  0.29680  Biso   1.000  C
  H22      1.0000 0.84940  0.11470  0.25900  Biso   1.000  H
  H23      1.0000 0.84500  0.97110  0.29260  Biso   1.000  H
  H24      1.0000 0.87930  0.10070  0.32210  Biso   1.000  H
  Zn10     1.0000 0.39538  0.46359  0.47173  Biso   1.000  Zn
  Zn11     1.0000 0.34415  0.75422  0.62229  Biso   1.000  Zn
  Zn12     1.0000 0.28012  0.22571  0.67586  Biso   1.000  Zn
  P13      1.0000 0.47318  0.64430  0.56977  Biso   1.000  P
  P14      1.0000 0.37016  0.43010  0.60311  Biso   1.000  P
  P15      1.0000 0.26744  0.53430  0.39597  Biso   1.000  P
  P16      1.0000 0.20885  0.58010  0.27353  Biso   1.000  P
  O43      1.0000 0.45010  0.61470  0.50690  Biso   1.000  O
  O44      1.0000 0.54660  0.66320  0.57240  Biso   1.000  O
  O45      1.0000 0.43740  0.76970  0.59740  Biso   1.000  O
  O46      1.0000 0.49770  0.37500  0.60150  Biso   1.000  O
  H25      1.0000 0.51180  0.38430  0.56810  Biso   1.000  H
  O47      1.0000 0.32550  0.55700  0.60850  Biso   1.000  O
  O48      1.0000 0.35770  0.32100  0.64910  Biso   1.000  O
  O49      1.0000 0.36760  0.36530  0.54200  Biso   1.000  O
  O50      1.0000 0.32720  0.56560  0.43250  Biso   1.000  O
  O51      1.0000 0.20790  0.60810  0.42280  Biso   1.000  O
  O52      1.0000 0.25740  0.37770  0.38760  Biso   1.000  O
  O53      1.0000 0.14930  0.64570  0.30290  Biso   1.000  O
  O54      1.0000 0.22130  0.64700  0.21370  Biso   1.000  O
  O55      1.0000 0.20160  0.42090  0.26600  Biso   1.000  O
  O56      1.0000 0.27660  0.76470  0.33610  Biso   1.000  O
  H26      1.0000 0.28300  0.80910  0.30580  Biso   1.000  H
  C13      1.0000 0.45470  0.48930  0.61480  Biso   1.000  C
  C14      1.0000 0.46590  0.52740  0.68020  Biso   1.000  C
  H27      1.0000 0.45640  0.44710  0.70420  Biso   1.000  H
  H28      1.0000 0.43770  0.60390  0.69090  Biso   1.000  H
  H29      1.0000 0.51070  0.55490  0.68590  Biso   1.000  H
  C15      1.0000 0.27790  0.61750  0.32370  Biso   1.000  C
  C16      1.0000 0.34420  0.57160  0.29680  Biso   1.000  C
  H30      1.0000 0.34940  0.61470  0.25900  Biso   1.000  H
  H31      1.0000 0.34500  0.47110  0.29260  Biso   1.000  H
  H32      1.0000 0.37930  0.60070  0.32210  Biso   1.000  H
  Zn13     1.0000 0.89538  0.03641  0.97173  Biso   1.000  Zn
  Zn14     1.0000 0.84415  0.74578  0.12229  Biso   1.000  Zn
  Zn15     1.0000 0.78012  0.27429  0.17586  Biso   1.000  Zn
  P17      1.0000 0.97318  0.85570  0.06977  Biso   1.000  P
  P18      1.0000 0.87016  0.06990  0.10311  Biso   1.000  P
  P19      1.0000 0.76744  0.96570  0.89597  Biso   1.000  P
  P20      1.0000 0.70885  0.91990  0.77353  Biso   1.000  P
  O57      1.0000 0.95010  0.88530  0.00690  Biso   1.000  O
  O58      1.0000 0.04660  0.83680  0.07240  Biso   1.000  O
  O59      1.0000 0.93740  0.73030  0.09740  Biso   1.000  O
  O60      1.0000 0.99770  0.12500  0.10150  Biso   1.000  O
  H33      1.0000 0.01180  0.11570  0.06810  Biso   1.000  H
  O61      1.0000 0.82550  0.94300  0.10850  Biso   1.000  O
  O62      1.0000 0.85770  0.17900  0.14910  Biso   1.000  O
  O63      1.0000 0.86760  0.13470  0.04200  Biso   1.000  O
  O64      1.0000 0.82720  0.93440  0.93250  Biso   1.000  O
  O65      1.0000 0.70790  0.89190  0.92280  Biso   1.000  O
  O66      1.0000 0.75740  0.12230  0.88760  Biso   1.000  O
  O67      1.0000 0.64930  0.85430  0.80290  Biso   1.000  O
  O68      1.0000 0.72130  0.85300  0.71370  Biso   1.000  O
  O69      1.0000 0.70160  0.07910  0.76600  Biso   1.000  O
  O70      1.0000 0.77660  0.73530  0.83610  Biso   1.000  O
  H34      1.0000 0.78300  0.69090  0.80580  Biso   1.000  H
  C17      1.0000 0.95470  0.01070  0.11480  Biso   1.000  C
  C18      1.0000 0.96590  0.97260  0.18020  Biso   1.000  C
  H35      1.0000 0.95640  0.05290  0.20420  Biso   1.000  H
  H36      1.0000 0.93770  0.89610  0.19090  Biso   1.000  H
  H37      1.0000 0.01070  0.94510  0.18590  Biso   1.000  H
  C19      1.0000 0.77790  0.88250  0.82370  Biso   1.000  C
  C20      1.0000 0.84420  0.92840  0.79680  Biso   1.000  C
  H38      1.0000 0.84940  0.88530  0.75900  Biso   1.000  H
  H39      1.0000 0.84500  0.02890  0.79260  Biso   1.000  H
  H40      1.0000 0.87930  0.89930  0.82210  Biso   1.000  H
  Zn16     1.0000 0.39538  0.53641  0.97173  Biso   1.000  Zn
  Zn17     1.0000 0.34415  0.24578  0.12229  Biso   1.000  Zn
  Zn18     1.0000 0.28012  0.77429  0.17586  Biso   1.000  Zn
  P21      1.0000 0.47318  0.35570  0.06977  Biso   1.000  P
  P22      1.0000 0.37016  0.56990  0.10311  Biso   1.000  P
  P23      1.0000 0.26744  0.46570  0.89597  Biso   1.000  P
  P24      1.0000 0.20885  0.41990  0.77353  Biso   1.000  P
  O71      1.0000 0.45010  0.38530  0.00690  Biso   1.000  O
  O72      1.0000 0.54660  0.33680  0.07240  Biso   1.000  O
  O73      1.0000 0.43740  0.23030  0.09740  Biso   1.000  O
  O74      1.0000 0.49770  0.62500  0.10150  Biso   1.000  O
  H41      1.0000 0.51180  0.61570  0.06810  Biso   1.000  H
  O75      1.0000 0.32550  0.44300  0.10850  Biso   1.000  O
  O76      1.0000 0.35770  0.67900  0.14910  Biso   1.000  O
  O77      1.0000 0.36760  0.63470  0.04200  Biso   1.000  O
  O78      1.0000 0.32720  0.43440  0.93250  Biso   1.000  O
  O79      1.0000 0.20790  0.39190  0.92280  Biso   1.000  O
  O80      1.0000 0.25740  0.62230  0.88760  Biso   1.000  O
  O81      1.0000 0.14930  0.35430  0.80290  Biso   1.000  O
  O82      1.0000 0.22130  0.35300  0.71370  Biso   1.000  O
  O83      1.0000 0.20160  0.57910  0.76600  Biso   1.000  O
  O84      1.0000 0.27660  0.23530  0.83610  Biso   1.000  O
  H42      1.0000 0.28300  0.19090  0.80580  Biso   1.000  H
  C21      1.0000 0.45470  0.51070  0.11480  Biso   1.000  C
  C22      1.0000 0.46590  0.47260  0.18020  Biso   1.000  C
  H43      1.0000 0.45640  0.55290  0.20420  Biso   1.000  H
  H44      1.0000 0.43770  0.39610  0.19090  Biso   1.000  H
  H45      1.0000 0.51070  0.44510  0.18590  Biso   1.000  H
  C23      1.0000 0.27790  0.38250  0.82370  Biso   1.000  C
  C24      1.0000 0.34420  0.42840  0.79680  Biso   1.000  C
  H46      1.0000 0.34940  0.38530  0.75900  Biso   1.000  H
  H47      1.0000 0.34500  0.52890  0.79260  Biso   1.000  H
  H48      1.0000 0.37930  0.39930  0.82210  Biso   1.000  H
  Zn19     1.0000 0.10462  0.03641  0.52827  Biso   1.000  Zn
  Zn20     1.0000 0.15585  0.74578  0.37771  Biso   1.000  Zn
  Zn21     1.0000 0.21988  0.27429  0.32414  Biso   1.000  Zn
  P25      1.0000 0.02682  0.85570  0.43023  Biso   1.000  P
  P26      1.0000 0.12984  0.06990  0.39689  Biso   1.000  P
  P27      1.0000 0.23256  0.96570  0.60403  Biso   1.000  P
  P28      1.0000 0.29115  0.91990  0.72647  Biso   1.000  P
  O85      1.0000 0.04990  0.88530  0.49310  Biso   1.000  O
  O86      1.0000 0.95340  0.83680  0.42760  Biso   1.000  O
  O87      1.0000 0.06260  0.73030  0.40260  Biso   1.000  O
  O88      1.0000 0.00230  0.12500  0.39850  Biso   1.000  O
  H49      1.0000 0.98820  0.11570  0.43190  Biso   1.000  H
  O89      1.0000 0.17450  0.94300  0.39150  Biso   1.000  O
  O90      1.0000 0.14230  0.17900  0.35090  Biso   1.000  O
  O91      1.0000 0.13240  0.13470  0.45800  Biso   1.000  O
  O92      1.0000 0.17280  0.93440  0.56750  Biso   1.000  O
  O93      1.0000 0.29210  0.89190  0.57720  Biso   1.000  O
  O94      1.0000 0.24260  0.12230  0.61240  Biso   1.000  O
  O95      1.0000 0.35070  0.85430  0.69710  Biso   1.000  O
  O96      1.0000 0.27870  0.85300  0.78630  Biso   1.000  O
  O97      1.0000 0.29840  0.07910  0.73400  Biso   1.000  O
  O98      1.0000 0.22340  0.73530  0.66390  Biso   1.000  O
  H50      1.0000 0.21700  0.69090  0.69420  Biso   1.000  H
  C25      1.0000 0.04530  0.01070  0.38520  Biso   1.000  C
  C26      1.0000 0.03410  0.97260  0.31980  Biso   1.000  C
  H51      1.0000 0.04360  0.05290  0.29580  Biso   1.000  H
  H52      1.0000 0.06230  0.89610  0.30910  Biso   1.000  H
  H53      1.0000 0.98930  0.94510  0.31410  Biso   1.000  H
  C27      1.0000 0.22210  0.88250  0.67630  Biso   1.000  C
  C28      1.0000 0.15580  0.92840  0.70320  Biso   1.000  C
  H54      1.0000 0.15060  0.88530  0.74100  Biso   1.000  H
  H55      1.0000 0.15500  0.02890  0.70740  Biso   1.000  H
  H56      1.0000 0.12070  0.89930  0.67790  Biso   1.000  H
  Zn22     1.0000 0.60462  0.53641  0.52827  Biso   1.000  Zn
  Zn23     1.0000 0.65585  0.24578  0.37771  Biso   1.000  Zn
  Zn24     1.0000 0.71988  0.77429  0.32414  Biso   1.000  Zn
  P29      1.0000 0.52682  0.35570  0.43023  Biso   1.000  P
  P30      1.0000 0.62984  0.56990  0.39689  Biso   1.000  P
  P31      1.0000 0.73256  0.46570  0.60403  Biso   1.000  P
  P32      1.0000 0.79115  0.41990  0.72647  Biso   1.000  P
  O99      1.0000 0.54990  0.38530  0.49310  Biso   1.000  O
  O100     1.0000 0.45340  0.33680  0.42760  Biso   1.000  O
  O101     1.0000 0.56260  0.23030  0.40260  Biso   1.000  O
  O102     1.0000 0.50230  0.62500  0.39850  Biso   1.000  O
  H57      1.0000 0.48820  0.61570  0.43190  Biso   1.000  H
  O103     1.0000 0.67450  0.44300  0.39150  Biso   1.000  O
  O104     1.0000 0.64230  0.67900  0.35090  Biso   1.000  O
  O105     1.0000 0.63240  0.63470  0.45800  Biso   1.000  O
  O106     1.0000 0.67280  0.43440  0.56750  Biso   1.000  O
  O107     1.0000 0.79210  0.39190  0.57720  Biso   1.000  O
  O108     1.0000 0.74260  0.62230  0.61240  Biso   1.000  O
  O109     1.0000 0.85070  0.35430  0.69710  Biso   1.000  O
  O110     1.0000 0.77870  0.35300  0.78630  Biso   1.000  O
  O111     1.0000 0.79840  0.57910  0.73400  Biso   1.000  O
  O112     1.0000 0.72340  0.23530  0.66390  Biso   1.000  O
  H58      1.0000 0.71700  0.19090  0.69420  Biso   1.000  H
  C29      1.0000 0.54530  0.51070  0.38520  Biso   1.000  C
  C30      1.0000 0.53410  0.47260  0.31980  Biso   1.000  C
  H59      1.0000 0.54360  0.55290  0.29580  Biso   1.000  H
  H60      1.0000 0.56230  0.39610  0.30910  Biso   1.000  H
  H61      1.0000 0.48930  0.44510  0.31410  Biso   1.000  H
  C31      1.0000 0.72210  0.38250  0.67630  Biso   1.000  C
  C32      1.0000 0.65580  0.42840  0.70320  Biso   1.000  C
  H62      1.0000 0.65060  0.38530  0.74100  Biso   1.000  H
  H63      1.0000 0.65500  0.52890  0.70740  Biso   1.000  H
  H64      1.0000 0.62070  0.39930  0.67790  Biso   1.000  H
