data_image0
_cell_length_a       19.569
_cell_length_b       9.7034
_cell_length_c       14.927
_cell_angle_alpha    90
_cell_angle_beta     119.091
_cell_angle_gamma    90

_symmetry_space_group_name_H-M    "P 1"
_symmetry_int_tables_number       1

loop_
  _symmetry_equiv_pos_as_xyz
  'x, y, z'

loop_
  _atom_site_label
  _atom_site_occupancy
  _atom_site_fract_x
  _atom_site_fract_y
  _atom_site_fract_z
  _atom_site_thermal_displace_type
  _atom_site_B_iso_or_equiv
  _atom_site_type_symbol
  P1       1.0000 0.42252  0.26009  0.57430  Biso   1.000  P
  P2       1.0000 0.62654  0.70039  0.96368  Biso   1.000  P
  O1       1.0000 0.70970  0.64790  0.02780  Biso   1.000  O
  O2       1.0000 0.62830  0.85900  0.96630  Biso   1.000  O
  O3       1.0000 0.58960  0.65360  0.85270  Biso   1.000  O
  O4       1.0000 0.43700  0.33910  0.66830  Biso   1.000  O
  O5       1.0000 0.57860  0.65530  0.01430  Biso   1.000  O
  O6       1.0000 0.41780  0.35030  0.48940  Biso   1.000  O
  O7       1.0000 0.48220  0.14700  0.59780  Biso   1.000  O
  O8       1.0000 0.34200  0.19200  0.53210  Biso   1.000  O
  H1       1.0000 0.31040  0.24860  0.53100  Biso   1.000  H
  P3       1.0000 0.92252  0.76009  0.57430  Biso   1.000  P
  P4       1.0000 0.12654  0.20039  0.96368  Biso   1.000  P
  O9       1.0000 0.20970  0.14790  0.02780  Biso   1.000  O
  O10      1.0000 0.12830  0.35900  0.96630  Biso   1.000  O
  O11      1.0000 0.08960  0.15360  0.85270  Biso   1.000  O
  O12      1.0000 0.93700  0.83910  0.66830  Biso   1.000  O
  O13      1.0000 0.07860  0.15530  0.01430  Biso   1.000  O
  O14      1.0000 0.91780  0.85030  0.48940  Biso   1.000  O
  O15      1.0000 0.98220  0.64700  0.59780  Biso   1.000  O
  O16      1.0000 0.84200  0.69200  0.53210  Biso   1.000  O
  H2       1.0000 0.81040  0.74860  0.53100  Biso   1.000  H
  P5       1.0000 0.57748  0.26009  0.42570  Biso   1.000  P
  P6       1.0000 0.37346  0.70039  0.03632  Biso   1.000  P
  O17      1.0000 0.29030  0.64790  0.97220  Biso   1.000  O
  O18      1.0000 0.37170  0.85900  0.03370  Biso   1.000  O
  O19      1.0000 0.41040  0.65360  0.14730  Biso   1.000  O
  O20      1.0000 0.56300  0.33910  0.33170  Biso   1.000  O
  O21      1.0000 0.42140  0.65530  0.98570  Biso   1.000  O
  O22      1.0000 0.58220  0.35030  0.51060  Biso   1.000  O
  O23      1.0000 0.51780  0.14700  0.40220  Biso   1.000  O
  O24      1.0000 0.65800  0.19200  0.46790  Biso   1.000  O
  H3       1.0000 0.68960  0.24860  0.46900  Biso   1.000  H
  P7       1.0000 0.07748  0.76009  0.42570  Biso   1.000  P
  P8       1.0000 0.87346  0.20039  0.03632  Biso   1.000  P
  O25      1.0000 0.79030  0.14790  0.97220  Biso   1.000  O
  O26      1.0000 0.87170  0.35900  0.03370  Biso   1.000  O
  O27      1.0000 0.91040  0.15360  0.14730  Biso   1.000  O
  O28      1.0000 0.06300  0.83910  0.33170  Biso   1.000  O
  O29      1.0000 0.92140  0.15530  0.98570  Biso   1.000  O
  O30      1.0000 0.08220  0.85030  0.51060  Biso   1.000  O
  O31      1.0000 0.01780  0.64700  0.40220  Biso   1.000  O
  O32      1.0000 0.15800  0.69200  0.46790  Biso   1.000  O
  H4       1.0000 0.18960  0.74860  0.46900  Biso   1.000  H
  P9       1.0000 0.57748  0.73991  0.42570  Biso   1.000  P
  P10      1.0000 0.37346  0.29961  0.03632  Biso   1.000  P
  O33      1.0000 0.29030  0.35210  0.97220  Biso   1.000  O
  O34      1.0000 0.37170  0.14100  0.03370  Biso   1.000  O
  O35      1.0000 0.41040  0.34640  0.14730  Biso   1.000  O
  O36      1.0000 0.56300  0.66090  0.33170  Biso   1.000  O
  O37      1.0000 0.42140  0.34470  0.98570  Biso   1.000  O
  O38      1.0000 0.58220  0.64970  0.51060  Biso   1.000  O
  O39      1.0000 0.51780  0.85300  0.40220  Biso   1.000  O
  O40      1.0000 0.65800  0.80800  0.46790  Biso   1.000  O
  H5       1.0000 0.68960  0.75140  0.46900  Biso   1.000  H
  P11      1.0000 0.07748  0.23991  0.42570  Biso   1.000  P
  P12      1.0000 0.87346  0.79961  0.03632  Biso   1.000  P
  O41      1.0000 0.79030  0.85210  0.97220  Biso   1.000  O
  O42      1.0000 0.87170  0.64100  0.03370  Biso   1.000  O
  O43      1.0000 0.91040  0.84640  0.14730  Biso   1.000  O
  O44      1.0000 0.06300  0.16090  0.33170  Biso   1.000  O
  O45      1.0000 0.92140  0.84470  0.98570  Biso   1.000  O
  O46      1.0000 0.08220  0.14970  0.51060  Biso   1.000  O
  O47      1.0000 0.01780  0.35300  0.40220  Biso   1.000  O
  O48      1.0000 0.15800  0.30800  0.46790  Biso   1.000  O
  H6       1.0000 0.18960  0.25140  0.46900  Biso   1.000  H
  P13      1.0000 0.42252  0.73991  0.57430  Biso   1.000  P
  P14      1.0000 0.62654  0.29961  0.96368  Biso   1.000  P
  O49      1.0000 0.70970  0.35210  0.02780  Biso   1.000  O
  O50      1.0000 0.62830  0.14100  0.96630  Biso   1.000  O
  O51      1.0000 0.58960  0.34640  0.85270  Biso   1.000  O
  O52      1.0000 0.43700  0.66090  0.66830  Biso   1.000  O
  O53      1.0000 0.57860  0.34470  0.01430  Biso   1.000  O
  O54      1.0000 0.41780  0.64970  0.48940  Biso   1.000  O
  O55      1.0000 0.48220  0.85300  0.59780  Biso   1.000  O
  O56      1.0000 0.34200  0.80800  0.53210  Biso   1.000  O
  H7       1.0000 0.31040  0.75140  0.53100  Biso   1.000  H
  P15      1.0000 0.92252  0.23991  0.57430  Biso   1.000  P
  P16      1.0000 0.12654  0.79961  0.96368  Biso   1.000  P
  O57      1.0000 0.20970  0.85210  0.02780  Biso   1.000  O
  O58      1.0000 0.12830  0.64100  0.96630  Biso   1.000  O
  O59      1.0000 0.08960  0.84640  0.85270  Biso   1.000  O
  O60      1.0000 0.93700  0.16090  0.66830  Biso   1.000  O
  O61      1.0000 0.07860  0.84470  0.01430  Biso   1.000  O
  O62      1.0000 0.91780  0.14970  0.48940  Biso   1.000  O
  O63      1.0000 0.98220  0.35300  0.59780  Biso   1.000  O
  O64      1.0000 0.84200  0.30800  0.53210  Biso   1.000  O
  H8       1.0000 0.81040  0.25140  0.53100  Biso   1.000  H
  In1      1.0000 0.78206  0.50000  0.01392  Biso   1.000  In
  In2      1.0000 0.51224  0.50000  0.76073  Biso   1.000  In
  F1       1.0000 0.73430  0.50000  0.85670  Biso   1.000  F
  F2       1.0000 0.83670  0.50000  0.17950  Biso   1.000  F
  F3       1.0000 0.44680  0.50000  0.83810  Biso   1.000  F
  F4       1.0000 0.56190  0.50000  0.66210  Biso   1.000  F
  In3      1.0000 0.28206  0.00000  0.01392  Biso   1.000  In
  In4      1.0000 0.01224  0.00000  0.76073  Biso   1.000  In
  F5       1.0000 0.23430  0.00000  0.85670  Biso   1.000  F
  F6       1.0000 0.33670  0.00000  0.17950  Biso   1.000  F
  F7       1.0000 0.94680  0.00000  0.83810  Biso   1.000  F
  F8       1.0000 0.06190  0.00000  0.66210  Biso   1.000  F
  In5      1.0000 0.21794  0.50000  0.98608  Biso   1.000  In
  In6      1.0000 0.48776  0.50000  0.23927  Biso   1.000  In
  F9       1.0000 0.26570  0.50000  0.14330  Biso   1.000  F
  F10      1.0000 0.16330  0.50000  0.82050  Biso   1.000  F
  F11      1.0000 0.55320  0.50000  0.16190  Biso   1.000  F
  F12      1.0000 0.43810  0.50000  0.33790  Biso   1.000  F
  In7      1.0000 0.71794  0.00000  0.98608  Biso   1.000  In
  In8      1.0000 0.98776  0.00000  0.23927  Biso   1.000  In
  F13      1.0000 0.76570  0.00000  0.14330  Biso   1.000  F
  F14      1.0000 0.66330  0.00000  0.82050  Biso   1.000  F
  F15      1.0000 0.05320  0.00000  0.16190  Biso   1.000  F
  F16      1.0000 0.93810  0.00000  0.33790  Biso   1.000  F
  In9      1.0000 0.50000  0.50000  0.00000  Biso   1.000  In
  In10     1.0000 0.00000  0.00000  0.00000  Biso   1.000  In
  In11     1.0000 0.50000  0.50000  0.50000  Biso   1.000  In
  In12     1.0000 0.00000  0.00000  0.50000  Biso   1.000  In
  In13     1.0000 0.50000  0.00000  0.50000  Biso   1.000  In
  In14     1.0000 0.00000  0.50000  0.50000  Biso   1.000  In
