data_ILIFUE_clean
_audit_creation_date              2014-07-02
_audit_creation_method            'Materials Studio'
_symmetry_space_group_name_H-M    'P1'
_symmetry_Int_Tables_number       1
_symmetry_cell_setting            triclinic
loop_
_symmetry_equiv_pos_as_xyz
  x,y,z
_cell_length_a                    8.9427
_cell_length_b                    10.2880
_cell_length_c                    10.2880
_cell_angle_alpha                 120.0000
_cell_angle_beta                  90.0000
_cell_angle_gamma                 90.0000
loop_
_atom_site_label
_atom_site_type_symbol
_atom_site_fract_x
_atom_site_fract_y
_atom_site_fract_z
_atom_site_U_iso_or_equiv
_atom_site_adp_type
_atom_site_occupancy
Ce1    Ce    0.95012   0.33333   0.66666   0.01267  Uiso   1.00
Ce2    Ce    0.04988   0.66667   0.33334   0.01267  Uiso   1.00
H1     H     0.56240   0.47990   0.11510   0.01267  Uiso   1.00
H2     H     0.72070   0.62980   0.05890   0.01267  Uiso   1.00
H3     H     0.56240   0.63520   0.52010   0.01267  Uiso   1.00
H4     H     0.72070   0.42910   0.37020   0.01267  Uiso   1.00
H5     H     0.56240   0.88490   0.36480   0.01267  Uiso   1.00
H6     H     0.72070   0.94110   0.57090   0.01267  Uiso   1.00
H7     H     0.43760   0.52010   0.88490   0.01267  Uiso   1.00
H8     H     0.27930   0.37020   0.94110   0.01267  Uiso   1.00
H9     H     0.43760   0.36480   0.47990   0.01267  Uiso   1.00
H10    H     0.27930   0.57090   0.62980   0.01267  Uiso   1.00
H11    H     0.43760   0.11510   0.63520   0.01267  Uiso   1.00
H12    H     0.27930   0.05890   0.42910   0.01267  Uiso   1.00
C1     C     0.84380   0.44550   0.02530   0.01267  Uiso   1.00
C2     C     0.56660   0.46190   0.01220   0.01267  Uiso   1.00
C3     C     0.71560   0.52100   0.99110   0.01267  Uiso   1.00
C4     C     0.84380   0.57980   0.55450   0.01267  Uiso   1.00
C5     C     0.56660   0.55030   0.53810   0.01267  Uiso   1.00
C6     C     0.71560   0.47010   0.47900   0.01267  Uiso   1.00
C7     C     0.84380   0.97470   0.42020   0.01267  Uiso   1.00
C8     C     0.56660   0.98780   0.44970   0.01267  Uiso   1.00
C9     C     0.71560   0.00890   0.52990   0.01267  Uiso   1.00
C10    C     0.15620   0.55450   0.97470   0.01267  Uiso   1.00
C11    C     0.43340   0.53810   0.98780   0.01267  Uiso   1.00
C12    C     0.28440   0.47900   0.00890   0.01267  Uiso   1.00
C13    C     0.15620   0.42020   0.44550   0.01267  Uiso   1.00
C14    C     0.43340   0.44970   0.46190   0.01267  Uiso   1.00
C15    C     0.28440   0.52990   0.52100   0.01267  Uiso   1.00
C16    C     0.15620   0.02530   0.57980   0.01267  Uiso   1.00
C17    C     0.43340   0.01220   0.55030   0.01267  Uiso   1.00
C18    C     0.28440   0.99110   0.47010   0.01267  Uiso   1.00
O1     O     0.55910   0.30350   0.91110   0.01267  Uiso   1.00
O2     O     0.92180   0.35090   0.91720   0.01267  Uiso   1.00
O3     O     0.86290   0.48130   0.15950   0.01267  Uiso   1.00
O4     O     0.73460   0.48800   0.83900   0.01267  Uiso   1.00
O5     O     0.55910   0.60760   0.69650   0.01267  Uiso   1.00
O6     O     0.92180   0.56630   0.64910   0.01267  Uiso   1.00
O7     O     0.86290   0.67820   0.51870   0.01267  Uiso   1.00
O8     O     0.73460   0.35100   0.51200   0.01267  Uiso   1.00
O9     O     0.55910   0.08890   0.39240   0.01267  Uiso   1.00
O10    O     0.92180   0.08280   0.43370   0.01267  Uiso   1.00
O11    O     0.86290   0.84050   0.32180   0.01267  Uiso   1.00
O12    O     0.73460   0.16100   0.64900   0.01267  Uiso   1.00
O13    O     0.44090   0.69650   0.08890   0.01267  Uiso   1.00
O14    O     0.07820   0.64910   0.08280   0.01267  Uiso   1.00
O15    O     0.13710   0.51870   0.84050   0.01267  Uiso   1.00
O16    O     0.26540   0.51200   0.16100   0.01267  Uiso   1.00
O17    O     0.44090   0.39240   0.30350   0.01267  Uiso   1.00
O18    O     0.07820   0.43370   0.35090   0.01267  Uiso   1.00
O19    O     0.13710   0.32180   0.48130   0.01267  Uiso   1.00
O20    O     0.26540   0.64900   0.48800   0.01267  Uiso   1.00
O21    O     0.44090   0.91110   0.60760   0.01267  Uiso   1.00
O22    O     0.07820   0.91720   0.56630   0.01267  Uiso   1.00
O23    O     0.13710   0.15950   0.67820   0.01267  Uiso   1.00
O24    O     0.26540   0.83900   0.35100   0.01267  Uiso   1.00
