data_ILIFOY_clean
_audit_creation_date              2014-07-02
_audit_creation_method            'Materials Studio'
_symmetry_space_group_name_H-M    'P1'
_symmetry_Int_Tables_number       1
_symmetry_cell_setting            triclinic
loop_
_symmetry_equiv_pos_as_xyz
  x,y,z
_cell_length_a                    8.9709
_cell_length_b                    10.3426
_cell_length_c                    10.3426
_cell_angle_alpha                 120.0000
_cell_angle_beta                  90.0000
_cell_angle_gamma                 90.0000
loop_
_atom_site_label
_atom_site_type_symbol
_atom_site_fract_x
_atom_site_fract_y
_atom_site_fract_z
_atom_site_U_iso_or_equiv
_atom_site_adp_type
_atom_site_occupancy
La1    La    0.95064   0.33333   0.66666   0.01267  Uiso   1.00
La2    La    0.04936   0.66667   0.33334   0.01267  Uiso   1.00
H1     H     0.56330   0.47920   0.36500   0.01267  Uiso   1.00
H2     H     0.71990   0.62850   0.56980   0.01267  Uiso   1.00
H3     H     0.56330   0.88580   0.52080   0.01267  Uiso   1.00
H4     H     0.71990   0.94130   0.37150   0.01267  Uiso   1.00
H5     H     0.56330   0.63500   0.11420   0.01267  Uiso   1.00
H6     H     0.71990   0.43020   0.05870   0.01267  Uiso   1.00
H7     H     0.43670   0.52080   0.63500   0.01267  Uiso   1.00
H8     H     0.28010   0.37150   0.43020   0.01267  Uiso   1.00
H9     H     0.43670   0.11420   0.47920   0.01267  Uiso   1.00
H10    H     0.28010   0.05870   0.62850   0.01267  Uiso   1.00
H11    H     0.43670   0.36500   0.88580   0.01267  Uiso   1.00
H12    H     0.28010   0.56980   0.94130   0.01267  Uiso   1.00
C1     C     0.56720   0.46170   0.44970   0.01267  Uiso   1.00
C2     C     0.84270   0.44520   0.42010   0.01267  Uiso   1.00
C3     C     0.71490   0.52040   0.52960   0.01267  Uiso   1.00
C4     C     0.56720   0.98800   0.53830   0.01267  Uiso   1.00
C5     C     0.84270   0.97490   0.55480   0.01267  Uiso   1.00
C6     C     0.71490   0.00920   0.47960   0.01267  Uiso   1.00
C7     C     0.56720   0.55030   0.01200   0.01267  Uiso   1.00
C8     C     0.84270   0.57990   0.02510   0.01267  Uiso   1.00
C9     C     0.71490   0.47040   0.99080   0.01267  Uiso   1.00
C10    C     0.43280   0.53830   0.55030   0.01267  Uiso   1.00
C11    C     0.15730   0.55480   0.57990   0.01267  Uiso   1.00
C12    C     0.28510   0.47960   0.47040   0.01267  Uiso   1.00
C13    C     0.43280   0.01200   0.46170   0.01267  Uiso   1.00
C14    C     0.15730   0.02510   0.44520   0.01267  Uiso   1.00
C15    C     0.28510   0.99080   0.52040   0.01267  Uiso   1.00
C16    C     0.43280   0.44970   0.98800   0.01267  Uiso   1.00
C17    C     0.15730   0.42010   0.97490   0.01267  Uiso   1.00
C18    C     0.28510   0.52960   0.00920   0.01267  Uiso   1.00
O1     O     0.55870   0.30380   0.39320   0.01267  Uiso   1.00
O2     O     0.92050   0.35140   0.43360   0.01267  Uiso   1.00
O3     O     0.86160   0.48040   0.32170   0.01267  Uiso   1.00
O4     O     0.73400   0.48870   0.64890   0.01267  Uiso   1.00
O5     O     0.55870   0.08940   0.69620   0.01267  Uiso   1.00
O6     O     0.92050   0.08220   0.64860   0.01267  Uiso   1.00
O7     O     0.86160   0.84130   0.51960   0.01267  Uiso   1.00
O8     O     0.73400   0.16020   0.51130   0.01267  Uiso   1.00
O9     O     0.55870   0.60680   0.91060   0.01267  Uiso   1.00
O10    O     0.92050   0.56640   0.91780   0.01267  Uiso   1.00
O11    O     0.86160   0.67830   0.15870   0.01267  Uiso   1.00
O12    O     0.73400   0.35110   0.83980   0.01267  Uiso   1.00
O13    O     0.44130   0.69620   0.60680   0.01267  Uiso   1.00
O14    O     0.07950   0.64860   0.56640   0.01267  Uiso   1.00
O15    O     0.13840   0.51960   0.67830   0.01267  Uiso   1.00
O16    O     0.26600   0.51130   0.35110   0.01267  Uiso   1.00
O17    O     0.44130   0.91060   0.30380   0.01267  Uiso   1.00
O18    O     0.07950   0.91780   0.35140   0.01267  Uiso   1.00
O19    O     0.13840   0.15870   0.48040   0.01267  Uiso   1.00
O20    O     0.26600   0.83980   0.48870   0.01267  Uiso   1.00
O21    O     0.44130   0.39320   0.08940   0.01267  Uiso   1.00
O22    O     0.07950   0.43360   0.08220   0.01267  Uiso   1.00
O23    O     0.13840   0.32170   0.84130   0.01267  Uiso   1.00
O24    O     0.26600   0.64890   0.16020   0.01267  Uiso   1.00
