data_ILIGAL_clean
_audit_creation_date              2014-07-02
_audit_creation_method            'Materials Studio'
_symmetry_space_group_name_H-M    'P1'
_symmetry_Int_Tables_number       1
_symmetry_cell_setting            triclinic
loop_
_symmetry_equiv_pos_as_xyz
  x,y,z
_cell_length_a                    8.9084
_cell_length_b                    10.2182
_cell_length_c                    10.2182
_cell_angle_alpha                 120.0000
_cell_angle_beta                  90.0000
_cell_angle_gamma                 90.0000
loop_
_atom_site_label
_atom_site_type_symbol
_atom_site_fract_x
_atom_site_fract_y
_atom_site_fract_z
_atom_site_U_iso_or_equiv
_atom_site_adp_type
_atom_site_occupancy
Pr1    Pr    0.94804   0.33333   0.66666   0.01267  Uiso   1.00
Pr2    Pr    0.05196   0.66667   0.33334   0.01267  Uiso   1.00
H1     H     0.56300   0.48210   0.36480   0.01267  Uiso   1.00
H2     H     0.72200   0.63180   0.57270   0.01267  Uiso   1.00
H3     H     0.56300   0.88270   0.51790   0.01267  Uiso   1.00
H4     H     0.72200   0.94090   0.36820   0.01267  Uiso   1.00
H5     H     0.56300   0.63520   0.11730   0.01267  Uiso   1.00
H6     H     0.72200   0.42730   0.05910   0.01267  Uiso   1.00
H7     H     0.43700   0.51790   0.63520   0.01267  Uiso   1.00
H8     H     0.27800   0.36820   0.42730   0.01267  Uiso   1.00
H9     H     0.43700   0.11730   0.48210   0.01267  Uiso   1.00
H10    H     0.27800   0.05910   0.63180   0.01267  Uiso   1.00
H11    H     0.43700   0.36480   0.88270   0.01267  Uiso   1.00
H12    H     0.27800   0.57270   0.94090   0.01267  Uiso   1.00
C1     C     0.56730   0.46270   0.44940   0.01267  Uiso   1.00
C2     C     0.84490   0.44580   0.42080   0.01267  Uiso   1.00
C3     C     0.71660   0.52230   0.53130   0.01267  Uiso   1.00
C4     C     0.56730   0.98670   0.53730   0.01267  Uiso   1.00
C5     C     0.84490   0.97500   0.55420   0.01267  Uiso   1.00
C6     C     0.71660   0.00900   0.47770   0.01267  Uiso   1.00
C7     C     0.56730   0.55060   0.01330   0.01267  Uiso   1.00
C8     C     0.84490   0.57920   0.02500   0.01267  Uiso   1.00
C9     C     0.71660   0.46870   0.99100   0.01267  Uiso   1.00
C10    C     0.43270   0.53730   0.55060   0.01267  Uiso   1.00
C11    C     0.15510   0.55420   0.57920   0.01267  Uiso   1.00
C12    C     0.28340   0.47770   0.46870   0.01267  Uiso   1.00
C13    C     0.43270   0.01330   0.46270   0.01267  Uiso   1.00
C14    C     0.15510   0.02500   0.44580   0.01267  Uiso   1.00
C15    C     0.28340   0.99100   0.52230   0.01267  Uiso   1.00
C16    C     0.43270   0.44940   0.98670   0.01267  Uiso   1.00
C17    C     0.15510   0.42080   0.97500   0.01267  Uiso   1.00
C18    C     0.28340   0.53130   0.00900   0.01267  Uiso   1.00
O1     O     0.56050   0.30240   0.38990   0.01267  Uiso   1.00
O2     O     0.92260   0.34990   0.43410   0.01267  Uiso   1.00
O3     O     0.86710   0.48220   0.32250   0.01267  Uiso   1.00
O4     O     0.73530   0.48830   0.65080   0.01267  Uiso   1.00
O5     O     0.56050   0.08750   0.69760   0.01267  Uiso   1.00
O6     O     0.92260   0.08420   0.65010   0.01267  Uiso   1.00
O7     O     0.86710   0.84030   0.51780   0.01267  Uiso   1.00
O8     O     0.73530   0.16250   0.51170   0.01267  Uiso   1.00
O9     O     0.56050   0.61010   0.91250   0.01267  Uiso   1.00
O10    O     0.92260   0.56590   0.91580   0.01267  Uiso   1.00
O11    O     0.86710   0.67750   0.15970   0.01267  Uiso   1.00
O12    O     0.73530   0.34920   0.83750   0.01267  Uiso   1.00
O13    O     0.43950   0.69760   0.61010   0.01267  Uiso   1.00
O14    O     0.07740   0.65010   0.56590   0.01267  Uiso   1.00
O15    O     0.13290   0.51780   0.67750   0.01267  Uiso   1.00
O16    O     0.26470   0.51170   0.34920   0.01267  Uiso   1.00
O17    O     0.43950   0.91250   0.30240   0.01267  Uiso   1.00
O18    O     0.07740   0.91580   0.34990   0.01267  Uiso   1.00
O19    O     0.13290   0.15970   0.48220   0.01267  Uiso   1.00
O20    O     0.26470   0.83750   0.48830   0.01267  Uiso   1.00
O21    O     0.43950   0.38990   0.08750   0.01267  Uiso   1.00
O22    O     0.07740   0.43410   0.08420   0.01267  Uiso   1.00
O23    O     0.13290   0.32250   0.84030   0.01267  Uiso   1.00
O24    O     0.26470   0.65080   0.16250   0.01267  Uiso   1.00
