data_ILIGEP_clean
_audit_creation_date              2014-07-02
_audit_creation_method            'Materials Studio'
_symmetry_space_group_name_H-M    'P1'
_symmetry_Int_Tables_number       1
_symmetry_cell_setting            triclinic
loop_
_symmetry_equiv_pos_as_xyz
  x,y,z
_cell_length_a                    8.9021
_cell_length_b                    10.2151
_cell_length_c                    10.2151
_cell_angle_alpha                 120.0000
_cell_angle_beta                  90.0000
_cell_angle_gamma                 90.0000
loop_
_atom_site_label
_atom_site_type_symbol
_atom_site_fract_x
_atom_site_fract_y
_atom_site_fract_z
_atom_site_U_iso_or_equiv
_atom_site_adp_type
_atom_site_occupancy
Nd1    Nd    0.94886   0.33333   0.66666   0.01267  Uiso   1.00
Nd2    Nd    0.05114   0.66667   0.33334   0.01267  Uiso   1.00
H1     H     0.56290   0.48130   0.11680   0.01267  Uiso   1.00
H2     H     0.72200   0.63140   0.06020   0.01267  Uiso   1.00
H3     H     0.56290   0.63550   0.51870   0.01267  Uiso   1.00
H4     H     0.72200   0.42880   0.36860   0.01267  Uiso   1.00
H5     H     0.56290   0.88320   0.36450   0.01267  Uiso   1.00
H6     H     0.72200   0.93980   0.57120   0.01267  Uiso   1.00
H7     H     0.43710   0.51870   0.88320   0.01267  Uiso   1.00
H8     H     0.27800   0.36860   0.93980   0.01267  Uiso   1.00
H9     H     0.43710   0.36450   0.48130   0.01267  Uiso   1.00
H10    H     0.27800   0.57120   0.63140   0.01267  Uiso   1.00
H11    H     0.43710   0.11680   0.63550   0.01267  Uiso   1.00
H12    H     0.27800   0.06020   0.42880   0.01267  Uiso   1.00
C1     C     0.84500   0.44570   0.02530   0.01267  Uiso   1.00
C2     C     0.56740   0.46240   0.01290   0.01267  Uiso   1.00
C3     C     0.71680   0.52180   0.99160   0.01267  Uiso   1.00
C4     C     0.84500   0.57960   0.55430   0.01267  Uiso   1.00
C5     C     0.56740   0.55050   0.53760   0.01267  Uiso   1.00
C6     C     0.71680   0.46980   0.47820   0.01267  Uiso   1.00
C7     C     0.84500   0.97470   0.42040   0.01267  Uiso   1.00
C8     C     0.56740   0.98710   0.44950   0.01267  Uiso   1.00
C9     C     0.71680   0.00840   0.53020   0.01267  Uiso   1.00
C10    C     0.15500   0.55430   0.97470   0.01267  Uiso   1.00
C11    C     0.43260   0.53760   0.98710   0.01267  Uiso   1.00
C12    C     0.28320   0.47820   0.00840   0.01267  Uiso   1.00
C13    C     0.15500   0.42040   0.44570   0.01267  Uiso   1.00
C14    C     0.43260   0.44950   0.46240   0.01267  Uiso   1.00
C15    C     0.28320   0.53020   0.52180   0.01267  Uiso   1.00
C16    C     0.15500   0.02530   0.57960   0.01267  Uiso   1.00
C17    C     0.43260   0.01290   0.55050   0.01267  Uiso   1.00
C18    C     0.28320   0.99160   0.46980   0.01267  Uiso   1.00
O1     O     0.55920   0.30260   0.91220   0.01267  Uiso   1.00
O2     O     0.92360   0.35000   0.91600   0.01267  Uiso   1.00
O3     O     0.86460   0.48250   0.16090   0.01267  Uiso   1.00
O4     O     0.73670   0.48880   0.83840   0.01267  Uiso   1.00
O5     O     0.55920   0.60960   0.69740   0.01267  Uiso   1.00
O6     O     0.92360   0.56600   0.65000   0.01267  Uiso   1.00
O7     O     0.86460   0.67840   0.51750   0.01267  Uiso   1.00
O8     O     0.73670   0.34960   0.51120   0.01267  Uiso   1.00
O9     O     0.55920   0.08780   0.39040   0.01267  Uiso   1.00
O10    O     0.92360   0.08400   0.43400   0.01267  Uiso   1.00
O11    O     0.86460   0.83910   0.32160   0.01267  Uiso   1.00
O12    O     0.73670   0.16160   0.65040   0.01267  Uiso   1.00
O13    O     0.44080   0.69740   0.08780   0.01267  Uiso   1.00
O14    O     0.07640   0.65000   0.08400   0.01267  Uiso   1.00
O15    O     0.13540   0.51750   0.83910   0.01267  Uiso   1.00
O16    O     0.26330   0.51120   0.16160   0.01267  Uiso   1.00
O17    O     0.44080   0.39040   0.30260   0.01267  Uiso   1.00
O18    O     0.07640   0.43400   0.35000   0.01267  Uiso   1.00
O19    O     0.13540   0.32160   0.48250   0.01267  Uiso   1.00
O20    O     0.26330   0.65040   0.48880   0.01267  Uiso   1.00
O21    O     0.44080   0.91220   0.60960   0.01267  Uiso   1.00
O22    O     0.07640   0.91600   0.56600   0.01267  Uiso   1.00
O23    O     0.13540   0.16090   0.67840   0.01267  Uiso   1.00
O24    O     0.26330   0.83840   0.34960   0.01267  Uiso   1.00
