data_image0
_cell_length_a       27.7371
_cell_length_b       27.7371
_cell_length_c       9.6225
_cell_angle_alpha    90
_cell_angle_beta     90
_cell_angle_gamma    120

_symmetry_space_group_name_H-M    "P 1"
_symmetry_int_tables_number       1

loop_
  _symmetry_equiv_pos_as_xyz
  'x, y, z'

loop_
  _atom_site_label
  _atom_site_occupancy
  _atom_site_fract_x
  _atom_site_fract_y
  _atom_site_fract_z
  _atom_site_thermal_displace_type
  _atom_site_B_iso_or_equiv
  _atom_site_type_symbol
  N1       1.0000 0.79150  0.72070  0.89000  Biso   1.000  N
  N2       1.0000 0.80280  0.68070  0.84320  Biso   1.000  N
  N3       1.0000 0.76590  0.65340  0.05600  Biso   1.000  N
  N4       1.0000 0.81890  0.59660  0.79490  Biso   1.000  N
  N5       1.0000 0.71010  0.79250  0.24520  Biso   1.000  N
  C1       1.0000 0.83090  0.55620  0.76830  Biso   1.000  C
  H1       1.0000 0.84580  0.55550  0.68220  Biso   1.000  H
  C2       1.0000 0.82180  0.51580  0.86440  Biso   1.000  C
  H2       1.0000 0.83030  0.48830  0.84250  Biso   1.000  H
  C3       1.0000 0.80040  0.51600  0.99120  Biso   1.000  C
  H3       1.0000 0.79440  0.48890  0.05680  Biso   1.000  H
  C4       1.0000 0.78780  0.55680  0.02090  Biso   1.000  C
  H4       1.0000 0.77320  0.55790  0.10710  Biso   1.000  H
  C5       1.0000 0.79710  0.59590  0.92160  Biso   1.000  C
  C6       1.0000 0.78750  0.64290  0.94200  Biso   1.000  C
  C7       1.0000 0.76930  0.70180  0.01530  Biso   1.000  C
  C8       1.0000 0.74180  0.81340  0.13260  Biso   1.000  C
  H5       1.0000 0.75080  0.84890  0.10390  Biso   1.000  H
  C9       1.0000 0.76160  0.78590  0.05780  Biso   1.000  C
  H6       1.0000 0.78280  0.80220  0.97850  Biso   1.000  H
  C10      1.0000 0.75040  0.73350  0.09910  Biso   1.000  C
  C11      1.0000 0.71890  0.71200  0.21630  Biso   1.000  C
  H7       1.0000 0.71100  0.67730  0.24910  Biso   1.000  H
  C12      1.0000 0.69900  0.74190  0.28560  Biso   1.000  C
  H8       1.0000 0.67690  0.72610  0.36380  Biso   1.000  H
  N6       1.0000 0.45817  0.05403  0.22333  Biso   1.000  N
  N7       1.0000 0.46947  0.01403  0.17653  Biso   1.000  N
  N8       1.0000 0.43257  0.98673  0.38933  Biso   1.000  N
  N9       1.0000 0.48557  0.92993  0.12823  Biso   1.000  N
  N10      1.0000 0.37677  0.12583  0.57853  Biso   1.000  N
  C13      1.0000 0.49757  0.88953  0.10163  Biso   1.000  C
  H9       1.0000 0.51247  0.88883  0.01553  Biso   1.000  H
  C14      1.0000 0.48847  0.84913  0.19773  Biso   1.000  C
  H10      1.0000 0.49697  0.82163  0.17583  Biso   1.000  H
  C15      1.0000 0.46707  0.84933  0.32453  Biso   1.000  C
  H11      1.0000 0.46107  0.82223  0.39013  Biso   1.000  H
  C16      1.0000 0.45447  0.89013  0.35423  Biso   1.000  C
  H12      1.0000 0.43987  0.89123  0.44043  Biso   1.000  H
  C17      1.0000 0.46377  0.92923  0.25493  Biso   1.000  C
  C18      1.0000 0.45417  0.97623  0.27533  Biso   1.000  C
  C19      1.0000 0.43597  0.03513  0.34863  Biso   1.000  C
  C20      1.0000 0.40847  0.14673  0.46593  Biso   1.000  C
  H13      1.0000 0.41747  0.18223  0.43723  Biso   1.000  H
  C21      1.0000 0.42827  0.11923  0.39113  Biso   1.000  C
  H14      1.0000 0.44947  0.13553  0.31183  Biso   1.000  H
  C22      1.0000 0.41707  0.06683  0.43243  Biso   1.000  C
  C23      1.0000 0.38557  0.04533  0.54963  Biso   1.000  C
  H15      1.0000 0.37767  0.01063  0.58243  Biso   1.000  H
  C24      1.0000 0.36567  0.07523  0.61893  Biso   1.000  C
  H16      1.0000 0.34357  0.05943  0.69713  Biso   1.000  H
  N11      1.0000 0.12483  0.38737  0.55667  Biso   1.000  N
  N12      1.0000 0.13613  0.34737  0.50987  Biso   1.000  N
  N13      1.0000 0.09923  0.32007  0.72267  Biso   1.000  N
  N14      1.0000 0.15223  0.26327  0.46157  Biso   1.000  N
  N15      1.0000 0.04343  0.45917  0.91187  Biso   1.000  N
  C25      1.0000 0.16423  0.22287  0.43497  Biso   1.000  C
  H17      1.0000 0.17913  0.22217  0.34887  Biso   1.000  H
  C26      1.0000 0.15513  0.18247  0.53107  Biso   1.000  C
  H18      1.0000 0.16363  0.15497  0.50917  Biso   1.000  H
  C27      1.0000 0.13373  0.18267  0.65787  Biso   1.000  C
  H19      1.0000 0.12773  0.15557  0.72347  Biso   1.000  H
  C28      1.0000 0.12113  0.22347  0.68757  Biso   1.000  C
  H20      1.0000 0.10653  0.22457  0.77377  Biso   1.000  H
  C29      1.0000 0.13043  0.26257  0.58827  Biso   1.000  C
  C30      1.0000 0.12083  0.30957  0.60867  Biso   1.000  C
  C31      1.0000 0.10263  0.36847  0.68197  Biso   1.000  C
  C32      1.0000 0.07513  0.48007  0.79927  Biso   1.000  C
  H21      1.0000 0.08413  0.51557  0.77057  Biso   1.000  H
  C33      1.0000 0.09493  0.45257  0.72447  Biso   1.000  C
  H22      1.0000 0.11613  0.46887  0.64517  Biso   1.000  H
  C34      1.0000 0.08373  0.40017  0.76577  Biso   1.000  C
  C35      1.0000 0.05223  0.37867  0.88297  Biso   1.000  C
  H23      1.0000 0.04433  0.34397  0.91577  Biso   1.000  H
  C36      1.0000 0.03233  0.40857  0.95227  Biso   1.000  C
  H24      1.0000 0.01023  0.39277  0.03047  Biso   1.000  H
  N16      1.0000 0.27930  0.07080  0.89000  Biso   1.000  N
  N17      1.0000 0.31930  0.12210  0.84320  Biso   1.000  N
  N18      1.0000 0.34660  0.11250  0.05600  Biso   1.000  N
  N19      1.0000 0.40340  0.22230  0.79490  Biso   1.000  N
  N20      1.0000 0.20750  0.91760  0.24520  Biso   1.000  N
  C37      1.0000 0.44380  0.27470  0.76830  Biso   1.000  C
  H25      1.0000 0.44450  0.29030  0.68220  Biso   1.000  H
  C38      1.0000 0.48420  0.30600  0.86440  Biso   1.000  C
  H26      1.0000 0.51170  0.34200  0.84250  Biso   1.000  H
  C39      1.0000 0.48400  0.28440  0.99120  Biso   1.000  C
  H27      1.0000 0.51110  0.30550  0.05680  Biso   1.000  H
  C40      1.0000 0.44320  0.23100  0.02090  Biso   1.000  C
  H28      1.0000 0.44210  0.21530  0.10710  Biso   1.000  H
  C41      1.0000 0.40410  0.20120  0.92160  Biso   1.000  C
  C42      1.0000 0.35710  0.14460  0.94200  Biso   1.000  C
  C43      1.0000 0.29820  0.06750  0.01530  Biso   1.000  C
  C44      1.0000 0.18660  0.92840  0.13260  Biso   1.000  C
  H29      1.0000 0.15110  0.90190  0.10390  Biso   1.000  H
  C45      1.0000 0.21410  0.97570  0.05780  Biso   1.000  C
  H30      1.0000 0.19780  0.98060  0.97850  Biso   1.000  H
  C46      1.0000 0.26650  0.01690  0.09910  Biso   1.000  C
  C47      1.0000 0.28800  0.00690  0.21630  Biso   1.000  C
  H31      1.0000 0.32270  0.03370  0.24910  Biso   1.000  H
  C48      1.0000 0.25810  0.95710  0.28560  Biso   1.000  C
  H32      1.0000 0.27390  0.95080  0.36380  Biso   1.000  H
  N21      1.0000 0.94597  0.40413  0.22333  Biso   1.000  N
  N22      1.0000 0.98597  0.45543  0.17653  Biso   1.000  N
  N23      1.0000 0.01327  0.44583  0.38933  Biso   1.000  N
  N24      1.0000 0.07007  0.55563  0.12823  Biso   1.000  N
  N25      1.0000 0.87417  0.25093  0.57853  Biso   1.000  N
  C49      1.0000 0.11047  0.60803  0.10163  Biso   1.000  C
  H33      1.0000 0.11117  0.62363  0.01553  Biso   1.000  H
  C50      1.0000 0.15087  0.63933  0.19773  Biso   1.000  C
  H34      1.0000 0.17837  0.67533  0.17583  Biso   1.000  H
  C51      1.0000 0.15067  0.61773  0.32453  Biso   1.000  C
  H35      1.0000 0.17777  0.63883  0.39013  Biso   1.000  H
  C52      1.0000 0.10987  0.56433  0.35423  Biso   1.000  C
  H36      1.0000 0.10877  0.54863  0.44043  Biso   1.000  H
  C53      1.0000 0.07077  0.53453  0.25493  Biso   1.000  C
  C54      1.0000 0.02377  0.47793  0.27533  Biso   1.000  C
  C55      1.0000 0.96487  0.40083  0.34863  Biso   1.000  C
  C56      1.0000 0.85327  0.26173  0.46593  Biso   1.000  C
  H37      1.0000 0.81777  0.23523  0.43723  Biso   1.000  H
  C57      1.0000 0.88077  0.30903  0.39113  Biso   1.000  C
  H38      1.0000 0.86447  0.31393  0.31183  Biso   1.000  H
  C58      1.0000 0.93317  0.35023  0.43243  Biso   1.000  C
  C59      1.0000 0.95467  0.34023  0.54963  Biso   1.000  C
  H39      1.0000 0.98937  0.36703  0.58243  Biso   1.000  H
  C60      1.0000 0.92477  0.29043  0.61893  Biso   1.000  C
  H40      1.0000 0.94057  0.28413  0.69713  Biso   1.000  H
  N26      1.0000 0.61263  0.73747  0.55667  Biso   1.000  N
  N27      1.0000 0.65263  0.78877  0.50987  Biso   1.000  N
  N28      1.0000 0.67993  0.77917  0.72267  Biso   1.000  N
  N29      1.0000 0.73673  0.88897  0.46157  Biso   1.000  N
  N30      1.0000 0.54083  0.58427  0.91187  Biso   1.000  N
  C61      1.0000 0.77713  0.94137  0.43497  Biso   1.000  C
  H41      1.0000 0.77783  0.95697  0.34887  Biso   1.000  H
  C62      1.0000 0.81753  0.97267  0.53107  Biso   1.000  C
  H42      1.0000 0.84503  0.00867  0.50917  Biso   1.000  H
  C63      1.0000 0.81733  0.95107  0.65787  Biso   1.000  C
  H43      1.0000 0.84443  0.97217  0.72347  Biso   1.000  H
  C64      1.0000 0.77653  0.89767  0.68757  Biso   1.000  C
  H44      1.0000 0.77543  0.88197  0.77377  Biso   1.000  H
  C65      1.0000 0.73743  0.86787  0.58827  Biso   1.000  C
  C66      1.0000 0.69043  0.81127  0.60867  Biso   1.000  C
  C67      1.0000 0.63153  0.73417  0.68197  Biso   1.000  C
  C68      1.0000 0.51993  0.59507  0.79927  Biso   1.000  C
  H45      1.0000 0.48443  0.56857  0.77057  Biso   1.000  H
  C69      1.0000 0.54743  0.64237  0.72447  Biso   1.000  C
  H46      1.0000 0.53113  0.64727  0.64517  Biso   1.000  H
  C70      1.0000 0.59983  0.68357  0.76577  Biso   1.000  C
  C71      1.0000 0.62133  0.67357  0.88297  Biso   1.000  C
  H47      1.0000 0.65603  0.70037  0.91577  Biso   1.000  H
  C72      1.0000 0.59143  0.62377  0.95227  Biso   1.000  C
  H48      1.0000 0.60723  0.61747  0.03047  Biso   1.000  H
  N31      1.0000 0.92920  0.20850  0.89000  Biso   1.000  N
  N32      1.0000 0.87790  0.19720  0.84320  Biso   1.000  N
  N33      1.0000 0.88750  0.23410  0.05600  Biso   1.000  N
  N34      1.0000 0.77770  0.18110  0.79490  Biso   1.000  N
  N35      1.0000 0.08240  0.28990  0.24520  Biso   1.000  N
  C73      1.0000 0.72530  0.16910  0.76830  Biso   1.000  C
  H49      1.0000 0.70970  0.15420  0.68220  Biso   1.000  H
  C74      1.0000 0.69400  0.17820  0.86440  Biso   1.000  C
  H50      1.0000 0.65800  0.16970  0.84250  Biso   1.000  H
  C75      1.0000 0.71560  0.19960  0.99120  Biso   1.000  C
  H51      1.0000 0.69450  0.20560  0.05680  Biso   1.000  H
  C76      1.0000 0.76900  0.21220  0.02090  Biso   1.000  C
  H52      1.0000 0.78470  0.22680  0.10710  Biso   1.000  H
  C77      1.0000 0.79880  0.20290  0.92160  Biso   1.000  C
  C78      1.0000 0.85540  0.21250  0.94200  Biso   1.000  C
  C79      1.0000 0.93250  0.23070  0.01530  Biso   1.000  C
  C80      1.0000 0.07160  0.25820  0.13260  Biso   1.000  C
  H53      1.0000 0.09810  0.24920  0.10390  Biso   1.000  H
  C81      1.0000 0.02430  0.23840  0.05780  Biso   1.000  C
  H54      1.0000 0.01940  0.21720  0.97850  Biso   1.000  H
  C82      1.0000 0.98310  0.24960  0.09910  Biso   1.000  C
  C83      1.0000 0.99310  0.28110  0.21630  Biso   1.000  C
  H55      1.0000 0.96630  0.28900  0.24910  Biso   1.000  H
  C84      1.0000 0.04290  0.30100  0.28560  Biso   1.000  C
  H56      1.0000 0.04920  0.32310  0.36380  Biso   1.000  H
  N36      1.0000 0.59587  0.54183  0.22333  Biso   1.000  N
  N37      1.0000 0.54457  0.53053  0.17653  Biso   1.000  N
  N38      1.0000 0.55417  0.56743  0.38933  Biso   1.000  N
  N39      1.0000 0.44437  0.51443  0.12823  Biso   1.000  N
  N40      1.0000 0.74907  0.62323  0.57853  Biso   1.000  N
  C85      1.0000 0.39197  0.50243  0.10163  Biso   1.000  C
  H57      1.0000 0.37637  0.48753  0.01553  Biso   1.000  H
  C86      1.0000 0.36067  0.51153  0.19773  Biso   1.000  C
  H58      1.0000 0.32467  0.50303  0.17583  Biso   1.000  H
  C87      1.0000 0.38227  0.53293  0.32453  Biso   1.000  C
  H59      1.0000 0.36117  0.53893  0.39013  Biso   1.000  H
  C88      1.0000 0.43567  0.54553  0.35423  Biso   1.000  C
  H60      1.0000 0.45137  0.56013  0.44043  Biso   1.000  H
  C89      1.0000 0.46547  0.53623  0.25493  Biso   1.000  C
  C90      1.0000 0.52207  0.54583  0.27533  Biso   1.000  C
  C91      1.0000 0.59917  0.56403  0.34863  Biso   1.000  C
  C92      1.0000 0.73827  0.59153  0.46593  Biso   1.000  C
  H61      1.0000 0.76477  0.58253  0.43723  Biso   1.000  H
  C93      1.0000 0.69097  0.57173  0.39113  Biso   1.000  C
  H62      1.0000 0.68607  0.55053  0.31183  Biso   1.000  H
  C94      1.0000 0.64977  0.58293  0.43243  Biso   1.000  C
  C95      1.0000 0.65977  0.61443  0.54963  Biso   1.000  C
  H63      1.0000 0.63297  0.62233  0.58243  Biso   1.000  H
  C96      1.0000 0.70957  0.63433  0.61893  Biso   1.000  C
  H64      1.0000 0.71587  0.65643  0.69713  Biso   1.000  H
  N41      1.0000 0.26253  0.87517  0.55667  Biso   1.000  N
  N42      1.0000 0.21123  0.86387  0.50987  Biso   1.000  N
  N43      1.0000 0.22083  0.90077  0.72267  Biso   1.000  N
  N44      1.0000 0.11103  0.84777  0.46157  Biso   1.000  N
  N45      1.0000 0.41573  0.95657  0.91187  Biso   1.000  N
  C97      1.0000 0.05863  0.83577  0.43497  Biso   1.000  C
  H65      1.0000 0.04303  0.82087  0.34887  Biso   1.000  H
  C98      1.0000 0.02733  0.84487  0.53107  Biso   1.000  C
  H66      1.0000 0.99133  0.83637  0.50917  Biso   1.000  H
  C99      1.0000 0.04893  0.86627  0.65787  Biso   1.000  C
  H67      1.0000 0.02783  0.87227  0.72347  Biso   1.000  H
  C100     1.0000 0.10233  0.87887  0.68757  Biso   1.000  C
  H68      1.0000 0.11803  0.89347  0.77377  Biso   1.000  H
  C101     1.0000 0.13213  0.86957  0.58827  Biso   1.000  C
  C102     1.0000 0.18873  0.87917  0.60867  Biso   1.000  C
  C103     1.0000 0.26583  0.89737  0.68197  Biso   1.000  C
  C104     1.0000 0.40493  0.92487  0.79927  Biso   1.000  C
  H69      1.0000 0.43143  0.91587  0.77057  Biso   1.000  H
  C105     1.0000 0.35763  0.90507  0.72447  Biso   1.000  C
  H70      1.0000 0.35273  0.88387  0.64517  Biso   1.000  H
  C106     1.0000 0.31643  0.91627  0.76577  Biso   1.000  C
  C107     1.0000 0.32643  0.94777  0.88297  Biso   1.000  C
  H71      1.0000 0.29963  0.95567  0.91577  Biso   1.000  H
  C108     1.0000 0.37623  0.96767  0.95227  Biso   1.000  C
  H72      1.0000 0.38253  0.98977  0.03047  Biso   1.000  H
  N46      1.0000 0.20850  0.27930  0.11000  Biso   1.000  N
  N47      1.0000 0.19720  0.31930  0.15680  Biso   1.000  N
  N48      1.0000 0.23410  0.34660  0.94400  Biso   1.000  N
  N49      1.0000 0.18110  0.40340  0.20510  Biso   1.000  N
  N50      1.0000 0.28990  0.20750  0.75480  Biso   1.000  N
  C109     1.0000 0.16910  0.44380  0.23170  Biso   1.000  C
  H73      1.0000 0.15420  0.44450  0.31780  Biso   1.000  H
  C110     1.0000 0.17820  0.48420  0.13560  Biso   1.000  C
  H74      1.0000 0.16970  0.51170  0.15750  Biso   1.000  H
  C111     1.0000 0.19960  0.48400  0.00880  Biso   1.000  C
  H75      1.0000 0.20560  0.51110  0.94320  Biso   1.000  H
  C112     1.0000 0.21220  0.44320  0.97910  Biso   1.000  C
  H76      1.0000 0.22680  0.44210  0.89290  Biso   1.000  H
  C113     1.0000 0.20290  0.40410  0.07840  Biso   1.000  C
  C114     1.0000 0.21250  0.35710  0.05800  Biso   1.000  C
  C115     1.0000 0.23070  0.29820  0.98470  Biso   1.000  C
  C116     1.0000 0.25820  0.18660  0.86740  Biso   1.000  C
  H77      1.0000 0.24920  0.15110  0.89610  Biso   1.000  H
  C117     1.0000 0.23840  0.21410  0.94220  Biso   1.000  C
  H78      1.0000 0.21720  0.19780  0.02150  Biso   1.000  H
  C118     1.0000 0.24960  0.26650  0.90090  Biso   1.000  C
  C119     1.0000 0.28110  0.28800  0.78370  Biso   1.000  C
  H79      1.0000 0.28900  0.32270  0.75090  Biso   1.000  H
  C120     1.0000 0.30100  0.25810  0.71440  Biso   1.000  C
  H80      1.0000 0.32310  0.27390  0.63620  Biso   1.000  H
  N51      1.0000 0.87517  0.61263  0.44333  Biso   1.000  N
  N52      1.0000 0.86387  0.65263  0.49013  Biso   1.000  N
  N53      1.0000 0.90077  0.67993  0.27733  Biso   1.000  N
  N54      1.0000 0.84777  0.73673  0.53843  Biso   1.000  N
  N55      1.0000 0.95657  0.54083  0.08813  Biso   1.000  N
  C121     1.0000 0.83577  0.77713  0.56503  Biso   1.000  C
  H81      1.0000 0.82087  0.77783  0.65113  Biso   1.000  H
  C122     1.0000 0.84487  0.81753  0.46893  Biso   1.000  C
  H82      1.0000 0.83637  0.84503  0.49083  Biso   1.000  H
  C123     1.0000 0.86627  0.81733  0.34213  Biso   1.000  C
  H83      1.0000 0.87227  0.84443  0.27653  Biso   1.000  H
  C124     1.0000 0.87887  0.77653  0.31243  Biso   1.000  C
  H84      1.0000 0.89347  0.77543  0.22623  Biso   1.000  H
  C125     1.0000 0.86957  0.73743  0.41173  Biso   1.000  C
  C126     1.0000 0.87917  0.69043  0.39133  Biso   1.000  C
  C127     1.0000 0.89737  0.63153  0.31803  Biso   1.000  C
  C128     1.0000 0.92487  0.51993  0.20073  Biso   1.000  C
  H85      1.0000 0.91587  0.48443  0.22943  Biso   1.000  H
  C129     1.0000 0.90507  0.54743  0.27553  Biso   1.000  C
  H86      1.0000 0.88387  0.53113  0.35483  Biso   1.000  H
  C130     1.0000 0.91627  0.59983  0.23423  Biso   1.000  C
  C131     1.0000 0.94777  0.62133  0.11703  Biso   1.000  C
  H87      1.0000 0.95567  0.65603  0.08423  Biso   1.000  H
  C132     1.0000 0.96767  0.59143  0.04773  Biso   1.000  C
  H88      1.0000 0.98977  0.60723  0.96953  Biso   1.000  H
  N56      1.0000 0.54183  0.94597  0.77667  Biso   1.000  N
  N57      1.0000 0.53053  0.98597  0.82347  Biso   1.000  N
  N58      1.0000 0.56743  0.01327  0.61067  Biso   1.000  N
  N59      1.0000 0.51443  0.07007  0.87177  Biso   1.000  N
  N60      1.0000 0.62323  0.87417  0.42147  Biso   1.000  N
  C133     1.0000 0.50243  0.11047  0.89837  Biso   1.000  C
  H89      1.0000 0.48753  0.11117  0.98447  Biso   1.000  H
  C134     1.0000 0.51153  0.15087  0.80227  Biso   1.000  C
  H90      1.0000 0.50303  0.17837  0.82417  Biso   1.000  H
  C135     1.0000 0.53293  0.15067  0.67547  Biso   1.000  C
  H91      1.0000 0.53893  0.17777  0.60987  Biso   1.000  H
  C136     1.0000 0.54553  0.10987  0.64577  Biso   1.000  C
  H92      1.0000 0.56013  0.10877  0.55957  Biso   1.000  H
  C137     1.0000 0.53623  0.07077  0.74507  Biso   1.000  C
  C138     1.0000 0.54583  0.02377  0.72467  Biso   1.000  C
  C139     1.0000 0.56403  0.96487  0.65137  Biso   1.000  C
  C140     1.0000 0.59153  0.85327  0.53407  Biso   1.000  C
  H93      1.0000 0.58253  0.81777  0.56277  Biso   1.000  H
  C141     1.0000 0.57173  0.88077  0.60887  Biso   1.000  C
  H94      1.0000 0.55053  0.86447  0.68817  Biso   1.000  H
  C142     1.0000 0.58293  0.93317  0.56757  Biso   1.000  C
  C143     1.0000 0.61443  0.95467  0.45037  Biso   1.000  C
  H95      1.0000 0.62233  0.98937  0.41757  Biso   1.000  H
  C144     1.0000 0.63433  0.92477  0.38107  Biso   1.000  C
  H96      1.0000 0.65643  0.94057  0.30287  Biso   1.000  H
  N61      1.0000 0.72070  0.92920  0.11000  Biso   1.000  N
  N62      1.0000 0.68070  0.87790  0.15680  Biso   1.000  N
  N63      1.0000 0.65340  0.88750  0.94400  Biso   1.000  N
  N64      1.0000 0.59660  0.77770  0.20510  Biso   1.000  N
  N65      1.0000 0.79250  0.08240  0.75480  Biso   1.000  N
  C145     1.0000 0.55620  0.72530  0.23170  Biso   1.000  C
  H97      1.0000 0.55550  0.70970  0.31780  Biso   1.000  H
  C146     1.0000 0.51580  0.69400  0.13560  Biso   1.000  C
  H98      1.0000 0.48830  0.65800  0.15750  Biso   1.000  H
  C147     1.0000 0.51600  0.71560  0.00880  Biso   1.000  C
  H99      1.0000 0.48890  0.69450  0.94320  Biso   1.000  H
  C148     1.0000 0.55680  0.76900  0.97910  Biso   1.000  C
  H100     1.0000 0.55790  0.78470  0.89290  Biso   1.000  H
  C149     1.0000 0.59590  0.79880  0.07840  Biso   1.000  C
  C150     1.0000 0.64290  0.85540  0.05800  Biso   1.000  C
  C151     1.0000 0.70180  0.93250  0.98470  Biso   1.000  C
  C152     1.0000 0.81340  0.07160  0.86740  Biso   1.000  C
  H101     1.0000 0.84890  0.09810  0.89610  Biso   1.000  H
  C153     1.0000 0.78590  0.02430  0.94220  Biso   1.000  C
  H102     1.0000 0.80220  0.01940  0.02150  Biso   1.000  H
  C154     1.0000 0.73350  0.98310  0.90090  Biso   1.000  C
  C155     1.0000 0.71200  0.99310  0.78370  Biso   1.000  C
  H103     1.0000 0.67730  0.96630  0.75090  Biso   1.000  H
  C156     1.0000 0.74190  0.04290  0.71440  Biso   1.000  C
  H104     1.0000 0.72610  0.04920  0.63620  Biso   1.000  H
  N66      1.0000 0.38737  0.26253  0.44333  Biso   1.000  N
  N67      1.0000 0.34737  0.21123  0.49013  Biso   1.000  N
  N68      1.0000 0.32007  0.22083  0.27733  Biso   1.000  N
  N69      1.0000 0.26327  0.11103  0.53843  Biso   1.000  N
  N70      1.0000 0.45917  0.41573  0.08813  Biso   1.000  N
  C157     1.0000 0.22287  0.05863  0.56503  Biso   1.000  C
  H105     1.0000 0.22217  0.04303  0.65113  Biso   1.000  H
  C158     1.0000 0.18247  0.02733  0.46893  Biso   1.000  C
  H106     1.0000 0.15497  0.99133  0.49083  Biso   1.000  H
  C159     1.0000 0.18267  0.04893  0.34213  Biso   1.000  C
  H107     1.0000 0.15557  0.02783  0.27653  Biso   1.000  H
  C160     1.0000 0.22347  0.10233  0.31243  Biso   1.000  C
  H108     1.0000 0.22457  0.11803  0.22623  Biso   1.000  H
  C161     1.0000 0.26257  0.13213  0.41173  Biso   1.000  C
  C162     1.0000 0.30957  0.18873  0.39133  Biso   1.000  C
  C163     1.0000 0.36847  0.26583  0.31803  Biso   1.000  C
  C164     1.0000 0.48007  0.40493  0.20073  Biso   1.000  C
  H109     1.0000 0.51557  0.43143  0.22943  Biso   1.000  H
  C165     1.0000 0.45257  0.35763  0.27553  Biso   1.000  C
  H110     1.0000 0.46887  0.35273  0.35483  Biso   1.000  H
  C166     1.0000 0.40017  0.31643  0.23423  Biso   1.000  C
  C167     1.0000 0.37867  0.32643  0.11703  Biso   1.000  C
  H111     1.0000 0.34397  0.29963  0.08423  Biso   1.000  H
  C168     1.0000 0.40857  0.37623  0.04773  Biso   1.000  C
  H112     1.0000 0.39277  0.38253  0.96953  Biso   1.000  H
  N71      1.0000 0.05403  0.59587  0.77667  Biso   1.000  N
  N72      1.0000 0.01403  0.54457  0.82347  Biso   1.000  N
  N73      1.0000 0.98673  0.55417  0.61067  Biso   1.000  N
  N74      1.0000 0.92993  0.44437  0.87177  Biso   1.000  N
  N75      1.0000 0.12583  0.74907  0.42147  Biso   1.000  N
  C169     1.0000 0.88953  0.39197  0.89837  Biso   1.000  C
  H113     1.0000 0.88883  0.37637  0.98447  Biso   1.000  H
  C170     1.0000 0.84913  0.36067  0.80227  Biso   1.000  C
  H114     1.0000 0.82163  0.32467  0.82417  Biso   1.000  H
  C171     1.0000 0.84933  0.38227  0.67547  Biso   1.000  C
  H115     1.0000 0.82223  0.36117  0.60987  Biso   1.000  H
  C172     1.0000 0.89013  0.43567  0.64577  Biso   1.000  C
  H116     1.0000 0.89123  0.45137  0.55957  Biso   1.000  H
  C173     1.0000 0.92923  0.46547  0.74507  Biso   1.000  C
  C174     1.0000 0.97623  0.52207  0.72467  Biso   1.000  C
  C175     1.0000 0.03513  0.59917  0.65137  Biso   1.000  C
  C176     1.0000 0.14673  0.73827  0.53407  Biso   1.000  C
  H117     1.0000 0.18223  0.76477  0.56277  Biso   1.000  H
  C177     1.0000 0.11923  0.69097  0.60887  Biso   1.000  C
  H118     1.0000 0.13553  0.68607  0.68817  Biso   1.000  H
  C178     1.0000 0.06683  0.64977  0.56757  Biso   1.000  C
  C179     1.0000 0.04533  0.65977  0.45037  Biso   1.000  C
  H119     1.0000 0.01063  0.63297  0.41757  Biso   1.000  H
  C180     1.0000 0.07523  0.70957  0.38107  Biso   1.000  C
  H120     1.0000 0.05943  0.71587  0.30287  Biso   1.000  H
  N76      1.0000 0.07080  0.79150  0.11000  Biso   1.000  N
  N77      1.0000 0.12210  0.80280  0.15680  Biso   1.000  N
  N78      1.0000 0.11250  0.76590  0.94400  Biso   1.000  N
  N79      1.0000 0.22230  0.81890  0.20510  Biso   1.000  N
  N80      1.0000 0.91760  0.71010  0.75480  Biso   1.000  N
  C181     1.0000 0.27470  0.83090  0.23170  Biso   1.000  C
  H121     1.0000 0.29030  0.84580  0.31780  Biso   1.000  H
  C182     1.0000 0.30600  0.82180  0.13560  Biso   1.000  C
  H122     1.0000 0.34200  0.83030  0.15750  Biso   1.000  H
  C183     1.0000 0.28440  0.80040  0.00880  Biso   1.000  C
  H123     1.0000 0.30550  0.79440  0.94320  Biso   1.000  H
  C184     1.0000 0.23100  0.78780  0.97910  Biso   1.000  C
  H124     1.0000 0.21530  0.77320  0.89290  Biso   1.000  H
  C185     1.0000 0.20120  0.79710  0.07840  Biso   1.000  C
  C186     1.0000 0.14460  0.78750  0.05800  Biso   1.000  C
  C187     1.0000 0.06750  0.76930  0.98470  Biso   1.000  C
  C188     1.0000 0.92840  0.74180  0.86740  Biso   1.000  C
  H125     1.0000 0.90190  0.75080  0.89610  Biso   1.000  H
  C189     1.0000 0.97570  0.76160  0.94220  Biso   1.000  C
  H126     1.0000 0.98060  0.78280  0.02150  Biso   1.000  H
  C190     1.0000 0.01690  0.75040  0.90090  Biso   1.000  C
  C191     1.0000 0.00690  0.71890  0.78370  Biso   1.000  C
  H127     1.0000 0.03370  0.71100  0.75090  Biso   1.000  H
  C192     1.0000 0.95710  0.69900  0.71440  Biso   1.000  C
  H128     1.0000 0.95080  0.67690  0.63620  Biso   1.000  H
  N81      1.0000 0.73747  0.12483  0.44333  Biso   1.000  N
  N82      1.0000 0.78877  0.13613  0.49013  Biso   1.000  N
  N83      1.0000 0.77917  0.09923  0.27733  Biso   1.000  N
  N84      1.0000 0.88897  0.15223  0.53843  Biso   1.000  N
  N85      1.0000 0.58427  0.04343  0.08813  Biso   1.000  N
  C193     1.0000 0.94137  0.16423  0.56503  Biso   1.000  C
  H129     1.0000 0.95697  0.17913  0.65113  Biso   1.000  H
  C194     1.0000 0.97267  0.15513  0.46893  Biso   1.000  C
  H130     1.0000 0.00867  0.16363  0.49083  Biso   1.000  H
  C195     1.0000 0.95107  0.13373  0.34213  Biso   1.000  C
  H131     1.0000 0.97217  0.12773  0.27653  Biso   1.000  H
  C196     1.0000 0.89767  0.12113  0.31243  Biso   1.000  C
  H132     1.0000 0.88197  0.10653  0.22623  Biso   1.000  H
  C197     1.0000 0.86787  0.13043  0.41173  Biso   1.000  C
  C198     1.0000 0.81127  0.12083  0.39133  Biso   1.000  C
  C199     1.0000 0.73417  0.10263  0.31803  Biso   1.000  C
  C200     1.0000 0.59507  0.07513  0.20073  Biso   1.000  C
  H133     1.0000 0.56857  0.08413  0.22943  Biso   1.000  H
  C201     1.0000 0.64237  0.09493  0.27553  Biso   1.000  C
  H134     1.0000 0.64727  0.11613  0.35483  Biso   1.000  H
  C202     1.0000 0.68357  0.08373  0.23423  Biso   1.000  C
  C203     1.0000 0.67357  0.05223  0.11703  Biso   1.000  C
  H135     1.0000 0.70037  0.04433  0.08423  Biso   1.000  H
  C204     1.0000 0.62377  0.03233  0.04773  Biso   1.000  C
  H136     1.0000 0.61747  0.01023  0.96953  Biso   1.000  H
  N86      1.0000 0.40413  0.45817  0.77667  Biso   1.000  N
  N87      1.0000 0.45543  0.46947  0.82347  Biso   1.000  N
  N88      1.0000 0.44583  0.43257  0.61067  Biso   1.000  N
  N89      1.0000 0.55563  0.48557  0.87177  Biso   1.000  N
  N90      1.0000 0.25093  0.37677  0.42147  Biso   1.000  N
  C205     1.0000 0.60803  0.49757  0.89837  Biso   1.000  C
  H137     1.0000 0.62363  0.51247  0.98447  Biso   1.000  H
  C206     1.0000 0.63933  0.48847  0.80227  Biso   1.000  C
  H138     1.0000 0.67533  0.49697  0.82417  Biso   1.000  H
  C207     1.0000 0.61773  0.46707  0.67547  Biso   1.000  C
  H139     1.0000 0.63883  0.46107  0.60987  Biso   1.000  H
  C208     1.0000 0.56433  0.45447  0.64577  Biso   1.000  C
  H140     1.0000 0.54863  0.43987  0.55957  Biso   1.000  H
  C209     1.0000 0.53453  0.46377  0.74507  Biso   1.000  C
  C210     1.0000 0.47793  0.45417  0.72467  Biso   1.000  C
  C211     1.0000 0.40083  0.43597  0.65137  Biso   1.000  C
  C212     1.0000 0.26173  0.40847  0.53407  Biso   1.000  C
  H141     1.0000 0.23523  0.41747  0.56277  Biso   1.000  H
  C213     1.0000 0.30903  0.42827  0.60887  Biso   1.000  C
  H142     1.0000 0.31393  0.44947  0.68817  Biso   1.000  H
  C214     1.0000 0.35023  0.41707  0.56757  Biso   1.000  C
  C215     1.0000 0.34023  0.38557  0.45037  Biso   1.000  C
  H143     1.0000 0.36703  0.37767  0.41757  Biso   1.000  H
  C216     1.0000 0.29043  0.36567  0.38107  Biso   1.000  C
  H144     1.0000 0.28413  0.34357  0.30287  Biso   1.000  H
  Ni1      1.0000 0.83333  0.66667  0.66667  Biso   1.000  Ni
  Ni2      1.0000 0.50000  0.00000  0.00000  Biso   1.000  Ni
  Ni3      1.0000 0.33333  0.16667  0.66667  Biso   1.000  Ni
  Ni4      1.0000 0.00000  0.50000  0.00000  Biso   1.000  Ni
  Ni5      1.0000 0.83333  0.16667  0.66667  Biso   1.000  Ni
  Ni6      1.0000 0.50000  0.50000  0.00000  Biso   1.000  Ni
  Ni7      1.0000 0.16667  0.33333  0.33333  Biso   1.000  Ni
  Ni8      1.0000 0.66667  0.83333  0.33333  Biso   1.000  Ni
  Ni9      1.0000 0.16667  0.83333  0.33333  Biso   1.000  Ni
