data_image0
_cell_length_a       14.9976
_cell_length_b       14.2913
_cell_length_c       16.5016
_cell_angle_alpha    90
_cell_angle_beta     108.701
_cell_angle_gamma    90

_symmetry_space_group_name_H-M    "P 1"
_symmetry_int_tables_number       1

loop_
  _symmetry_equiv_pos_as_xyz
  'x, y, z'

loop_
  _atom_site_label
  _atom_site_occupancy
  _atom_site_fract_x
  _atom_site_fract_y
  _atom_site_fract_z
  _atom_site_thermal_displace_type
  _atom_site_B_iso_or_equiv
  _atom_site_type_symbol
  Re1      1.0000 0.12510  0.98027  0.05810  Biso   1.000  Re
  Re2      1.0000 0.00440  0.11039  0.05812  Biso   1.000  Re
  Re3      1.0000 0.96812  0.93702  0.08406  Biso   1.000  Re
  S1       1.0000 0.08990  0.02623  0.18538  Biso   1.000  S
  S2       1.0000 0.08274  0.82143  0.07792  Biso   1.000  S
  S3       1.0000 0.85858  0.06192  0.07817  Biso   1.000  S
  S4       1.0000 0.14952  0.14178  0.02965  Biso   1.000  S
  C1       1.0000 0.26840  0.95630  0.12750  Biso   1.000  C
  N1       1.0000 0.34470  0.94340  0.16760  Biso   1.000  N
  C2       1.0000 0.01170  0.23770  0.12550  Biso   1.000  C
  N2       1.0000 0.01780  0.30660  0.16130  Biso   1.000  N
  Re4      1.0000 0.62510  0.48027  0.05810  Biso   1.000  Re
  Re5      1.0000 0.50440  0.61039  0.05812  Biso   1.000  Re
  Re6      1.0000 0.46812  0.43702  0.08406  Biso   1.000  Re
  S5       1.0000 0.58990  0.52623  0.18538  Biso   1.000  S
  S6       1.0000 0.58274  0.32143  0.07792  Biso   1.000  S
  S7       1.0000 0.35858  0.56192  0.07817  Biso   1.000  S
  S8       1.0000 0.64952  0.64178  0.02965  Biso   1.000  S
  C3       1.0000 0.76840  0.45630  0.12750  Biso   1.000  C
  N3       1.0000 0.84470  0.44340  0.16760  Biso   1.000  N
  C4       1.0000 0.51170  0.73770  0.12550  Biso   1.000  C
  N4       1.0000 0.51780  0.80660  0.16130  Biso   1.000  N
  Re7      1.0000 0.87490  0.98027  0.44190  Biso   1.000  Re
  Re8      1.0000 0.99560  0.11039  0.44188  Biso   1.000  Re
  Re9      1.0000 0.03188  0.93702  0.41594  Biso   1.000  Re
  S9       1.0000 0.91010  0.02623  0.31462  Biso   1.000  S
  S10      1.0000 0.91726  0.82143  0.42208  Biso   1.000  S
  S11      1.0000 0.14142  0.06192  0.42183  Biso   1.000  S
  S12      1.0000 0.85048  0.14178  0.47035  Biso   1.000  S
  C5       1.0000 0.73160  0.95630  0.37250  Biso   1.000  C
  N5       1.0000 0.65530  0.94340  0.33240  Biso   1.000  N
  C6       1.0000 0.98830  0.23770  0.37450  Biso   1.000  C
  N6       1.0000 0.98220  0.30660  0.33870  Biso   1.000  N
  Re10     1.0000 0.37490  0.48027  0.44190  Biso   1.000  Re
  Re11     1.0000 0.49560  0.61039  0.44188  Biso   1.000  Re
  Re12     1.0000 0.53188  0.43702  0.41594  Biso   1.000  Re
  S13      1.0000 0.41010  0.52623  0.31462  Biso   1.000  S
  S14      1.0000 0.41726  0.32143  0.42208  Biso   1.000  S
  S15      1.0000 0.64142  0.56192  0.42183  Biso   1.000  S
  S16      1.0000 0.35048  0.64178  0.47035  Biso   1.000  S
  C7       1.0000 0.23160  0.45630  0.37250  Biso   1.000  C
  N7       1.0000 0.15530  0.44340  0.33240  Biso   1.000  N
  C8       1.0000 0.48830  0.73770  0.37450  Biso   1.000  C
  N8       1.0000 0.48220  0.80660  0.33870  Biso   1.000  N
  Re13     1.0000 0.87490  0.01973  0.94190  Biso   1.000  Re
  Re14     1.0000 0.99560  0.88961  0.94188  Biso   1.000  Re
  Re15     1.0000 0.03188  0.06298  0.91594  Biso   1.000  Re
  S17      1.0000 0.91010  0.97377  0.81462  Biso   1.000  S
  S18      1.0000 0.91726  0.17857  0.92208  Biso   1.000  S
  S19      1.0000 0.14142  0.93808  0.92183  Biso   1.000  S
  S20      1.0000 0.85048  0.85822  0.97035  Biso   1.000  S
  C9       1.0000 0.73160  0.04370  0.87250  Biso   1.000  C
  N9       1.0000 0.65530  0.05660  0.83240  Biso   1.000  N
  C10      1.0000 0.98830  0.76230  0.87450  Biso   1.000  C
  N10      1.0000 0.98220  0.69340  0.83870  Biso   1.000  N
  Re16     1.0000 0.37490  0.51973  0.94190  Biso   1.000  Re
  Re17     1.0000 0.49560  0.38961  0.94188  Biso   1.000  Re
  Re18     1.0000 0.53188  0.56298  0.91594  Biso   1.000  Re
  S21      1.0000 0.41010  0.47377  0.81462  Biso   1.000  S
  S22      1.0000 0.41726  0.67857  0.92208  Biso   1.000  S
  S23      1.0000 0.64142  0.43808  0.92183  Biso   1.000  S
  S24      1.0000 0.35048  0.35822  0.97035  Biso   1.000  S
  C11      1.0000 0.23160  0.54370  0.87250  Biso   1.000  C
  N11      1.0000 0.15530  0.55660  0.83240  Biso   1.000  N
  C12      1.0000 0.48830  0.26230  0.87450  Biso   1.000  C
  N12      1.0000 0.48220  0.19340  0.83870  Biso   1.000  N
  Re19     1.0000 0.12510  0.01973  0.55810  Biso   1.000  Re
  Re20     1.0000 0.00440  0.88961  0.55812  Biso   1.000  Re
  Re21     1.0000 0.96812  0.06298  0.58406  Biso   1.000  Re
  S25      1.0000 0.08990  0.97377  0.68538  Biso   1.000  S
  S26      1.0000 0.08274  0.17857  0.57792  Biso   1.000  S
  S27      1.0000 0.85858  0.93808  0.57817  Biso   1.000  S
  S28      1.0000 0.14952  0.85822  0.52965  Biso   1.000  S
  C13      1.0000 0.26840  0.04370  0.62750  Biso   1.000  C
  N13      1.0000 0.34470  0.05660  0.66760  Biso   1.000  N
  C14      1.0000 0.01170  0.76230  0.62550  Biso   1.000  C
  N14      1.0000 0.01780  0.69340  0.66130  Biso   1.000  N
  Re22     1.0000 0.62510  0.51973  0.55810  Biso   1.000  Re
  Re23     1.0000 0.50440  0.38961  0.55812  Biso   1.000  Re
  Re24     1.0000 0.46812  0.56298  0.58406  Biso   1.000  Re
  S29      1.0000 0.58990  0.47377  0.68538  Biso   1.000  S
  S30      1.0000 0.58274  0.67857  0.57792  Biso   1.000  S
  S31      1.0000 0.35858  0.43808  0.57817  Biso   1.000  S
  S32      1.0000 0.64952  0.35822  0.52965  Biso   1.000  S
  C15      1.0000 0.76840  0.54370  0.62750  Biso   1.000  C
  N15      1.0000 0.84470  0.55660  0.66760  Biso   1.000  N
  C16      1.0000 0.51170  0.26230  0.62550  Biso   1.000  C
  N16      1.0000 0.51780  0.19340  0.66130  Biso   1.000  N
  Cd1      1.0000 0.00000  0.42387  0.25000  Biso   1.000  Cd
  Cd2      1.0000 0.50000  0.92387  0.25000  Biso   1.000  Cd
  Cd3      1.0000 0.00000  0.57613  0.75000  Biso   1.000  Cd
  Cd4      1.0000 0.50000  0.07613  0.75000  Biso   1.000  Cd
