data_image0
_cell_length_a       9.45
_cell_length_b       9.75
_cell_length_c       10.29
_cell_angle_alpha    96.11
_cell_angle_beta     90.4
_cell_angle_gamma    116.54

_symmetry_space_group_name_H-M    "P 1"
_symmetry_int_tables_number       1

loop_
  _symmetry_equiv_pos_as_xyz
  'x, y, z'

loop_
  _atom_site_label
  _atom_site_occupancy
  _atom_site_fract_x
  _atom_site_fract_y
  _atom_site_fract_z
  _atom_site_thermal_displace_type
  _atom_site_B_iso_or_equiv
  _atom_site_type_symbol
  Cd1      1.0000 0.23604  0.05758  0.02924  Biso   1.000  Cd
  O1       1.0000 0.30540  0.12500  0.26040  Biso   1.000  O
  O2       1.0000 0.36270  0.95120  0.15400  Biso   1.000  O
  O3       1.0000 0.98400  0.86960  0.08150  Biso   1.000  O
  O4       1.0000 0.77750  0.71820  0.95000  Biso   1.000  O
  N1       1.0000 0.18860  0.89820  0.83600  Biso   1.000  N
  C1       1.0000 0.36400  0.03000  0.25980  Biso   1.000  C
  C2       1.0000 0.43300  0.01250  0.38320  Biso   1.000  C
  C3       1.0000 0.44400  0.10600  0.49870  Biso   1.000  C
  C4       1.0000 0.48900  0.90700  0.38730  Biso   1.000  C
  C5       1.0000 0.90100  0.74100  0.01490  Biso   1.000  C
  C6       1.0000 0.94870  0.61640  0.00850  Biso   1.000  C
  C7       1.0000 0.05900  0.61730  0.10300  Biso   1.000  C
  C8       1.0000 0.10700  0.50500  0.09400  Biso   1.000  C
  C9       1.0000 0.08900  0.89400  0.73980  Biso   1.000  C
  C10      1.0000 0.05300  0.79400  0.62520  Biso   1.000  C
  C11      1.0000 0.12100  0.69300  0.60880  Biso   1.000  C
  C12      1.0000 0.22300  0.70100  0.70750  Biso   1.000  C
  C13      1.0000 0.25500  0.80100  0.81840  Biso   1.000  C
  C14      1.0000 0.07600  0.57700  0.48860  Biso   1.000  C
  H1       1.0000 0.39750  0.17230  0.49780  Biso   1.000  H
  H2       1.0000 0.47930  0.84300  0.30810  Biso   1.000  H
  H3       1.0000 0.09960  0.70020  0.17440  Biso   1.000  H
  H4       1.0000 0.18380  0.51020  0.15870  Biso   1.000  H
  H5       1.0000 0.04390  0.96560  0.74840  Biso   1.000  H
  H6       1.0000 0.98280  0.79550  0.55540  Biso   1.000  H
  H7       1.0000 0.27100  0.63610  0.69790  Biso   1.000  H
  H8       1.0000 0.32650  0.80260  0.88720  Biso   1.000  H
  H9       1.0000 0.04770  0.61970  0.41670  Biso   1.000  H
  H10      1.0000 0.16090  0.55700  0.46470  Biso   1.000  H
  Cd2      1.0000 0.76396  0.94242  0.97076  Biso   1.000  Cd
  O5       1.0000 0.69460  0.87500  0.73960  Biso   1.000  O
  O6       1.0000 0.63730  0.04880  0.84600  Biso   1.000  O
  O7       1.0000 0.01600  0.13040  0.91850  Biso   1.000  O
  O8       1.0000 0.22250  0.28180  0.05000  Biso   1.000  O
  N2       1.0000 0.81140  0.10180  0.16400  Biso   1.000  N
  C15      1.0000 0.63600  0.97000  0.74020  Biso   1.000  C
  C16      1.0000 0.56700  0.98750  0.61680  Biso   1.000  C
  C17      1.0000 0.55600  0.89400  0.50130  Biso   1.000  C
  C18      1.0000 0.51100  0.09300  0.61270  Biso   1.000  C
  C19      1.0000 0.09900  0.25900  0.98510  Biso   1.000  C
  C20      1.0000 0.05130  0.38360  0.99150  Biso   1.000  C
  C21      1.0000 0.94100  0.38270  0.89700  Biso   1.000  C
  C22      1.0000 0.89300  0.49500  0.90600  Biso   1.000  C
  C23      1.0000 0.91100  0.10600  0.26020  Biso   1.000  C
  C24      1.0000 0.94700  0.20600  0.37480  Biso   1.000  C
  C25      1.0000 0.87900  0.30700  0.39120  Biso   1.000  C
  C26      1.0000 0.77700  0.29900  0.29250  Biso   1.000  C
  C27      1.0000 0.74500  0.19900  0.18160  Biso   1.000  C
  C28      1.0000 0.92400  0.42300  0.51140  Biso   1.000  C
  H11      1.0000 0.60250  0.82770  0.50220  Biso   1.000  H
  H12      1.0000 0.52070  0.15700  0.69190  Biso   1.000  H
  H13      1.0000 0.90040  0.29980  0.82560  Biso   1.000  H
  H14      1.0000 0.81620  0.48980  0.84130  Biso   1.000  H
  H15      1.0000 0.95610  0.03440  0.25160  Biso   1.000  H
  H16      1.0000 0.01720  0.20450  0.44460  Biso   1.000  H
  H17      1.0000 0.72900  0.36390  0.30210  Biso   1.000  H
  H18      1.0000 0.67350  0.19740  0.11280  Biso   1.000  H
  H19      1.0000 0.95230  0.38030  0.58330  Biso   1.000  H
  H20      1.0000 0.83910  0.44300  0.53530  Biso   1.000  H
