data_image0
_cell_length_a       13.294
_cell_length_b       25.171
_cell_length_c       13.626
_cell_angle_alpha    90
_cell_angle_beta     104.6
_cell_angle_gamma    90

_symmetry_space_group_name_H-M    "P 1"
_symmetry_int_tables_number       1

loop_
  _symmetry_equiv_pos_as_xyz
  'x, y, z'

loop_
  _atom_site_label
  _atom_site_occupancy
  _atom_site_fract_x
  _atom_site_fract_y
  _atom_site_fract_z
  _atom_site_thermal_displace_type
  _atom_site_B_iso_or_equiv
  _atom_site_type_symbol
  Cu1      1.0000 0.54175  0.24566  0.71701  Biso   1.000  Cu
  Cu2      1.0000 0.56941  0.20819  0.97696  Biso   1.000  Cu
  S1       1.0000 0.46090  0.38839  0.71080  Biso   1.000  S
  S2       1.0000 0.46170  0.56345  0.53150  Biso   1.000  S
  S3       1.0000 0.80760  0.24020  0.86980  Biso   1.000  S
  S4       1.0000 0.13470  0.23600  0.94250  Biso   1.000  S
  N1       1.0000 0.52330  0.29930  0.82310  Biso   1.000  N
  N2       1.0000 0.55540  0.28590  0.92270  Biso   1.000  N
  N3       1.0000 0.54950  0.32750  0.97960  Biso   1.000  N
  N4       1.0000 0.51060  0.36720  0.91330  Biso   1.000  N
  N5       1.0000 0.45520  0.65550  0.63650  Biso   1.000  N
  N6       1.0000 0.47200  0.67060  0.73490  Biso   1.000  N
  N7       1.0000 0.49540  0.62990  0.79360  Biso   1.000  N
  N8       1.0000 0.49500  0.58770  0.73270  Biso   1.000  N
  N9       1.0000 0.67490  0.26530  0.68510  Biso   1.000  N
  N10      1.0000 0.68560  0.29080  0.60060  Biso   1.000  N
  N11      1.0000 0.77870  0.30690  0.60850  Biso   1.000  N
  N12      1.0000 0.83250  0.29100  0.70160  Biso   1.000  N
  N13      1.0000 0.33570  0.21100  0.94930  Biso   1.000  N
  N14      1.0000 0.42880  0.21680  0.01450  Biso   1.000  N
  N15      1.0000 0.41890  0.24370  0.09420  Biso   1.000  N
  N16      1.0000 0.31640  0.25220  0.08040  Biso   1.000  N
  C1       1.0000 0.49780  0.34950  0.81900  Biso   1.000  C
  C2       1.0000 0.32130  0.38600  0.68700  Biso   1.000  C
  H1       1.0000 0.30240  0.37340  0.74720  Biso   1.000  H
  H2       1.0000 0.29360  0.36120  0.63240  Biso   1.000  H
  C3       1.0000 0.27530  0.43930  0.65930  Biso   1.000  C
  H3       1.0000 0.20020  0.43570  0.64000  Biso   1.000  H
  H4       1.0000 0.29310  0.46180  0.71910  Biso   1.000  H
  C4       1.0000 0.30930  0.46810  0.57210  Biso   1.000  C
  H5       1.0000 0.38460  0.46850  0.58760  Biso   1.000  H
  H6       1.0000 0.28420  0.44800  0.51000  Biso   1.000  H
  C5       1.0000 0.26880  0.52620  0.55390  Biso   1.000  C
  H7       1.0000 0.28180  0.54470  0.61830  Biso   1.000  H
  H8       1.0000 0.19440  0.52580  0.52460  Biso   1.000  H
  C6       1.0000 0.32080  0.55540  0.48450  Biso   1.000  C
  H9       1.0000 0.30680  0.53660  0.42040  Biso   1.000  H
  H10      1.0000 0.28950  0.59030  0.47150  Biso   1.000  H
  C7       1.0000 0.46780  0.60360  0.63590  Biso   1.000  C
  C8       1.0000 0.49560  0.41880  0.95300  Biso   1.000  C
  H11      1.0000 0.43790  0.43620  0.90770  Biso   1.000  H
  H12      1.0000 0.48170  0.41490  0.01840  Biso   1.000  H
  H13      1.0000 0.55730  0.43980  0.95930  Biso   1.000  H
  C9       1.0000 0.51730  0.53570  0.77570  Biso   1.000  C
  H14      1.0000 0.53710  0.51280  0.72750  Biso   1.000  H
  H15      1.0000 0.57310  0.53790  0.83600  Biso   1.000  H
  H16      1.0000 0.45650  0.52170  0.79240  Biso   1.000  H
  C10      1.0000 0.76930  0.26580  0.74700  Biso   1.000  C
  C11      1.0000 0.79130  0.16850  0.84100  Biso   1.000  C
  H17      1.0000 0.74980  0.15290  0.88250  Biso   1.000  H
  H18      1.0000 0.75310  0.16430  0.77040  Biso   1.000  H
  C12      1.0000 0.87860  0.14230  0.85500  Biso   1.000  C
  H19      1.0000 0.91100  0.15270  0.80210  Biso   1.000  H
  H20      1.0000 0.86080  0.10500  0.84480  Biso   1.000  H
  C13      1.0000 0.96120  0.14620  0.95450  Biso   1.000  C
  H21      1.0000 0.94500  0.12180  0.00340  Biso   1.000  H
  H22      1.0000 0.96200  0.18190  0.98140  Biso   1.000  H
  C14      1.0000 0.07640  0.13190  0.93700  Biso   1.000  C
  H23      1.0000 0.12580  0.12850  0.00260  Biso   1.000  H
  H24      1.0000 0.07260  0.09780  0.90280  Biso   1.000  H
  C15      1.0000 0.11300  0.17100  0.87870  Biso   1.000  C
  H25      1.0000 0.06270  0.17500  0.81380  Biso   1.000  H
  H26      1.0000 0.17770  0.15880  0.86580  Biso   1.000  H
  C16      1.0000 0.26810  0.23200  0.99080  Biso   1.000  C
  C17      1.0000 0.94680  0.30180  0.73540  Biso   1.000  C
  H27      1.0000 0.97040  0.29640  0.80720  Biso   1.000  H
  H28      1.0000 0.96020  0.33780  0.71940  Biso   1.000  H
  H29      1.0000 0.98310  0.27810  0.70100  Biso   1.000  H
  C18      1.0000 0.27710  0.28150  0.15430  Biso   1.000  C
  H30      1.0000 0.21120  0.26710  0.15760  Biso   1.000  H
  H31      1.0000 0.32540  0.27870  0.21960  Biso   1.000  H
  H32      1.0000 0.26870  0.31820  0.13460  Biso   1.000  H
  Cu3      1.0000 0.45825  0.74566  0.78299  Biso   1.000  Cu
  Cu4      1.0000 0.43059  0.70819  0.52304  Biso   1.000  Cu
  S5       1.0000 0.53910  0.88839  0.78920  Biso   1.000  S
  S6       1.0000 0.53830  0.06345  0.96850  Biso   1.000  S
  S7       1.0000 0.19240  0.74020  0.63020  Biso   1.000  S
  S8       1.0000 0.86530  0.73600  0.55750  Biso   1.000  S
  N17      1.0000 0.47670  0.79930  0.67690  Biso   1.000  N
  N18      1.0000 0.44460  0.78590  0.57730  Biso   1.000  N
  N19      1.0000 0.45050  0.82750  0.52040  Biso   1.000  N
  N20      1.0000 0.48940  0.86720  0.58670  Biso   1.000  N
  N21      1.0000 0.54480  0.15550  0.86350  Biso   1.000  N
  N22      1.0000 0.52800  0.17060  0.76510  Biso   1.000  N
  N23      1.0000 0.50460  0.12990  0.70640  Biso   1.000  N
  N24      1.0000 0.50500  0.08770  0.76730  Biso   1.000  N
  N25      1.0000 0.32510  0.76530  0.81490  Biso   1.000  N
  N26      1.0000 0.31440  0.79080  0.89940  Biso   1.000  N
  N27      1.0000 0.22130  0.80690  0.89150  Biso   1.000  N
  N28      1.0000 0.16750  0.79100  0.79840  Biso   1.000  N
  N29      1.0000 0.66430  0.71100  0.55070  Biso   1.000  N
  N30      1.0000 0.57120  0.71680  0.48550  Biso   1.000  N
  N31      1.0000 0.58110  0.74370  0.40580  Biso   1.000  N
  N32      1.0000 0.68360  0.75220  0.41960  Biso   1.000  N
  C19      1.0000 0.50220  0.84950  0.68100  Biso   1.000  C
  C20      1.0000 0.67870  0.88600  0.81300  Biso   1.000  C
  H33      1.0000 0.69760  0.87340  0.75280  Biso   1.000  H
  H34      1.0000 0.70640  0.86120  0.86760  Biso   1.000  H
  C21      1.0000 0.72470  0.93930  0.84070  Biso   1.000  C
  H35      1.0000 0.79980  0.93570  0.86000  Biso   1.000  H
  H36      1.0000 0.70690  0.96180  0.78090  Biso   1.000  H
  C22      1.0000 0.69070  0.96810  0.92790  Biso   1.000  C
  H37      1.0000 0.61540  0.96850  0.91240  Biso   1.000  H
  H38      1.0000 0.71580  0.94800  0.99000  Biso   1.000  H
  C23      1.0000 0.73120  0.02620  0.94610  Biso   1.000  C
  H39      1.0000 0.71820  0.04470  0.88170  Biso   1.000  H
  H40      1.0000 0.80560  0.02580  0.97540  Biso   1.000  H
  C24      1.0000 0.67920  0.05540  0.01550  Biso   1.000  C
  H41      1.0000 0.69320  0.03660  0.07960  Biso   1.000  H
  H42      1.0000 0.71050  0.09030  0.02850  Biso   1.000  H
  C25      1.0000 0.53220  0.10360  0.86410  Biso   1.000  C
  C26      1.0000 0.50440  0.91880  0.54700  Biso   1.000  C
  H43      1.0000 0.56210  0.93620  0.59230  Biso   1.000  H
  H44      1.0000 0.51830  0.91490  0.48160  Biso   1.000  H
  H45      1.0000 0.44270  0.93980  0.54070  Biso   1.000  H
  C27      1.0000 0.48270  0.03570  0.72430  Biso   1.000  C
  H46      1.0000 0.46290  0.01280  0.77250  Biso   1.000  H
  H47      1.0000 0.42690  0.03790  0.66400  Biso   1.000  H
  H48      1.0000 0.54350  0.02170  0.70760  Biso   1.000  H
  C28      1.0000 0.23070  0.76580  0.75300  Biso   1.000  C
  C29      1.0000 0.20870  0.66850  0.65900  Biso   1.000  C
  H49      1.0000 0.25020  0.65290  0.61750  Biso   1.000  H
  H50      1.0000 0.24690  0.66430  0.72960  Biso   1.000  H
  C30      1.0000 0.12140  0.64230  0.64500  Biso   1.000  C
  H51      1.0000 0.08900  0.65270  0.69790  Biso   1.000  H
  H52      1.0000 0.13920  0.60500  0.65520  Biso   1.000  H
  C31      1.0000 0.03880  0.64620  0.54550  Biso   1.000  C
  H53      1.0000 0.05500  0.62180  0.49660  Biso   1.000  H
  H54      1.0000 0.03800  0.68190  0.51860  Biso   1.000  H
  C32      1.0000 0.92360  0.63190  0.56300  Biso   1.000  C
  H55      1.0000 0.87420  0.62850  0.49740  Biso   1.000  H
  H56      1.0000 0.92740  0.59780  0.59720  Biso   1.000  H
  C33      1.0000 0.88700  0.67100  0.62130  Biso   1.000  C
  H57      1.0000 0.93730  0.67500  0.68620  Biso   1.000  H
  H58      1.0000 0.82230  0.65880  0.63420  Biso   1.000  H
  C34      1.0000 0.73190  0.73200  0.50920  Biso   1.000  C
  C35      1.0000 0.05320  0.80180  0.76460  Biso   1.000  C
  H59      1.0000 0.02960  0.79640  0.69280  Biso   1.000  H
  H60      1.0000 0.03980  0.83780  0.78060  Biso   1.000  H
  H61      1.0000 0.01690  0.77810  0.79900  Biso   1.000  H
  C36      1.0000 0.72290  0.78150  0.34570  Biso   1.000  C
  H62      1.0000 0.78880  0.76710  0.34240  Biso   1.000  H
  H63      1.0000 0.67460  0.77870  0.28040  Biso   1.000  H
  H64      1.0000 0.73130  0.81820  0.36540  Biso   1.000  H
  Cu5      1.0000 0.45825  0.75434  0.28299  Biso   1.000  Cu
  Cu6      1.0000 0.43059  0.79181  0.02304  Biso   1.000  Cu
  S9       1.0000 0.53910  0.61161  0.28920  Biso   1.000  S
  S10      1.0000 0.53830  0.43655  0.46850  Biso   1.000  S
  S11      1.0000 0.19240  0.75980  0.13020  Biso   1.000  S
  S12      1.0000 0.86530  0.76400  0.05750  Biso   1.000  S
  N33      1.0000 0.47670  0.70070  0.17690  Biso   1.000  N
  N34      1.0000 0.44460  0.71410  0.07730  Biso   1.000  N
  N35      1.0000 0.45050  0.67250  0.02040  Biso   1.000  N
  N36      1.0000 0.48940  0.63280  0.08670  Biso   1.000  N
  N37      1.0000 0.54480  0.34450  0.36350  Biso   1.000  N
  N38      1.0000 0.52800  0.32940  0.26510  Biso   1.000  N
  N39      1.0000 0.50460  0.37010  0.20640  Biso   1.000  N
  N40      1.0000 0.50500  0.41230  0.26730  Biso   1.000  N
  N41      1.0000 0.32510  0.73470  0.31490  Biso   1.000  N
  N42      1.0000 0.31440  0.70920  0.39940  Biso   1.000  N
  N43      1.0000 0.22130  0.69310  0.39150  Biso   1.000  N
  N44      1.0000 0.16750  0.70900  0.29840  Biso   1.000  N
  N45      1.0000 0.66430  0.78900  0.05070  Biso   1.000  N
  N46      1.0000 0.57120  0.78320  0.98550  Biso   1.000  N
  N47      1.0000 0.58110  0.75630  0.90580  Biso   1.000  N
  N48      1.0000 0.68360  0.74780  0.91960  Biso   1.000  N
  C37      1.0000 0.50220  0.65050  0.18100  Biso   1.000  C
  C38      1.0000 0.67870  0.61400  0.31300  Biso   1.000  C
  H65      1.0000 0.69760  0.62660  0.25280  Biso   1.000  H
  H66      1.0000 0.70640  0.63880  0.36760  Biso   1.000  H
  C39      1.0000 0.72470  0.56070  0.34070  Biso   1.000  C
  H67      1.0000 0.79980  0.56430  0.36000  Biso   1.000  H
  H68      1.0000 0.70690  0.53820  0.28090  Biso   1.000  H
  C40      1.0000 0.69070  0.53190  0.42790  Biso   1.000  C
  H69      1.0000 0.61540  0.53150  0.41240  Biso   1.000  H
  H70      1.0000 0.71580  0.55200  0.49000  Biso   1.000  H
  C41      1.0000 0.73120  0.47380  0.44610  Biso   1.000  C
  H71      1.0000 0.71820  0.45530  0.38170  Biso   1.000  H
  H72      1.0000 0.80560  0.47420  0.47540  Biso   1.000  H
  C42      1.0000 0.67920  0.44460  0.51550  Biso   1.000  C
  H73      1.0000 0.69320  0.46340  0.57960  Biso   1.000  H
  H74      1.0000 0.71050  0.40970  0.52850  Biso   1.000  H
  C43      1.0000 0.53220  0.39640  0.36410  Biso   1.000  C
  C44      1.0000 0.50440  0.58120  0.04700  Biso   1.000  C
  H75      1.0000 0.56210  0.56380  0.09230  Biso   1.000  H
  H76      1.0000 0.51830  0.58510  0.98160  Biso   1.000  H
  H77      1.0000 0.44270  0.56020  0.04070  Biso   1.000  H
  C45      1.0000 0.48270  0.46430  0.22430  Biso   1.000  C
  H78      1.0000 0.46290  0.48720  0.27250  Biso   1.000  H
  H79      1.0000 0.42690  0.46210  0.16400  Biso   1.000  H
  H80      1.0000 0.54350  0.47830  0.20760  Biso   1.000  H
  C46      1.0000 0.23070  0.73420  0.25300  Biso   1.000  C
  C47      1.0000 0.20870  0.83150  0.15900  Biso   1.000  C
  H81      1.0000 0.25020  0.84710  0.11750  Biso   1.000  H
  H82      1.0000 0.24690  0.83570  0.22960  Biso   1.000  H
  C48      1.0000 0.12140  0.85770  0.14500  Biso   1.000  C
  H83      1.0000 0.08900  0.84730  0.19790  Biso   1.000  H
  H84      1.0000 0.13920  0.89500  0.15520  Biso   1.000  H
  C49      1.0000 0.03880  0.85380  0.04550  Biso   1.000  C
  H85      1.0000 0.05500  0.87820  0.99660  Biso   1.000  H
  H86      1.0000 0.03800  0.81810  0.01860  Biso   1.000  H
  C50      1.0000 0.92360  0.86810  0.06300  Biso   1.000  C
  H87      1.0000 0.87420  0.87150  0.99740  Biso   1.000  H
  H88      1.0000 0.92740  0.90220  0.09720  Biso   1.000  H
  C51      1.0000 0.88700  0.82900  0.12130  Biso   1.000  C
  H89      1.0000 0.93730  0.82500  0.18620  Biso   1.000  H
  H90      1.0000 0.82230  0.84120  0.13420  Biso   1.000  H
  C52      1.0000 0.73190  0.76800  0.00920  Biso   1.000  C
  C53      1.0000 0.05320  0.69820  0.26460  Biso   1.000  C
  H91      1.0000 0.02960  0.70360  0.19280  Biso   1.000  H
  H92      1.0000 0.03980  0.66220  0.28060  Biso   1.000  H
  H93      1.0000 0.01690  0.72190  0.29900  Biso   1.000  H
  C54      1.0000 0.72290  0.71850  0.84570  Biso   1.000  C
  H94      1.0000 0.78880  0.73290  0.84240  Biso   1.000  H
  H95      1.0000 0.67460  0.72130  0.78040  Biso   1.000  H
  H96      1.0000 0.73130  0.68180  0.86540  Biso   1.000  H
  Cu7      1.0000 0.54175  0.25434  0.21701  Biso   1.000  Cu
  Cu8      1.0000 0.56941  0.29181  0.47696  Biso   1.000  Cu
  S13      1.0000 0.46090  0.11161  0.21080  Biso   1.000  S
  S14      1.0000 0.46170  0.93655  0.03150  Biso   1.000  S
  S15      1.0000 0.80760  0.25980  0.36980  Biso   1.000  S
  S16      1.0000 0.13470  0.26400  0.44250  Biso   1.000  S
  N49      1.0000 0.52330  0.20070  0.32310  Biso   1.000  N
  N50      1.0000 0.55540  0.21410  0.42270  Biso   1.000  N
  N51      1.0000 0.54950  0.17250  0.47960  Biso   1.000  N
  N52      1.0000 0.51060  0.13280  0.41330  Biso   1.000  N
  N53      1.0000 0.45520  0.84450  0.13650  Biso   1.000  N
  N54      1.0000 0.47200  0.82940  0.23490  Biso   1.000  N
  N55      1.0000 0.49540  0.87010  0.29360  Biso   1.000  N
  N56      1.0000 0.49500  0.91230  0.23270  Biso   1.000  N
  N57      1.0000 0.67490  0.23470  0.18510  Biso   1.000  N
  N58      1.0000 0.68560  0.20920  0.10060  Biso   1.000  N
  N59      1.0000 0.77870  0.19310  0.10850  Biso   1.000  N
  N60      1.0000 0.83250  0.20900  0.20160  Biso   1.000  N
  N61      1.0000 0.33570  0.28900  0.44930  Biso   1.000  N
  N62      1.0000 0.42880  0.28320  0.51450  Biso   1.000  N
  N63      1.0000 0.41890  0.25630  0.59420  Biso   1.000  N
  N64      1.0000 0.31640  0.24780  0.58040  Biso   1.000  N
  C55      1.0000 0.49780  0.15050  0.31900  Biso   1.000  C
  C56      1.0000 0.32130  0.11400  0.18700  Biso   1.000  C
  H97      1.0000 0.30240  0.12660  0.24720  Biso   1.000  H
  H98      1.0000 0.29360  0.13880  0.13240  Biso   1.000  H
  C57      1.0000 0.27530  0.06070  0.15930  Biso   1.000  C
  H99      1.0000 0.20020  0.06430  0.14000  Biso   1.000  H
  H100     1.0000 0.29310  0.03820  0.21910  Biso   1.000  H
  C58      1.0000 0.30930  0.03190  0.07210  Biso   1.000  C
  H101     1.0000 0.38460  0.03150  0.08760  Biso   1.000  H
  H102     1.0000 0.28420  0.05200  0.01000  Biso   1.000  H
  C59      1.0000 0.26880  0.97380  0.05390  Biso   1.000  C
  H103     1.0000 0.28180  0.95530  0.11830  Biso   1.000  H
  H104     1.0000 0.19440  0.97420  0.02460  Biso   1.000  H
  C60      1.0000 0.32080  0.94460  0.98450  Biso   1.000  C
  H105     1.0000 0.30680  0.96340  0.92040  Biso   1.000  H
  H106     1.0000 0.28950  0.90970  0.97150  Biso   1.000  H
  C61      1.0000 0.46780  0.89640  0.13590  Biso   1.000  C
  C62      1.0000 0.49560  0.08120  0.45300  Biso   1.000  C
  H107     1.0000 0.43790  0.06380  0.40770  Biso   1.000  H
  H108     1.0000 0.48170  0.08510  0.51840  Biso   1.000  H
  H109     1.0000 0.55730  0.06020  0.45930  Biso   1.000  H
  C63      1.0000 0.51730  0.96430  0.27570  Biso   1.000  C
  H110     1.0000 0.53710  0.98720  0.22750  Biso   1.000  H
  H111     1.0000 0.57310  0.96210  0.33600  Biso   1.000  H
  H112     1.0000 0.45650  0.97830  0.29240  Biso   1.000  H
  C64      1.0000 0.76930  0.23420  0.24700  Biso   1.000  C
  C65      1.0000 0.79130  0.33150  0.34100  Biso   1.000  C
  H113     1.0000 0.74980  0.34710  0.38250  Biso   1.000  H
  H114     1.0000 0.75310  0.33570  0.27040  Biso   1.000  H
  C66      1.0000 0.87860  0.35770  0.35500  Biso   1.000  C
  H115     1.0000 0.91100  0.34730  0.30210  Biso   1.000  H
  H116     1.0000 0.86080  0.39500  0.34480  Biso   1.000  H
  C67      1.0000 0.96120  0.35380  0.45450  Biso   1.000  C
  H117     1.0000 0.94500  0.37820  0.50340  Biso   1.000  H
  H118     1.0000 0.96200  0.31810  0.48140  Biso   1.000  H
  C68      1.0000 0.07640  0.36810  0.43700  Biso   1.000  C
  H119     1.0000 0.12580  0.37150  0.50260  Biso   1.000  H
  H120     1.0000 0.07260  0.40220  0.40280  Biso   1.000  H
  C69      1.0000 0.11300  0.32900  0.37870  Biso   1.000  C
  H121     1.0000 0.06270  0.32500  0.31380  Biso   1.000  H
  H122     1.0000 0.17770  0.34120  0.36580  Biso   1.000  H
  C70      1.0000 0.26810  0.26800  0.49080  Biso   1.000  C
  C71      1.0000 0.94680  0.19820  0.23540  Biso   1.000  C
  H123     1.0000 0.97040  0.20360  0.30720  Biso   1.000  H
  H124     1.0000 0.96020  0.16220  0.21940  Biso   1.000  H
  H125     1.0000 0.98310  0.22190  0.20100  Biso   1.000  H
  C72      1.0000 0.27710  0.21850  0.65430  Biso   1.000  C
  H126     1.0000 0.21120  0.23290  0.65760  Biso   1.000  H
  H127     1.0000 0.32540  0.22130  0.71960  Biso   1.000  H
  H128     1.0000 0.26870  0.18180  0.63460  Biso   1.000  H
