data_ILOTOT_clean
_audit_creation_date              2014-07-02
_audit_creation_method            'Materials Studio'
_symmetry_space_group_name_H-M    'P1'
_symmetry_Int_Tables_number       1
_symmetry_cell_setting            triclinic
loop_
_symmetry_equiv_pos_as_xyz
  x,y,z
_cell_length_a                    10.5305
_cell_length_b                    13.8420
_cell_length_c                    14.1361
_cell_angle_alpha                 60.6859
_cell_angle_beta                  82.6052
_cell_angle_gamma                 74.7589
loop_
_atom_site_label
_atom_site_type_symbol
_atom_site_fract_x
_atom_site_fract_y
_atom_site_fract_z
_atom_site_U_iso_or_equiv
_atom_site_adp_type
_atom_site_occupancy
Co1    Co    0.25000   0.58283   0.83434   0.01267  Uiso   1.00
Co2    Co    0.75000   0.41717   0.16566   0.01267  Uiso   1.00
Co3    Co    0.50000   0.50000   0.00000   0.01267  Uiso   1.00
Co4    Co    1.00000   0.50000   0.00000   0.01267  Uiso   1.00
H1     H     0.26520   0.70010   0.14000   0.01267  Uiso   1.00
H2     H     0.15090   0.82340   0.20620   0.01267  Uiso   1.00
H3     H     0.70190   0.73420   0.75300   0.01267  Uiso   1.00
H4     H     0.42010   0.81930   0.54400   0.01267  Uiso   1.00
H5     H     0.83180   0.88280   0.04140   0.01267  Uiso   1.00
H6     H     0.94440   0.75690   0.97940   0.01267  Uiso   1.00
H7     H     0.82440   0.84370   0.61420   0.01267  Uiso   1.00
H8     H     0.54220   0.92800   0.40200   0.01267  Uiso   1.00
H9     H     0.88840   0.09430   0.27260   0.01267  Uiso   1.00
H10    H     0.81890   0.12290   0.16740   0.01267  Uiso   1.00
H11    H     0.98510   0.90710   0.29400   0.01267  Uiso   1.00
H12    H     0.03460   0.00360   0.18920   0.01267  Uiso   1.00
H13    H     0.71370   0.96460   0.28540   0.01267  Uiso   1.00
H14    H     0.66050   0.07680   0.29540   0.01267  Uiso   1.00
H15    H     0.23480   0.15990   0.14000   0.01267  Uiso   1.00
H16    H     0.34910   0.97040   0.20620   0.01267  Uiso   1.00
H17    H     0.79810   0.51280   0.75300   0.01267  Uiso   1.00
H18    H     0.07990   0.63670   0.54400   0.01267  Uiso   1.00
H19    H     0.66820   0.07580   0.04140   0.01267  Uiso   1.00
H20    H     0.55560   0.26370   0.97940   0.01267  Uiso   1.00
H21    H     0.67560   0.54210   0.61420   0.01267  Uiso   1.00
H22    H     0.95780   0.67000   0.40200   0.01267  Uiso   1.00
H23    H     0.61160   0.63310   0.27260   0.01267  Uiso   1.00
H24    H     0.68110   0.70970   0.16740   0.01267  Uiso   1.00
H25    H     0.51490   0.79890   0.29400   0.01267  Uiso   1.00
H26    H     0.46540   0.80720   0.18920   0.01267  Uiso   1.00
H27    H     0.78630   0.75000   0.28540   0.01267  Uiso   1.00
H28    H     0.83950   0.62780   0.29540   0.01267  Uiso   1.00
H29    H     0.73480   0.29990   0.86000   0.01267  Uiso   1.00
H30    H     0.84910   0.17660   0.79380   0.01267  Uiso   1.00
H31    H     0.29810   0.26580   0.24700   0.01267  Uiso   1.00
H32    H     0.57990   0.18070   0.45600   0.01267  Uiso   1.00
H33    H     0.16820   0.11720   0.95860   0.01267  Uiso   1.00
H34    H     0.05560   0.24310   0.02060   0.01267  Uiso   1.00
H35    H     0.17560   0.15630   0.38580   0.01267  Uiso   1.00
H36    H     0.45780   0.07200   0.59800   0.01267  Uiso   1.00
H37    H     0.11160   0.90570   0.72740   0.01267  Uiso   1.00
H38    H     0.18110   0.87710   0.83260   0.01267  Uiso   1.00
H39    H     0.01490   0.09290   0.70600   0.01267  Uiso   1.00
H40    H     0.96540   0.99640   0.81080   0.01267  Uiso   1.00
H41    H     0.28630   0.03540   0.71460   0.01267  Uiso   1.00
H42    H     0.33950   0.92320   0.70460   0.01267  Uiso   1.00
H43    H     0.76520   0.84010   0.86000   0.01267  Uiso   1.00
H44    H     0.65090   0.02960   0.79380   0.01267  Uiso   1.00
H45    H     0.20190   0.48720   0.24700   0.01267  Uiso   1.00
H46    H     0.92010   0.36330   0.45600   0.01267  Uiso   1.00
H47    H     0.33180   0.92420   0.95860   0.01267  Uiso   1.00
H48    H     0.44440   0.73630   0.02060   0.01267  Uiso   1.00
H49    H     0.32440   0.45790   0.38580   0.01267  Uiso   1.00
H50    H     0.04220   0.33000   0.59800   0.01267  Uiso   1.00
H51    H     0.38840   0.36690   0.72740   0.01267  Uiso   1.00
H52    H     0.31890   0.29030   0.83260   0.01267  Uiso   1.00
H53    H     0.48510   0.20110   0.70600   0.01267  Uiso   1.00
H54    H     0.53460   0.19280   0.81080   0.01267  Uiso   1.00
H55    H     0.21370   0.25000   0.71460   0.01267  Uiso   1.00
H56    H     0.16050   0.37220   0.70460   0.01267  Uiso   1.00
C1     C     0.11850   0.71784   0.05112   0.01267  Uiso   1.00
C2     C     0.98020   0.86690   0.12720   0.01267  Uiso   1.00
C3     C     0.47410   0.68869   0.75282   0.01267  Uiso   1.00
C4     C     0.17800   0.73724   0.11972   0.01267  Uiso   1.00
C5     C     0.11020   0.81148   0.15944   0.01267  Uiso   1.00
C6     C     0.69560   0.89563   0.49234   0.01267  Uiso   1.00
C7     C     0.54810   0.76513   0.66274   0.01267  Uiso   1.00
C8     C     0.66990   0.77329   0.68242   0.01267  Uiso   1.00
C9     C     0.19310   0.64579   0.00302   0.01267  Uiso   1.00
C10    C     0.50190   0.82360   0.55780   0.01267  Uiso   1.00
C11    C     0.91920   0.84628   0.06104   0.01267  Uiso   1.00
C12    C     0.98690   0.77138   0.02324   0.01267  Uiso   1.00
C13    C     0.74380   0.83793   0.59974   0.01267  Uiso   1.00
C14    C     0.57490   0.88894   0.47232   0.01267  Uiso   1.00
C15    C     0.85120   0.06194   0.23832   0.01267  Uiso   1.00
C16    C     0.95840   0.97291   0.22418   0.01267  Uiso   1.00
C17    C     0.73680   0.01527   0.30586   0.01267  Uiso   1.00
C18    C     0.38150   0.23104   0.05112   0.01267  Uiso   1.00
C19    C     0.51980   0.00590   0.12720   0.01267  Uiso   1.00
C20    C     0.02590   0.55849   0.75282   0.01267  Uiso   1.00
C21    C     0.32200   0.14304   0.11972   0.01267  Uiso   1.00
C22    C     0.38980   0.02908   0.15944   0.01267  Uiso   1.00
C23    C     0.80440   0.61203   0.49234   0.01267  Uiso   1.00
C24    C     0.95190   0.57213   0.66274   0.01267  Uiso   1.00
C25    C     0.83010   0.54429   0.68242   0.01267  Uiso   1.00
C26    C     0.30690   0.35119   0.00302   0.01267  Uiso   1.00
C27    C     0.99810   0.61860   0.55780   0.01267  Uiso   1.00
C28    C     0.58080   0.09268   0.06104   0.01267  Uiso   1.00
C29    C     0.51310   0.20538   0.02324   0.01267  Uiso   1.00
C30    C     0.75620   0.56233   0.59974   0.01267  Uiso   1.00
C31    C     0.92510   0.63874   0.47232   0.01267  Uiso   1.00
C32    C     0.64880   0.69974   0.23832   0.01267  Uiso   1.00
C33    C     0.54160   0.80291   0.22418   0.01267  Uiso   1.00
C34    C     0.76320   0.67887   0.30586   0.01267  Uiso   1.00
C35    C     0.88150   0.28216   0.94888   0.01267  Uiso   1.00
C36    C     0.01980   0.13310   0.87280   0.01267  Uiso   1.00
C37    C     0.52590   0.31131   0.24718   0.01267  Uiso   1.00
C38    C     0.82200   0.26276   0.88028   0.01267  Uiso   1.00
C39    C     0.88980   0.18852   0.84056   0.01267  Uiso   1.00
C40    C     0.30440   0.10437   0.50766   0.01267  Uiso   1.00
C41    C     0.45190   0.23487   0.33726   0.01267  Uiso   1.00
C42    C     0.33010   0.22671   0.31758   0.01267  Uiso   1.00
C43    C     0.80690   0.35421   0.99698   0.01267  Uiso   1.00
C44    C     0.49810   0.17640   0.44220   0.01267  Uiso   1.00
C45    C     0.08080   0.15372   0.93896   0.01267  Uiso   1.00
C46    C     0.01310   0.22862   0.97676   0.01267  Uiso   1.00
C47    C     0.25620   0.16207   0.40026   0.01267  Uiso   1.00
C48    C     0.42510   0.11106   0.52768   0.01267  Uiso   1.00
C49    C     0.14880   0.93806   0.76168   0.01267  Uiso   1.00
C50    C     0.04160   0.02709   0.77582   0.01267  Uiso   1.00
C51    C     0.26320   0.98473   0.69414   0.01267  Uiso   1.00
C52    C     0.61850   0.76896   0.94888   0.01267  Uiso   1.00
C53    C     0.48020   0.99410   0.87280   0.01267  Uiso   1.00
C54    C     0.97410   0.44151   0.24718   0.01267  Uiso   1.00
C55    C     0.67800   0.85696   0.88028   0.01267  Uiso   1.00
C56    C     0.61020   0.97092   0.84056   0.01267  Uiso   1.00
C57    C     0.19560   0.38797   0.50766   0.01267  Uiso   1.00
C58    C     0.04810   0.42787   0.33726   0.01267  Uiso   1.00
C59    C     0.16990   0.45571   0.31758   0.01267  Uiso   1.00
C60    C     0.69310   0.64881   0.99698   0.01267  Uiso   1.00
C61    C     0.00190   0.38140   0.44220   0.01267  Uiso   1.00
C62    C     0.41920   0.90732   0.93896   0.01267  Uiso   1.00
C63    C     0.48690   0.79462   0.97676   0.01267  Uiso   1.00
C64    C     0.24380   0.43767   0.40026   0.01267  Uiso   1.00
C65    C     0.07490   0.36126   0.52768   0.01267  Uiso   1.00
C66    C     0.35120   0.30026   0.76168   0.01267  Uiso   1.00
C67    C     0.45840   0.19709   0.77582   0.01267  Uiso   1.00
C68    C     0.23680   0.32113   0.69414   0.01267  Uiso   1.00
O1     O     0.52730   0.62413   0.84354   0.01267  Uiso   1.00
O2     O     0.13010   0.62900   0.94188   0.01267  Uiso   1.00
O3     O     0.31440   0.60827   0.01810   0.01267  Uiso   1.00
O4     O     0.36010   0.69137   0.73206   0.01267  Uiso   1.00
O5     O     0.90450   0.94225   0.15870   0.01267  Uiso   1.00
O6     O     0.77900   0.95452   0.41636   0.01267  Uiso   1.00
O7     O     0.97270   0.53233   0.84354   0.01267  Uiso   1.00
O8     O     0.36990   0.42912   0.94188   0.01267  Uiso   1.00
O9     O     0.18560   0.37363   0.01810   0.01267  Uiso   1.00
O10    O     0.13990   0.57657   0.73206   0.01267  Uiso   1.00
O11    O     0.59550   0.89905   0.15870   0.01267  Uiso   1.00
O12    O     0.72100   0.62912   0.41636   0.01267  Uiso   1.00
O13    O     0.47270   0.37587   0.15646   0.01267  Uiso   1.00
O14    O     0.86990   0.37100   0.05812   0.01267  Uiso   1.00
O15    O     0.68560   0.39173   0.98190   0.01267  Uiso   1.00
O16    O     0.63990   0.30863   0.26794   0.01267  Uiso   1.00
O17    O     0.09550   0.05775   0.84130   0.01267  Uiso   1.00
O18    O     0.22100   0.04548   0.58364   0.01267  Uiso   1.00
O19    O     0.02730   0.46767   0.15646   0.01267  Uiso   1.00
O20    O     0.63010   0.57088   0.05812   0.01267  Uiso   1.00
O21    O     0.81440   0.62637   0.98190   0.01267  Uiso   1.00
O22    O     0.86010   0.42343   0.26794   0.01267  Uiso   1.00
O23    O     0.40450   0.10095   0.84130   0.01267  Uiso   1.00
O24    O     0.27900   0.37088   0.58364   0.01267  Uiso   1.00
