data_ILUHUT_clean
_audit_creation_date              2014-07-02
_audit_creation_method            'Materials Studio'
_symmetry_space_group_name_H-M    'P1'
_symmetry_Int_Tables_number       1
_symmetry_cell_setting            triclinic
loop_
_symmetry_equiv_pos_as_xyz
  x,y,z
_cell_length_a                    15.2348
_cell_length_b                    15.4997
_cell_length_c                    15.4997
_cell_angle_alpha                 120.0000
_cell_angle_beta                  90.0000
_cell_angle_gamma                 90.0000
loop_
_atom_site_label
_atom_site_type_symbol
_atom_site_fract_x
_atom_site_fract_y
_atom_site_fract_z
_atom_site_U_iso_or_equiv
_atom_site_adp_type
_atom_site_occupancy
Pr1    Pr    0.25000   0.33333   0.66666   0.01267  Uiso   1.00
Pr2    Pr    0.25000   0.66667   0.33334   0.01267  Uiso   1.00
Pr3    Pr    0.75000   0.66667   0.33334   0.01267  Uiso   1.00
Pr4    Pr    0.75000   0.33333   0.66666   0.01267  Uiso   1.00
Co1    Co    0.50000   0.00000   0.50000   0.01267  Uiso   1.00
Co2    Co    0.50000   0.50000   0.00000   0.01267  Uiso   1.00
Co3    Co    0.50000   0.50000   0.50000   0.01267  Uiso   1.00
Co4    Co    0.00000   0.50000   0.50000   0.01267  Uiso   1.00
Co5    Co    0.00000   0.50000   0.00000   0.01267  Uiso   1.00
Co6    Co    0.00000   0.00000   0.50000   0.01267  Uiso   1.00
H1     H     0.34430   0.05350   0.76650   0.01267  Uiso   1.00
H2     H     0.34430   0.71300   0.94650   0.01267  Uiso   1.00
H3     H     0.34430   0.23350   0.28700   0.01267  Uiso   1.00
H4     H     0.34430   0.94650   0.23350   0.01267  Uiso   1.00
H5     H     0.34430   0.28700   0.05350   0.01267  Uiso   1.00
H6     H     0.34430   0.76650   0.71300   0.01267  Uiso   1.00
H7     H     0.15570   0.28700   0.23350   0.01267  Uiso   1.00
H8     H     0.15570   0.76650   0.05350   0.01267  Uiso   1.00
H9     H     0.15570   0.94650   0.71300   0.01267  Uiso   1.00
H10    H     0.15570   0.71300   0.76650   0.01267  Uiso   1.00
H11    H     0.15570   0.23350   0.94650   0.01267  Uiso   1.00
H12    H     0.15570   0.05350   0.28700   0.01267  Uiso   1.00
H13    H     0.65570   0.94650   0.23350   0.01267  Uiso   1.00
H14    H     0.65570   0.28700   0.05350   0.01267  Uiso   1.00
H15    H     0.65570   0.76650   0.71300   0.01267  Uiso   1.00
H16    H     0.65570   0.05350   0.76650   0.01267  Uiso   1.00
H17    H     0.65570   0.71300   0.94650   0.01267  Uiso   1.00
H18    H     0.65570   0.23350   0.28700   0.01267  Uiso   1.00
H19    H     0.84430   0.71300   0.76650   0.01267  Uiso   1.00
H20    H     0.84430   0.23350   0.94650   0.01267  Uiso   1.00
H21    H     0.84430   0.05350   0.28700   0.01267  Uiso   1.00
H22    H     0.84430   0.28700   0.23350   0.01267  Uiso   1.00
H23    H     0.84430   0.76650   0.05350   0.01267  Uiso   1.00
H24    H     0.84430   0.94650   0.71300   0.01267  Uiso   1.00
H25    H     0.25000   0.10040   0.89960   0.01267  Uiso   1.00
H26    H     0.25000   0.79920   0.89960   0.01267  Uiso   1.00
H27    H     0.25000   0.10040   0.20080   0.01267  Uiso   1.00
H28    H     0.25000   0.89960   0.10040   0.01267  Uiso   1.00
H29    H     0.25000   0.20080   0.10040   0.01267  Uiso   1.00
H30    H     0.25000   0.89960   0.79920   0.01267  Uiso   1.00
H31    H     0.75000   0.89960   0.10040   0.01267  Uiso   1.00
H32    H     0.75000   0.20080   0.10040   0.01267  Uiso   1.00
H33    H     0.75000   0.89960   0.79920   0.01267  Uiso   1.00
H34    H     0.75000   0.10040   0.89960   0.01267  Uiso   1.00
H35    H     0.75000   0.79920   0.89960   0.01267  Uiso   1.00
H36    H     0.75000   0.10040   0.20080   0.01267  Uiso   1.00
C1     C     0.36120   0.13450   0.64680   0.01267  Uiso   1.00
C2     C     0.30370   0.15920   0.73560   0.01267  Uiso   1.00
C3     C     0.30590   0.10670   0.78570   0.01267  Uiso   1.00
C4     C     0.36120   0.51230   0.86550   0.01267  Uiso   1.00
C5     C     0.30370   0.57640   0.84080   0.01267  Uiso   1.00
C6     C     0.30590   0.67900   0.89330   0.01267  Uiso   1.00
C7     C     0.36120   0.35320   0.48770   0.01267  Uiso   1.00
C8     C     0.30370   0.26440   0.42360   0.01267  Uiso   1.00
C9     C     0.30590   0.21430   0.32100   0.01267  Uiso   1.00
C10    C     0.36120   0.86550   0.35320   0.01267  Uiso   1.00
C11    C     0.30370   0.84080   0.26440   0.01267  Uiso   1.00
C12    C     0.30590   0.89330   0.21430   0.01267  Uiso   1.00
C13    C     0.36120   0.48770   0.13450   0.01267  Uiso   1.00
C14    C     0.30370   0.42360   0.15920   0.01267  Uiso   1.00
C15    C     0.30590   0.32100   0.10670   0.01267  Uiso   1.00
C16    C     0.36120   0.64680   0.51230   0.01267  Uiso   1.00
C17    C     0.30370   0.73560   0.57640   0.01267  Uiso   1.00
C18    C     0.30590   0.78570   0.67900   0.01267  Uiso   1.00
C19    C     0.13880   0.48770   0.35320   0.01267  Uiso   1.00
C20    C     0.19630   0.42360   0.26440   0.01267  Uiso   1.00
C21    C     0.19410   0.32100   0.21430   0.01267  Uiso   1.00
C22    C     0.13880   0.64680   0.13450   0.01267  Uiso   1.00
C23    C     0.19630   0.73560   0.15920   0.01267  Uiso   1.00
C24    C     0.19410   0.78570   0.10670   0.01267  Uiso   1.00
C25    C     0.13880   0.86550   0.51230   0.01267  Uiso   1.00
C26    C     0.19630   0.84080   0.57640   0.01267  Uiso   1.00
C27    C     0.19410   0.89330   0.67900   0.01267  Uiso   1.00
C28    C     0.13880   0.51230   0.64680   0.01267  Uiso   1.00
C29    C     0.19630   0.57640   0.73560   0.01267  Uiso   1.00
C30    C     0.19410   0.67900   0.78570   0.01267  Uiso   1.00
C31    C     0.13880   0.35320   0.86550   0.01267  Uiso   1.00
C32    C     0.19630   0.26440   0.84080   0.01267  Uiso   1.00
C33    C     0.19410   0.21430   0.89330   0.01267  Uiso   1.00
C34    C     0.13880   0.13450   0.48770   0.01267  Uiso   1.00
C35    C     0.19630   0.15920   0.42360   0.01267  Uiso   1.00
C36    C     0.19410   0.10670   0.32100   0.01267  Uiso   1.00
C37    C     0.63880   0.86550   0.35320   0.01267  Uiso   1.00
C38    C     0.69630   0.84080   0.26440   0.01267  Uiso   1.00
C39    C     0.69410   0.89330   0.21430   0.01267  Uiso   1.00
C40    C     0.63880   0.48770   0.13450   0.01267  Uiso   1.00
C41    C     0.69630   0.42360   0.15920   0.01267  Uiso   1.00
C42    C     0.69410   0.32100   0.10670   0.01267  Uiso   1.00
C43    C     0.63880   0.64680   0.51230   0.01267  Uiso   1.00
C44    C     0.69630   0.73560   0.57640   0.01267  Uiso   1.00
C45    C     0.69410   0.78570   0.67900   0.01267  Uiso   1.00
C46    C     0.63880   0.13450   0.64680   0.01267  Uiso   1.00
C47    C     0.69630   0.15920   0.73560   0.01267  Uiso   1.00
C48    C     0.69410   0.10670   0.78570   0.01267  Uiso   1.00
C49    C     0.63880   0.51230   0.86550   0.01267  Uiso   1.00
C50    C     0.69630   0.57640   0.84080   0.01267  Uiso   1.00
C51    C     0.69410   0.67900   0.89330   0.01267  Uiso   1.00
C52    C     0.63880   0.35320   0.48770   0.01267  Uiso   1.00
C53    C     0.69630   0.26440   0.42360   0.01267  Uiso   1.00
C54    C     0.69410   0.21430   0.32100   0.01267  Uiso   1.00
C55    C     0.86120   0.51230   0.64680   0.01267  Uiso   1.00
C56    C     0.80370   0.57640   0.73560   0.01267  Uiso   1.00
C57    C     0.80590   0.67900   0.78570   0.01267  Uiso   1.00
C58    C     0.86120   0.35320   0.86550   0.01267  Uiso   1.00
C59    C     0.80370   0.26440   0.84080   0.01267  Uiso   1.00
C60    C     0.80590   0.21430   0.89330   0.01267  Uiso   1.00
C61    C     0.86120   0.13450   0.48770   0.01267  Uiso   1.00
C62    C     0.80370   0.15920   0.42360   0.01267  Uiso   1.00
C63    C     0.80590   0.10670   0.32100   0.01267  Uiso   1.00
C64    C     0.86120   0.48770   0.35320   0.01267  Uiso   1.00
C65    C     0.80370   0.42360   0.26440   0.01267  Uiso   1.00
C66    C     0.80590   0.32100   0.21430   0.01267  Uiso   1.00
C67    C     0.86120   0.64680   0.13450   0.01267  Uiso   1.00
C68    C     0.80370   0.73560   0.15920   0.01267  Uiso   1.00
C69    C     0.80590   0.78570   0.10670   0.01267  Uiso   1.00
C70    C     0.86120   0.86550   0.51230   0.01267  Uiso   1.00
C71    C     0.80370   0.84080   0.57640   0.01267  Uiso   1.00
C72    C     0.80590   0.89330   0.67900   0.01267  Uiso   1.00
C73    C     0.25000   0.13505   0.86495   0.01267  Uiso   1.00
C74    C     0.25000   0.72990   0.86495   0.01267  Uiso   1.00
C75    C     0.25000   0.13505   0.27010   0.01267  Uiso   1.00
C76    C     0.25000   0.86495   0.13505   0.01267  Uiso   1.00
C77    C     0.25000   0.27010   0.13505   0.01267  Uiso   1.00
C78    C     0.25000   0.86495   0.72990   0.01267  Uiso   1.00
C79    C     0.75000   0.86495   0.13505   0.01267  Uiso   1.00
C80    C     0.75000   0.27010   0.13505   0.01267  Uiso   1.00
C81    C     0.75000   0.86495   0.72990   0.01267  Uiso   1.00
C82    C     0.75000   0.13505   0.86495   0.01267  Uiso   1.00
C83    C     0.75000   0.72990   0.86495   0.01267  Uiso   1.00
C84    C     0.75000   0.13505   0.27010   0.01267  Uiso   1.00
N1     N     0.25000   0.23710   0.76290   0.01267  Uiso   1.00
N2     N     0.25000   0.52580   0.76290   0.01267  Uiso   1.00
N3     N     0.25000   0.23710   0.47420   0.01267  Uiso   1.00
N4     N     0.25000   0.76290   0.23710   0.01267  Uiso   1.00
N5     N     0.25000   0.47420   0.23710   0.01267  Uiso   1.00
N6     N     0.25000   0.76290   0.52580   0.01267  Uiso   1.00
N7     N     0.75000   0.76290   0.23710   0.01267  Uiso   1.00
N8     N     0.75000   0.47420   0.23710   0.01267  Uiso   1.00
N9     N     0.75000   0.76290   0.52580   0.01267  Uiso   1.00
N10    N     0.75000   0.23710   0.76290   0.01267  Uiso   1.00
N11    N     0.75000   0.52580   0.76290   0.01267  Uiso   1.00
N12    N     0.75000   0.23710   0.47420   0.01267  Uiso   1.00
O1     O     0.35917   0.19530   0.61401   0.01267  Uiso   1.00
O2     O     0.40580   0.05760   0.61260   0.01267  Uiso   1.00
O3     O     0.35917   0.41871   0.80470   0.01267  Uiso   1.00
O4     O     0.40580   0.55500   0.94240   0.01267  Uiso   1.00
O5     O     0.35917   0.38599   0.58129   0.01267  Uiso   1.00
O6     O     0.40580   0.38740   0.44500   0.01267  Uiso   1.00
O7     O     0.35917   0.80470   0.38599   0.01267  Uiso   1.00
O8     O     0.40580   0.94240   0.38740   0.01267  Uiso   1.00
O9     O     0.35917   0.58129   0.19530   0.01267  Uiso   1.00
O10    O     0.40580   0.44500   0.05760   0.01267  Uiso   1.00
O11    O     0.35917   0.61401   0.41871   0.01267  Uiso   1.00
O12    O     0.40580   0.61260   0.55500   0.01267  Uiso   1.00
O13    O     0.14083   0.58129   0.38599   0.01267  Uiso   1.00
O14    O     0.09420   0.44500   0.38740   0.01267  Uiso   1.00
O15    O     0.14083   0.61401   0.19530   0.01267  Uiso   1.00
O16    O     0.09420   0.61260   0.05760   0.01267  Uiso   1.00
O17    O     0.14083   0.80470   0.41871   0.01267  Uiso   1.00
O18    O     0.09420   0.94240   0.55500   0.01267  Uiso   1.00
O19    O     0.14083   0.41871   0.61401   0.01267  Uiso   1.00
O20    O     0.09420   0.55500   0.61260   0.01267  Uiso   1.00
O21    O     0.14083   0.38599   0.80470   0.01267  Uiso   1.00
O22    O     0.09420   0.38740   0.94240   0.01267  Uiso   1.00
O23    O     0.14083   0.19530   0.58129   0.01267  Uiso   1.00
O24    O     0.09420   0.05760   0.44500   0.01267  Uiso   1.00
O25    O     0.64083   0.80470   0.38599   0.01267  Uiso   1.00
O26    O     0.59420   0.94240   0.38740   0.01267  Uiso   1.00
O27    O     0.64083   0.58129   0.19530   0.01267  Uiso   1.00
O28    O     0.59420   0.44500   0.05760   0.01267  Uiso   1.00
O29    O     0.64083   0.61401   0.41871   0.01267  Uiso   1.00
O30    O     0.59420   0.61260   0.55500   0.01267  Uiso   1.00
O31    O     0.64083   0.19530   0.61401   0.01267  Uiso   1.00
O32    O     0.59420   0.05760   0.61260   0.01267  Uiso   1.00
O33    O     0.64083   0.41871   0.80470   0.01267  Uiso   1.00
O34    O     0.59420   0.55500   0.94240   0.01267  Uiso   1.00
O35    O     0.64083   0.38599   0.58129   0.01267  Uiso   1.00
O36    O     0.59420   0.38740   0.44500   0.01267  Uiso   1.00
O37    O     0.85917   0.41871   0.61401   0.01267  Uiso   1.00
O38    O     0.90580   0.55500   0.61260   0.01267  Uiso   1.00
O39    O     0.85917   0.38599   0.80470   0.01267  Uiso   1.00
O40    O     0.90580   0.38740   0.94240   0.01267  Uiso   1.00
O41    O     0.85917   0.19530   0.58129   0.01267  Uiso   1.00
O42    O     0.90580   0.05760   0.44500   0.01267  Uiso   1.00
O43    O     0.85917   0.58129   0.38599   0.01267  Uiso   1.00
O44    O     0.90580   0.44500   0.38740   0.01267  Uiso   1.00
O45    O     0.85917   0.61401   0.19530   0.01267  Uiso   1.00
O46    O     0.90580   0.61260   0.05760   0.01267  Uiso   1.00
O47    O     0.85917   0.80470   0.41871   0.01267  Uiso   1.00
O48    O     0.90580   0.94240   0.55500   0.01267  Uiso   1.00
