data_ILUJAB_clean
_audit_creation_date              2014-07-02
_audit_creation_method            'Materials Studio'
_symmetry_space_group_name_H-M    'P1'
_symmetry_Int_Tables_number       1
_symmetry_cell_setting            triclinic
loop_
_symmetry_equiv_pos_as_xyz
  x,y,z
_cell_length_a                    15.3540
_cell_length_b                    15.5140
_cell_length_c                    15.5140
_cell_angle_alpha                 120.0000
_cell_angle_beta                  90.0000
_cell_angle_gamma                 90.0000
loop_
_atom_site_label
_atom_site_type_symbol
_atom_site_fract_x
_atom_site_fract_y
_atom_site_fract_z
_atom_site_U_iso_or_equiv
_atom_site_adp_type
_atom_site_occupancy
Pr1    Pr    0.75000   0.66667   0.33334   0.01267  Uiso   1.00
Pr2    Pr    0.75000   0.33333   0.66666   0.01267  Uiso   1.00
Pr3    Pr    0.25000   0.33333   0.66666   0.01267  Uiso   1.00
Pr4    Pr    0.25000   0.66667   0.33334   0.01267  Uiso   1.00
Fe1    Fe    0.00000   0.50000   0.50000   0.01267  Uiso   1.00
Fe2    Fe    0.00000   0.00000   0.50000   0.01267  Uiso   1.00
Fe3    Fe    0.00000   0.50000  -0.00000   0.01267  Uiso   1.00
Fe4    Fe    0.50000  -0.00000   0.50000   0.01267  Uiso   1.00
Fe5    Fe    0.50000   0.50000   0.50000   0.01267  Uiso   1.00
Fe6    Fe    0.50000   0.50000  -0.00000   0.01267  Uiso   1.00
H1     H     0.84440   0.76630   0.71280   0.01267  Uiso   1.00
H2     H     0.84440   0.94650   0.23370   0.01267  Uiso   1.00
H3     H     0.84440   0.28720   0.05350   0.01267  Uiso   1.00
H4     H     0.84440   0.23370   0.28720   0.01267  Uiso   1.00
H5     H     0.84440   0.05350   0.76630   0.01267  Uiso   1.00
H6     H     0.84440   0.71280   0.94650   0.01267  Uiso   1.00
H7     H     0.65560   0.05350   0.28720   0.01267  Uiso   1.00
H8     H     0.65560   0.71280   0.76630   0.01267  Uiso   1.00
H9     H     0.65560   0.23370   0.94650   0.01267  Uiso   1.00
H10    H     0.65560   0.94650   0.71280   0.01267  Uiso   1.00
H11    H     0.65560   0.28720   0.23370   0.01267  Uiso   1.00
H12    H     0.65560   0.76630   0.05350   0.01267  Uiso   1.00
H13    H     0.15560   0.23370   0.28720   0.01267  Uiso   1.00
H14    H     0.15560   0.05350   0.76630   0.01267  Uiso   1.00
H15    H     0.15560   0.71280   0.94650   0.01267  Uiso   1.00
H16    H     0.15560   0.76630   0.71280   0.01267  Uiso   1.00
H17    H     0.15560   0.94650   0.23370   0.01267  Uiso   1.00
H18    H     0.15560   0.28720   0.05350   0.01267  Uiso   1.00
H19    H     0.34440   0.94650   0.71280   0.01267  Uiso   1.00
H20    H     0.34440   0.28720   0.23370   0.01267  Uiso   1.00
H21    H     0.34440   0.76630   0.05350   0.01267  Uiso   1.00
H22    H     0.34440   0.05350   0.28720   0.01267  Uiso   1.00
H23    H     0.34440   0.71280   0.76630   0.01267  Uiso   1.00
H24    H     0.34440   0.23370   0.94650   0.01267  Uiso   1.00
H25    H     0.75000   0.89990   0.79980   0.01267  Uiso   1.00
H26    H     0.75000   0.89990   0.10010   0.01267  Uiso   1.00
H27    H     0.75000   0.20020   0.10010   0.01267  Uiso   1.00
H28    H     0.75000   0.10010   0.20020   0.01267  Uiso   1.00
H29    H     0.75000   0.10010   0.89990   0.01267  Uiso   1.00
H30    H     0.75000   0.79980   0.89990   0.01267  Uiso   1.00
H31    H     0.25000   0.10010   0.20020   0.01267  Uiso   1.00
H32    H     0.25000   0.10010   0.89990   0.01267  Uiso   1.00
H33    H     0.25000   0.79980   0.89990   0.01267  Uiso   1.00
H34    H     0.25000   0.89990   0.79980   0.01267  Uiso   1.00
H35    H     0.25000   0.89990   0.10010   0.01267  Uiso   1.00
H36    H     0.25000   0.20020   0.10010   0.01267  Uiso   1.00
C1     C     0.80360   0.73570   0.57650   0.01267  Uiso   1.00
C2     C     0.80610   0.78560   0.67910   0.01267  Uiso   1.00
C3     C     0.86100   0.64700   0.51240   0.01267  Uiso   1.00
C4     C     0.80360   0.84080   0.26430   0.01267  Uiso   1.00
C5     C     0.80610   0.89350   0.21440   0.01267  Uiso   1.00
C6     C     0.86100   0.86540   0.35300   0.01267  Uiso   1.00
C7     C     0.80360   0.42350   0.15920   0.01267  Uiso   1.00
C8     C     0.80610   0.32090   0.10650   0.01267  Uiso   1.00
C9     C     0.86100   0.48760   0.13460   0.01267  Uiso   1.00
C10    C     0.80360   0.26430   0.42350   0.01267  Uiso   1.00
C11    C     0.80610   0.21440   0.32090   0.01267  Uiso   1.00
C12    C     0.86100   0.35300   0.48760   0.01267  Uiso   1.00
C13    C     0.80360   0.15920   0.73570   0.01267  Uiso   1.00
C14    C     0.80610   0.10650   0.78560   0.01267  Uiso   1.00
C15    C     0.86100   0.13460   0.64700   0.01267  Uiso   1.00
C16    C     0.80360   0.57650   0.84080   0.01267  Uiso   1.00
C17    C     0.80610   0.67910   0.89350   0.01267  Uiso   1.00
C18    C     0.86100   0.51240   0.86540   0.01267  Uiso   1.00
C19    C     0.69640   0.15920   0.42350   0.01267  Uiso   1.00
C20    C     0.69390   0.10650   0.32090   0.01267  Uiso   1.00
C21    C     0.63900   0.13460   0.48760   0.01267  Uiso   1.00
C22    C     0.69640   0.57650   0.73570   0.01267  Uiso   1.00
C23    C     0.69390   0.67910   0.78560   0.01267  Uiso   1.00
C24    C     0.63900   0.51240   0.64700   0.01267  Uiso   1.00
C25    C     0.69640   0.26430   0.84080   0.01267  Uiso   1.00
C26    C     0.69390   0.21440   0.89350   0.01267  Uiso   1.00
C27    C     0.63900   0.35300   0.86540   0.01267  Uiso   1.00
C28    C     0.69640   0.84080   0.57650   0.01267  Uiso   1.00
C29    C     0.69390   0.89350   0.67910   0.01267  Uiso   1.00
C30    C     0.63900   0.86540   0.51240   0.01267  Uiso   1.00
C31    C     0.69640   0.42350   0.26430   0.01267  Uiso   1.00
C32    C     0.69390   0.32090   0.21440   0.01267  Uiso   1.00
C33    C     0.63900   0.48760   0.35300   0.01267  Uiso   1.00
C34    C     0.69640   0.73570   0.15920   0.01267  Uiso   1.00
C35    C     0.69390   0.78560   0.10650   0.01267  Uiso   1.00
C36    C     0.63900   0.64700   0.13460   0.01267  Uiso   1.00
C37    C     0.19640   0.26430   0.42350   0.01267  Uiso   1.00
C38    C     0.19390   0.21440   0.32090   0.01267  Uiso   1.00
C39    C     0.13900   0.35300   0.48760   0.01267  Uiso   1.00
C40    C     0.19640   0.15920   0.73570   0.01267  Uiso   1.00
C41    C     0.19390   0.10650   0.78560   0.01267  Uiso   1.00
C42    C     0.13900   0.13460   0.64700   0.01267  Uiso   1.00
C43    C     0.19640   0.57650   0.84080   0.01267  Uiso   1.00
C44    C     0.19390   0.67910   0.89350   0.01267  Uiso   1.00
C45    C     0.13900   0.51240   0.86540   0.01267  Uiso   1.00
C46    C     0.19640   0.73570   0.57650   0.01267  Uiso   1.00
C47    C     0.19390   0.78560   0.67910   0.01267  Uiso   1.00
C48    C     0.13900   0.64700   0.51240   0.01267  Uiso   1.00
C49    C     0.19640   0.84080   0.26430   0.01267  Uiso   1.00
C50    C     0.19390   0.89350   0.21440   0.01267  Uiso   1.00
C51    C     0.13900   0.86540   0.35300   0.01267  Uiso   1.00
C52    C     0.19640   0.42350   0.15920   0.01267  Uiso   1.00
C53    C     0.19390   0.32090   0.10650   0.01267  Uiso   1.00
C54    C     0.13900   0.48760   0.13460   0.01267  Uiso   1.00
C55    C     0.30360   0.84080   0.57650   0.01267  Uiso   1.00
C56    C     0.30610   0.89350   0.67910   0.01267  Uiso   1.00
C57    C     0.36100   0.86540   0.51240   0.01267  Uiso   1.00
C58    C     0.30360   0.42350   0.26430   0.01267  Uiso   1.00
C59    C     0.30610   0.32090   0.21440   0.01267  Uiso   1.00
C60    C     0.36100   0.48760   0.35300   0.01267  Uiso   1.00
C61    C     0.30360   0.73570   0.15920   0.01267  Uiso   1.00
C62    C     0.30610   0.78560   0.10650   0.01267  Uiso   1.00
C63    C     0.36100   0.64700   0.13460   0.01267  Uiso   1.00
C64    C     0.30360   0.15920   0.42350   0.01267  Uiso   1.00
C65    C     0.30610   0.10650   0.32090   0.01267  Uiso   1.00
C66    C     0.36100   0.13460   0.48760   0.01267  Uiso   1.00
C67    C     0.30360   0.57650   0.73570   0.01267  Uiso   1.00
C68    C     0.30610   0.67910   0.78560   0.01267  Uiso   1.00
C69    C     0.36100   0.51240   0.64700   0.01267  Uiso   1.00
C70    C     0.30360   0.26430   0.84080   0.01267  Uiso   1.00
C71    C     0.30610   0.21440   0.89350   0.01267  Uiso   1.00
C72    C     0.36100   0.35300   0.86540   0.01267  Uiso   1.00
C73    C     0.75000   0.86530   0.73060   0.01267  Uiso   1.00
C74    C     0.75000   0.86530   0.13470   0.01267  Uiso   1.00
C75    C     0.75000   0.26940   0.13470   0.01267  Uiso   1.00
C76    C     0.75000   0.13470   0.26940   0.01267  Uiso   1.00
C77    C     0.75000   0.13470   0.86530   0.01267  Uiso   1.00
C78    C     0.75000   0.73060   0.86530   0.01267  Uiso   1.00
C79    C     0.25000   0.13470   0.26940   0.01267  Uiso   1.00
C80    C     0.25000   0.13470   0.86530   0.01267  Uiso   1.00
C81    C     0.25000   0.73060   0.86530   0.01267  Uiso   1.00
C82    C     0.25000   0.86530   0.73060   0.01267  Uiso   1.00
C83    C     0.25000   0.86530   0.13470   0.01267  Uiso   1.00
C84    C     0.25000   0.26940   0.13470   0.01267  Uiso   1.00
N1     N     0.75000   0.76291   0.52582   0.01267  Uiso   1.00
N2     N     0.75000   0.76291   0.23709   0.01267  Uiso   1.00
N3     N     0.75000   0.47418   0.23709   0.01267  Uiso   1.00
N4     N     0.75000   0.23709   0.47418   0.01267  Uiso   1.00
N5     N     0.75000   0.23709   0.76291   0.01267  Uiso   1.00
N6     N     0.75000   0.52582   0.76291   0.01267  Uiso   1.00
N7     N     0.25000   0.23709   0.47418   0.01267  Uiso   1.00
N8     N     0.25000   0.23709   0.76291   0.01267  Uiso   1.00
N9     N     0.25000   0.52582   0.76291   0.01267  Uiso   1.00
N10    N     0.25000   0.76291   0.52582   0.01267  Uiso   1.00
N11    N     0.25000   0.76291   0.23709   0.01267  Uiso   1.00
N12    N     0.25000   0.47418   0.23709   0.01267  Uiso   1.00
O1     O     0.85898   0.61400   0.41860   0.01267  Uiso   1.00
O2     O     0.90570   0.61260   0.55500   0.01267  Uiso   1.00
O3     O     0.85898   0.80460   0.38600   0.01267  Uiso   1.00
O4     O     0.90570   0.94240   0.38740   0.01267  Uiso   1.00
O5     O     0.85898   0.58140   0.19540   0.01267  Uiso   1.00
O6     O     0.90570   0.44500   0.05760   0.01267  Uiso   1.00
O7     O     0.85898   0.38600   0.58140   0.01267  Uiso   1.00
O8     O     0.90570   0.38740   0.44500   0.01267  Uiso   1.00
O9     O     0.85898   0.19540   0.61400   0.01267  Uiso   1.00
O10    O     0.90570   0.05760   0.61260   0.01267  Uiso   1.00
O11    O     0.85898   0.41860   0.80460   0.01267  Uiso   1.00
O12    O     0.90570   0.55500   0.94240   0.01267  Uiso   1.00
O13    O     0.64102   0.19540   0.58140   0.01267  Uiso   1.00
O14    O     0.59430   0.05760   0.44500   0.01267  Uiso   1.00
O15    O     0.64102   0.41860   0.61400   0.01267  Uiso   1.00
O16    O     0.59430   0.55500   0.61260   0.01267  Uiso   1.00
O17    O     0.64102   0.38600   0.80460   0.01267  Uiso   1.00
O18    O     0.59430   0.38740   0.94240   0.01267  Uiso   1.00
O19    O     0.64102   0.80460   0.41860   0.01267  Uiso   1.00
O20    O     0.59430   0.94240   0.55500   0.01267  Uiso   1.00
O21    O     0.64102   0.58140   0.38600   0.01267  Uiso   1.00
O22    O     0.59430   0.44500   0.38740   0.01267  Uiso   1.00
O23    O     0.64102   0.61400   0.19540   0.01267  Uiso   1.00
O24    O     0.59430   0.61260   0.05760   0.01267  Uiso   1.00
O25    O     0.14102   0.38600   0.58140   0.01267  Uiso   1.00
O26    O     0.09430   0.38740   0.44500   0.01267  Uiso   1.00
O27    O     0.14102   0.19540   0.61400   0.01267  Uiso   1.00
O28    O     0.09430   0.05760   0.61260   0.01267  Uiso   1.00
O29    O     0.14102   0.41860   0.80460   0.01267  Uiso   1.00
O30    O     0.09430   0.55500   0.94240   0.01267  Uiso   1.00
O31    O     0.14102   0.61400   0.41860   0.01267  Uiso   1.00
O32    O     0.09430   0.61260   0.55500   0.01267  Uiso   1.00
O33    O     0.14102   0.80460   0.38600   0.01267  Uiso   1.00
O34    O     0.09430   0.94240   0.38740   0.01267  Uiso   1.00
O35    O     0.14102   0.58140   0.19540   0.01267  Uiso   1.00
O36    O     0.09430   0.44500   0.05760   0.01267  Uiso   1.00
O37    O     0.35898   0.80460   0.41860   0.01267  Uiso   1.00
O38    O     0.40570   0.94240   0.55500   0.01267  Uiso   1.00
O39    O     0.35898   0.58140   0.38600   0.01267  Uiso   1.00
O40    O     0.40570   0.44500   0.38740   0.01267  Uiso   1.00
O41    O     0.35898   0.61400   0.19540   0.01267  Uiso   1.00
O42    O     0.40570   0.61260   0.05760   0.01267  Uiso   1.00
O43    O     0.35898   0.19540   0.58140   0.01267  Uiso   1.00
O44    O     0.40570   0.05760   0.44500   0.01267  Uiso   1.00
O45    O     0.35898   0.41860   0.61400   0.01267  Uiso   1.00
O46    O     0.40570   0.55500   0.61260   0.01267  Uiso   1.00
O47    O     0.35898   0.38600   0.80460   0.01267  Uiso   1.00
O48    O     0.40570   0.38740   0.94240   0.01267  Uiso   1.00
