data_ILUJIJ_clean
_audit_creation_date              2014-07-02
_audit_creation_method            'Materials Studio'
_symmetry_space_group_name_H-M    'P1'
_symmetry_Int_Tables_number       1
_symmetry_cell_setting            triclinic
loop_
_symmetry_equiv_pos_as_xyz
  x,y,z
_cell_length_a                    15.4050
_cell_length_b                    15.4050
_cell_length_c                    15.4560
_cell_angle_alpha                 90.0000
_cell_angle_beta                  90.0000
_cell_angle_gamma                 120.0000
loop_
_atom_site_label
_atom_site_type_symbol
_atom_site_fract_x
_atom_site_fract_y
_atom_site_fract_z
_atom_site_U_iso_or_equiv
_atom_site_adp_type
_atom_site_occupancy
Sm1    Sm    0.33333   0.66666   0.75000   0.01267  Uiso   1.00
Sm2    Sm    0.66667   0.33334   0.75000   0.01267  Uiso   1.00
Sm3    Sm    0.66667   0.33334   0.25000   0.01267  Uiso   1.00
Sm4    Sm    0.33333   0.66666   0.25000   0.01267  Uiso   1.00
Fe1    Fe    0.50000   0.00000   0.00000   0.01267  Uiso   1.00
Fe2    Fe    0.50000   0.50000   0.00000   0.01267  Uiso   1.00
Fe3    Fe    0.00000   0.50000   0.00000   0.01267  Uiso   1.00
Fe4    Fe    0.50000   0.00000   0.50000   0.01267  Uiso   1.00
Fe5    Fe    0.00000   0.50000   0.50000   0.01267  Uiso   1.00
Fe6    Fe    0.50000   0.50000   0.50000   0.01267  Uiso   1.00
H1     H     0.71280   0.94630   0.84450   0.01267  Uiso   1.00
H2     H     0.23350   0.28720   0.84450   0.01267  Uiso   1.00
H3     H     0.05370   0.76650   0.84450   0.01267  Uiso   1.00
H4     H     0.28720   0.05370   0.84450   0.01267  Uiso   1.00
H5     H     0.76650   0.71280   0.84450   0.01267  Uiso   1.00
H6     H     0.94630   0.23350   0.84450   0.01267  Uiso   1.00
H7     H     0.76650   0.05370   0.65550   0.01267  Uiso   1.00
H8     H     0.94630   0.71280   0.65550   0.01267  Uiso   1.00
H9     H     0.28720   0.23350   0.65550   0.01267  Uiso   1.00
H10    H     0.23350   0.94630   0.65550   0.01267  Uiso   1.00
H11    H     0.05370   0.28720   0.65550   0.01267  Uiso   1.00
H12    H     0.71280   0.76650   0.65550   0.01267  Uiso   1.00
H13    H     0.28720   0.05370   0.15550   0.01267  Uiso   1.00
H14    H     0.76650   0.71280   0.15550   0.01267  Uiso   1.00
H15    H     0.94630   0.23350   0.15550   0.01267  Uiso   1.00
H16    H     0.71280   0.94630   0.15550   0.01267  Uiso   1.00
H17    H     0.23350   0.28720   0.15550   0.01267  Uiso   1.00
H18    H     0.05370   0.76650   0.15550   0.01267  Uiso   1.00
H19    H     0.23350   0.94630   0.34450   0.01267  Uiso   1.00
H20    H     0.05370   0.28720   0.34450   0.01267  Uiso   1.00
H21    H     0.71280   0.76650   0.34450   0.01267  Uiso   1.00
H22    H     0.76650   0.05370   0.34450   0.01267  Uiso   1.00
H23    H     0.94630   0.71280   0.34450   0.01267  Uiso   1.00
H24    H     0.28720   0.23350   0.34450   0.01267  Uiso   1.00
H25    H     0.80010   0.90005   0.75000   0.01267  Uiso   1.00
H26    H     0.09995   0.19990   0.75000   0.01267  Uiso   1.00
H27    H     0.09995   0.90005   0.75000   0.01267  Uiso   1.00
H28    H     0.19990   0.09995   0.75000   0.01267  Uiso   1.00
H29    H     0.90005   0.80010   0.75000   0.01267  Uiso   1.00
H30    H     0.90005   0.09995   0.75000   0.01267  Uiso   1.00
H31    H     0.19990   0.09995   0.25000   0.01267  Uiso   1.00
H32    H     0.90005   0.80010   0.25000   0.01267  Uiso   1.00
H33    H     0.90005   0.09995   0.25000   0.01267  Uiso   1.00
H34    H     0.80010   0.90005   0.25000   0.01267  Uiso   1.00
H35    H     0.09995   0.19990   0.25000   0.01267  Uiso   1.00
H36    H     0.09995   0.90005   0.25000   0.01267  Uiso   1.00
C1     C     0.51000   0.86400   0.86160   0.01267  Uiso   1.00
C2     C     0.57530   0.84010   0.80350   0.01267  Uiso   1.00
C3     C     0.67880   0.89320   0.80620   0.01267  Uiso   1.00
C4     C     0.35400   0.49000   0.86160   0.01267  Uiso   1.00
C5     C     0.26480   0.42470   0.80350   0.01267  Uiso   1.00
C6     C     0.21440   0.32120   0.80620   0.01267  Uiso   1.00
C7     C     0.13600   0.64600   0.86160   0.01267  Uiso   1.00
C8     C     0.15990   0.73520   0.80350   0.01267  Uiso   1.00
C9     C     0.10680   0.78560   0.80620   0.01267  Uiso   1.00
C10    C     0.49000   0.13600   0.86160   0.01267  Uiso   1.00
C11    C     0.42470   0.15990   0.80350   0.01267  Uiso   1.00
C12    C     0.32120   0.10680   0.80620   0.01267  Uiso   1.00
C13    C     0.64600   0.51000   0.86160   0.01267  Uiso   1.00
C14    C     0.73520   0.57530   0.80350   0.01267  Uiso   1.00
C15    C     0.78560   0.67880   0.80620   0.01267  Uiso   1.00
C16    C     0.86400   0.35400   0.86160   0.01267  Uiso   1.00
C17    C     0.84010   0.26480   0.80350   0.01267  Uiso   1.00
C18    C     0.89320   0.21440   0.80620   0.01267  Uiso   1.00
C19    C     0.64600   0.13600   0.63840   0.01267  Uiso   1.00
C20    C     0.73520   0.15990   0.69650   0.01267  Uiso   1.00
C21    C     0.78560   0.10680   0.69380   0.01267  Uiso   1.00
C22    C     0.86400   0.51000   0.63840   0.01267  Uiso   1.00
C23    C     0.84010   0.57530   0.69650   0.01267  Uiso   1.00
C24    C     0.89320   0.67880   0.69380   0.01267  Uiso   1.00
C25    C     0.49000   0.35400   0.63840   0.01267  Uiso   1.00
C26    C     0.42470   0.26480   0.69650   0.01267  Uiso   1.00
C27    C     0.32120   0.21440   0.69380   0.01267  Uiso   1.00
C28    C     0.35400   0.86400   0.63840   0.01267  Uiso   1.00
C29    C     0.26480   0.84010   0.69650   0.01267  Uiso   1.00
C30    C     0.21440   0.89320   0.69380   0.01267  Uiso   1.00
C31    C     0.13600   0.49000   0.63840   0.01267  Uiso   1.00
C32    C     0.15990   0.42470   0.69650   0.01267  Uiso   1.00
C33    C     0.10680   0.32120   0.69380   0.01267  Uiso   1.00
C34    C     0.51000   0.64600   0.63840   0.01267  Uiso   1.00
C35    C     0.57530   0.73520   0.69650   0.01267  Uiso   1.00
C36    C     0.67880   0.78560   0.69380   0.01267  Uiso   1.00
C37    C     0.49000   0.13600   0.13840   0.01267  Uiso   1.00
C38    C     0.42470   0.15990   0.19650   0.01267  Uiso   1.00
C39    C     0.32120   0.10680   0.19380   0.01267  Uiso   1.00
C40    C     0.64600   0.51000   0.13840   0.01267  Uiso   1.00
C41    C     0.73520   0.57530   0.19650   0.01267  Uiso   1.00
C42    C     0.78560   0.67880   0.19380   0.01267  Uiso   1.00
C43    C     0.86400   0.35400   0.13840   0.01267  Uiso   1.00
C44    C     0.84010   0.26480   0.19650   0.01267  Uiso   1.00
C45    C     0.89320   0.21440   0.19380   0.01267  Uiso   1.00
C46    C     0.51000   0.86400   0.13840   0.01267  Uiso   1.00
C47    C     0.57530   0.84010   0.19650   0.01267  Uiso   1.00
C48    C     0.67880   0.89320   0.19380   0.01267  Uiso   1.00
C49    C     0.35400   0.49000   0.13840   0.01267  Uiso   1.00
C50    C     0.26480   0.42470   0.19650   0.01267  Uiso   1.00
C51    C     0.21440   0.32120   0.19380   0.01267  Uiso   1.00
C52    C     0.13600   0.64600   0.13840   0.01267  Uiso   1.00
C53    C     0.15990   0.73520   0.19650   0.01267  Uiso   1.00
C54    C     0.10680   0.78560   0.19380   0.01267  Uiso   1.00
C55    C     0.35400   0.86400   0.36160   0.01267  Uiso   1.00
C56    C     0.26480   0.84010   0.30350   0.01267  Uiso   1.00
C57    C     0.21440   0.89320   0.30620   0.01267  Uiso   1.00
C58    C     0.13600   0.49000   0.36160   0.01267  Uiso   1.00
C59    C     0.15990   0.42470   0.30350   0.01267  Uiso   1.00
C60    C     0.10680   0.32120   0.30620   0.01267  Uiso   1.00
C61    C     0.51000   0.64600   0.36160   0.01267  Uiso   1.00
C62    C     0.57530   0.73520   0.30350   0.01267  Uiso   1.00
C63    C     0.67880   0.78560   0.30620   0.01267  Uiso   1.00
C64    C     0.64600   0.13600   0.36160   0.01267  Uiso   1.00
C65    C     0.73520   0.15990   0.30350   0.01267  Uiso   1.00
C66    C     0.78560   0.10680   0.30620   0.01267  Uiso   1.00
C67    C     0.86400   0.51000   0.36160   0.01267  Uiso   1.00
C68    C     0.84010   0.57530   0.30350   0.01267  Uiso   1.00
C69    C     0.89320   0.67880   0.30620   0.01267  Uiso   1.00
C70    C     0.49000   0.35400   0.36160   0.01267  Uiso   1.00
C71    C     0.42470   0.26480   0.30350   0.01267  Uiso   1.00
C72    C     0.32120   0.21440   0.30620   0.01267  Uiso   1.00
C73    C     0.73040   0.86520   0.75000   0.01267  Uiso   1.00
C74    C     0.13480   0.26960   0.75000   0.01267  Uiso   1.00
C75    C     0.13480   0.86520   0.75000   0.01267  Uiso   1.00
C76    C     0.26960   0.13480   0.75000   0.01267  Uiso   1.00
C77    C     0.86520   0.73040   0.75000   0.01267  Uiso   1.00
C78    C     0.86520   0.13480   0.75000   0.01267  Uiso   1.00
C79    C     0.26960   0.13480   0.25000   0.01267  Uiso   1.00
C80    C     0.86520   0.73040   0.25000   0.01267  Uiso   1.00
C81    C     0.86520   0.13480   0.25000   0.01267  Uiso   1.00
C82    C     0.73040   0.86520   0.25000   0.01267  Uiso   1.00
C83    C     0.13480   0.26960   0.25000   0.01267  Uiso   1.00
C84    C     0.13480   0.86520   0.25000   0.01267  Uiso   1.00
N1     N     0.52430   0.76215   0.75000   0.01267  Uiso   1.00
N2     N     0.23785   0.47570   0.75000   0.01267  Uiso   1.00
N3     N     0.23785   0.76215   0.75000   0.01267  Uiso   1.00
N4     N     0.47570   0.23785   0.75000   0.01267  Uiso   1.00
N5     N     0.76215   0.52430   0.75000   0.01267  Uiso   1.00
N6     N     0.76215   0.23785   0.75000   0.01267  Uiso   1.00
N7     N     0.47570   0.23785   0.25000   0.01267  Uiso   1.00
N8     N     0.76215   0.52430   0.25000   0.01267  Uiso   1.00
N9     N     0.76215   0.23785   0.25000   0.01267  Uiso   1.00
N10    N     0.52430   0.76215   0.25000   0.01267  Uiso   1.00
N11    N     0.23785   0.47570   0.25000   0.01267  Uiso   1.00
N12    N     0.23785   0.76215   0.25000   0.01267  Uiso   1.00
O1     O     0.55340   0.94060   0.90660   0.01267  Uiso   1.00
O2     O     0.41540   0.80330   0.85710   0.01267  Uiso   1.00
O3     O     0.38720   0.44660   0.90660   0.01267  Uiso   1.00
O4     O     0.38790   0.58460   0.85710   0.01267  Uiso   1.00
O5     O     0.05940   0.61280   0.90660   0.01267  Uiso   1.00
O6     O     0.19670   0.61210   0.85710   0.01267  Uiso   1.00
O7     O     0.44660   0.05940   0.90660   0.01267  Uiso   1.00
O8     O     0.58460   0.19670   0.85710   0.01267  Uiso   1.00
O9     O     0.61280   0.55340   0.90660   0.01267  Uiso   1.00
O10    O     0.61210   0.41540   0.85710   0.01267  Uiso   1.00
O11    O     0.94060   0.38720   0.90660   0.01267  Uiso   1.00
O12    O     0.80330   0.38790   0.85710   0.01267  Uiso   1.00
O13    O     0.61280   0.05940   0.59340   0.01267  Uiso   1.00
O14    O     0.61210   0.19670   0.64290   0.01267  Uiso   1.00
O15    O     0.94060   0.55340   0.59340   0.01267  Uiso   1.00
O16    O     0.80330   0.41540   0.64290   0.01267  Uiso   1.00
O17    O     0.44660   0.38720   0.59340   0.01267  Uiso   1.00
O18    O     0.58460   0.38790   0.64290   0.01267  Uiso   1.00
O19    O     0.38720   0.94060   0.59340   0.01267  Uiso   1.00
O20    O     0.38790   0.80330   0.64290   0.01267  Uiso   1.00
O21    O     0.05940   0.44660   0.59340   0.01267  Uiso   1.00
O22    O     0.19670   0.58460   0.64290   0.01267  Uiso   1.00
O23    O     0.55340   0.61280   0.59340   0.01267  Uiso   1.00
O24    O     0.41540   0.61210   0.64290   0.01267  Uiso   1.00
O25    O     0.44660   0.05940   0.09340   0.01267  Uiso   1.00
O26    O     0.58460   0.19670   0.14290   0.01267  Uiso   1.00
O27    O     0.61280   0.55340   0.09340   0.01267  Uiso   1.00
O28    O     0.61210   0.41540   0.14290   0.01267  Uiso   1.00
O29    O     0.94060   0.38720   0.09340   0.01267  Uiso   1.00
O30    O     0.80330   0.38790   0.14290   0.01267  Uiso   1.00
O31    O     0.55340   0.94060   0.09340   0.01267  Uiso   1.00
O32    O     0.41540   0.80330   0.14290   0.01267  Uiso   1.00
O33    O     0.38720   0.44660   0.09340   0.01267  Uiso   1.00
O34    O     0.38790   0.58460   0.14290   0.01267  Uiso   1.00
O35    O     0.05940   0.61280   0.09340   0.01267  Uiso   1.00
O36    O     0.19670   0.61210   0.14290   0.01267  Uiso   1.00
O37    O     0.38720   0.94060   0.40660   0.01267  Uiso   1.00
O38    O     0.38790   0.80330   0.35710   0.01267  Uiso   1.00
O39    O     0.05940   0.44660   0.40660   0.01267  Uiso   1.00
O40    O     0.19670   0.58460   0.35710   0.01267  Uiso   1.00
O41    O     0.55340   0.61280   0.40660   0.01267  Uiso   1.00
O42    O     0.41540   0.61210   0.35710   0.01267  Uiso   1.00
O43    O     0.61280   0.05940   0.40660   0.01267  Uiso   1.00
O44    O     0.61210   0.19670   0.35710   0.01267  Uiso   1.00
O45    O     0.94060   0.55340   0.40660   0.01267  Uiso   1.00
O46    O     0.80330   0.41540   0.35710   0.01267  Uiso   1.00
O47    O     0.44660   0.38720   0.40660   0.01267  Uiso   1.00
O48    O     0.58460   0.38790   0.35710   0.01267  Uiso   1.00
