data_image0
_cell_length_a       8.356
_cell_length_b       14.164
_cell_length_c       8.424
_cell_angle_alpha    90
_cell_angle_beta     90
_cell_angle_gamma    90

_symmetry_space_group_name_H-M    "P 1"
_symmetry_int_tables_number       1

loop_
  _symmetry_equiv_pos_as_xyz
  'x, y, z'

loop_
  _atom_site_label
  _atom_site_occupancy
  _atom_site_fract_x
  _atom_site_fract_y
  _atom_site_fract_z
  _atom_site_thermal_displace_type
  _atom_site_B_iso_or_equiv
  _atom_site_type_symbol
  C1       1.0000 0.44210  0.98930  0.27110  Biso   1.000  C
  C2       1.0000 0.58190  0.92180  0.30180  Biso   1.000  C
  C3       1.0000 0.73690  0.85140  0.52510  Biso   1.000  C
  C4       1.0000 0.65830  0.76570  0.57430  Biso   1.000  C
  Nd1      1.0000 0.34460  0.91450  0.63420  Biso   1.000  Nd
  N1       1.0000 0.62110  0.92960  0.47870  Biso   1.000  N
  O1       1.0000 0.33590  0.00020  0.37200  Biso   1.000  O
  O2       1.0000 0.42890  0.01520  0.12450  Biso   1.000  O
  O3       1.0000 0.72260  0.68440  0.56130  Biso   1.000  O
  O4       1.0000 0.51390  0.77140  0.62710  Biso   1.000  O
  C5       1.0000 0.05790  0.01070  0.77110  Biso   1.000  C
  C6       1.0000 0.91810  0.07820  0.80180  Biso   1.000  C
  C7       1.0000 0.76310  0.14860  0.02510  Biso   1.000  C
  C8       1.0000 0.84170  0.23430  0.07430  Biso   1.000  C
  Nd2      1.0000 0.15540  0.08550  0.13420  Biso   1.000  Nd
  N2       1.0000 0.87890  0.07040  0.97870  Biso   1.000  N
  O5       1.0000 0.16410  0.99980  0.87200  Biso   1.000  O
  O6       1.0000 0.07110  0.98480  0.62450  Biso   1.000  O
  O7       1.0000 0.77740  0.31560  0.06130  Biso   1.000  O
  O8       1.0000 0.98610  0.22860  0.12710  Biso   1.000  O
  C9       1.0000 0.55790  0.48930  0.22890  Biso   1.000  C
  C10      1.0000 0.41810  0.42180  0.19820  Biso   1.000  C
  C11      1.0000 0.26310  0.35140  0.97490  Biso   1.000  C
  C12      1.0000 0.34170  0.26570  0.92570  Biso   1.000  C
  Nd3      1.0000 0.65540  0.41450  0.86580  Biso   1.000  Nd
  N3       1.0000 0.37890  0.42960  0.02130  Biso   1.000  N
  O9       1.0000 0.66410  0.50020  0.12800  Biso   1.000  O
  O10      1.0000 0.57110  0.51520  0.37550  Biso   1.000  O
  O11      1.0000 0.27740  0.18440  0.93870  Biso   1.000  O
  O12      1.0000 0.48610  0.27140  0.87290  Biso   1.000  O
  C13      1.0000 0.94210  0.51070  0.72890  Biso   1.000  C
  C14      1.0000 0.08190  0.57820  0.69820  Biso   1.000  C
  C15      1.0000 0.23690  0.64860  0.47490  Biso   1.000  C
  C16      1.0000 0.15830  0.73430  0.42570  Biso   1.000  C
  Nd4      1.0000 0.84460  0.58550  0.36580  Biso   1.000  Nd
  N4       1.0000 0.12110  0.57040  0.52130  Biso   1.000  N
  O13      1.0000 0.83590  0.49980  0.62800  Biso   1.000  O
  O14      1.0000 0.92890  0.48480  0.87550  Biso   1.000  O
  O15      1.0000 0.22260  0.81560  0.43870  Biso   1.000  O
  O16      1.0000 0.01390  0.72860  0.37290  Biso   1.000  O
