data_image0
_cell_length_a       9.434
_cell_length_b       16.599
_cell_length_c       18.562
_cell_angle_alpha    90
_cell_angle_beta     97.731
_cell_angle_gamma    90

_symmetry_space_group_name_H-M    "P 1"
_symmetry_int_tables_number       1

loop_
  _symmetry_equiv_pos_as_xyz
  'x, y, z'

loop_
  _atom_site_label
  _atom_site_occupancy
  _atom_site_fract_x
  _atom_site_fract_y
  _atom_site_fract_z
  _atom_site_thermal_displace_type
  _atom_site_B_iso_or_equiv
  _atom_site_type_symbol
  Zn1      1.0000 0.33820  0.03687  0.98321  Biso   1.000  Zn
  C1       1.0000 0.45960  0.10640  0.12490  Biso   1.000  C
  H1       1.0000 0.55320  0.08180  0.12620  Biso   1.000  H
  H2       1.0000 0.44870  0.12390  0.17370  Biso   1.000  H
  C2       1.0000 0.44740  0.17780  0.07410  Biso   1.000  C
  H3       1.0000 0.35540  0.20360  0.07480  Biso   1.000  H
  H4       1.0000 0.52140  0.21660  0.09080  Biso   1.000  H
  C3       1.0000 0.42360  0.22010  0.94700  Biso   1.000  C
  H5       1.0000 0.32560  0.23620  0.94950  Biso   1.000  H
  H6       1.0000 0.42860  0.20030  0.89820  Biso   1.000  H
  C4       1.0000 0.52030  0.29400  0.96060  Biso   1.000  C
  C5       1.0000 0.47980  0.36290  0.99050  Biso   1.000  C
  H7       1.0000 0.39010  0.36620  0.00580  Biso   1.000  H
  C6       1.0000 0.57090  0.42930  0.99860  Biso   1.000  C
  H8       1.0000 0.53880  0.47630  0.01850  Biso   1.000  H
  C7       1.0000 0.65590  0.29340  0.93940  Biso   1.000  C
  H9       1.0000 0.68970  0.24760  0.91840  Biso   1.000  H
  C8       1.0000 0.73960  0.36120  0.94980  Biso   1.000  C
  H10      1.0000 0.83000  0.35940  0.93510  Biso   1.000  H
  C9       1.0000 0.36880  0.96950  0.13860  Biso   1.000  C
  H11      1.0000 0.46130  0.94810  0.13090  Biso   1.000  H
  H12      1.0000 0.29650  0.93180  0.11740  Biso   1.000  H
  C10      1.0000 0.36320  0.97350  0.21950  Biso   1.000  C
  C11      1.0000 0.47690  0.94780  0.26790  Biso   1.000  C
  H13      1.0000 0.56020  0.93000  0.25130  Biso   1.000  H
  C12      1.0000 0.46680  0.94860  0.34110  Biso   1.000  C
  H14      1.0000 0.54610  0.93220  0.37300  Biso   1.000  H
  C13      1.0000 0.24480  0.99830  0.24790  Biso   1.000  C
  H15      1.0000 0.16590  0.01740  0.21710  Biso   1.000  H
  C14      1.0000 0.24080  0.99540  0.32180  Biso   1.000  C
  H16      1.0000 0.15720  0.01100  0.33940  Biso   1.000  H
  N1       1.0000 0.34680  0.04660  0.09931  Biso   1.000  N
  H17      1.0000 0.26170  0.06710  0.10860  Biso   1.000  H
  N2       1.0000 0.46170  0.15344  0.99941  Biso   1.000  N
  H18      1.0000 0.55550  0.14150  0.99820  Biso   1.000  H
  N3       1.0000 0.35050  0.97140  0.36880  Biso   1.000  N
  N4       1.0000 0.70110  0.42870  0.97926  Biso   1.000  N
  Zn2      1.0000 0.83820  0.53687  0.98321  Biso   1.000  Zn
  C15      1.0000 0.95960  0.60640  0.12490  Biso   1.000  C
  H19      1.0000 0.05320  0.58180  0.12620  Biso   1.000  H
  H20      1.0000 0.94870  0.62390  0.17370  Biso   1.000  H
  C16      1.0000 0.94740  0.67780  0.07410  Biso   1.000  C
  H21      1.0000 0.85540  0.70360  0.07480  Biso   1.000  H
  H22      1.0000 0.02140  0.71660  0.09080  Biso   1.000  H
  C17      1.0000 0.92360  0.72010  0.94700  Biso   1.000  C
  H23      1.0000 0.82560  0.73620  0.94950  Biso   1.000  H
  H24      1.0000 0.92860  0.70030  0.89820  Biso   1.000  H
  C18      1.0000 0.02030  0.79400  0.96060  Biso   1.000  C
  C19      1.0000 0.97980  0.86290  0.99050  Biso   1.000  C
  H25      1.0000 0.89010  0.86620  0.00580  Biso   1.000  H
  C20      1.0000 0.07090  0.92930  0.99860  Biso   1.000  C
  H26      1.0000 0.03880  0.97630  0.01850  Biso   1.000  H
  C21      1.0000 0.15590  0.79340  0.93940  Biso   1.000  C
  H27      1.0000 0.18970  0.74760  0.91840  Biso   1.000  H
  C22      1.0000 0.23960  0.86120  0.94980  Biso   1.000  C
  H28      1.0000 0.33000  0.85940  0.93510  Biso   1.000  H
  C23      1.0000 0.86880  0.46950  0.13860  Biso   1.000  C
  H29      1.0000 0.96130  0.44810  0.13090  Biso   1.000  H
  H30      1.0000 0.79650  0.43180  0.11740  Biso   1.000  H
  C24      1.0000 0.86320  0.47350  0.21950  Biso   1.000  C
  C25      1.0000 0.97690  0.44780  0.26790  Biso   1.000  C
  H31      1.0000 0.06020  0.43000  0.25130  Biso   1.000  H
  C26      1.0000 0.96680  0.44860  0.34110  Biso   1.000  C
  H32      1.0000 0.04610  0.43220  0.37300  Biso   1.000  H
  C27      1.0000 0.74480  0.49830  0.24790  Biso   1.000  C
  H33      1.0000 0.66590  0.51740  0.21710  Biso   1.000  H
  C28      1.0000 0.74080  0.49540  0.32180  Biso   1.000  C
  H34      1.0000 0.65720  0.51100  0.33940  Biso   1.000  H
  N5       1.0000 0.84680  0.54660  0.09931  Biso   1.000  N
  H35      1.0000 0.76170  0.56710  0.10860  Biso   1.000  H
  N6       1.0000 0.96170  0.65344  0.99941  Biso   1.000  N
  H36      1.0000 0.05550  0.64150  0.99820  Biso   1.000  H
  N7       1.0000 0.85050  0.47140  0.36880  Biso   1.000  N
  N8       1.0000 0.20110  0.92870  0.97926  Biso   1.000  N
  Zn3      1.0000 0.33820  0.96313  0.48321  Biso   1.000  Zn
  C29      1.0000 0.45960  0.89360  0.62490  Biso   1.000  C
  H37      1.0000 0.55320  0.91820  0.62620  Biso   1.000  H
  H38      1.0000 0.44870  0.87610  0.67370  Biso   1.000  H
  C30      1.0000 0.44740  0.82220  0.57410  Biso   1.000  C
  H39      1.0000 0.35540  0.79640  0.57480  Biso   1.000  H
  H40      1.0000 0.52140  0.78340  0.59080  Biso   1.000  H
  C31      1.0000 0.42360  0.77990  0.44700  Biso   1.000  C
  H41      1.0000 0.32560  0.76380  0.44950  Biso   1.000  H
  H42      1.0000 0.42860  0.79970  0.39820  Biso   1.000  H
  C32      1.0000 0.52030  0.70600  0.46060  Biso   1.000  C
  C33      1.0000 0.47980  0.63710  0.49050  Biso   1.000  C
  H43      1.0000 0.39010  0.63380  0.50580  Biso   1.000  H
  C34      1.0000 0.57090  0.57070  0.49860  Biso   1.000  C
  H44      1.0000 0.53880  0.52370  0.51850  Biso   1.000  H
  C35      1.0000 0.65590  0.70660  0.43940  Biso   1.000  C
  H45      1.0000 0.68970  0.75240  0.41840  Biso   1.000  H
  C36      1.0000 0.73960  0.63880  0.44980  Biso   1.000  C
  H46      1.0000 0.83000  0.64060  0.43510  Biso   1.000  H
  C37      1.0000 0.36880  0.03050  0.63860  Biso   1.000  C
  H47      1.0000 0.46130  0.05190  0.63090  Biso   1.000  H
  H48      1.0000 0.29650  0.06820  0.61740  Biso   1.000  H
  C38      1.0000 0.36320  0.02650  0.71950  Biso   1.000  C
  C39      1.0000 0.47690  0.05220  0.76790  Biso   1.000  C
  H49      1.0000 0.56020  0.07000  0.75130  Biso   1.000  H
  C40      1.0000 0.46680  0.05140  0.84110  Biso   1.000  C
  H50      1.0000 0.54610  0.06780  0.87300  Biso   1.000  H
  C41      1.0000 0.24480  0.00170  0.74790  Biso   1.000  C
  H51      1.0000 0.16590  0.98260  0.71710  Biso   1.000  H
  C42      1.0000 0.24080  0.00460  0.82180  Biso   1.000  C
  H52      1.0000 0.15720  0.98900  0.83940  Biso   1.000  H
  N9       1.0000 0.34680  0.95340  0.59931  Biso   1.000  N
  H53      1.0000 0.26170  0.93290  0.60860  Biso   1.000  H
  N10      1.0000 0.46170  0.84656  0.49941  Biso   1.000  N
  H54      1.0000 0.55550  0.85850  0.49820  Biso   1.000  H
  N11      1.0000 0.35050  0.02860  0.86880  Biso   1.000  N
  N12      1.0000 0.70110  0.57130  0.47926  Biso   1.000  N
  Zn4      1.0000 0.83820  0.46313  0.48321  Biso   1.000  Zn
  C43      1.0000 0.95960  0.39360  0.62490  Biso   1.000  C
  H55      1.0000 0.05320  0.41820  0.62620  Biso   1.000  H
  H56      1.0000 0.94870  0.37610  0.67370  Biso   1.000  H
  C44      1.0000 0.94740  0.32220  0.57410  Biso   1.000  C
  H57      1.0000 0.85540  0.29640  0.57480  Biso   1.000  H
  H58      1.0000 0.02140  0.28340  0.59080  Biso   1.000  H
  C45      1.0000 0.92360  0.27990  0.44700  Biso   1.000  C
  H59      1.0000 0.82560  0.26380  0.44950  Biso   1.000  H
  H60      1.0000 0.92860  0.29970  0.39820  Biso   1.000  H
  C46      1.0000 0.02030  0.20600  0.46060  Biso   1.000  C
  C47      1.0000 0.97980  0.13710  0.49050  Biso   1.000  C
  H61      1.0000 0.89010  0.13380  0.50580  Biso   1.000  H
  C48      1.0000 0.07090  0.07070  0.49860  Biso   1.000  C
  H62      1.0000 0.03880  0.02370  0.51850  Biso   1.000  H
  C49      1.0000 0.15590  0.20660  0.43940  Biso   1.000  C
  H63      1.0000 0.18970  0.25240  0.41840  Biso   1.000  H
  C50      1.0000 0.23960  0.13880  0.44980  Biso   1.000  C
  H64      1.0000 0.33000  0.14060  0.43510  Biso   1.000  H
  C51      1.0000 0.86880  0.53050  0.63860  Biso   1.000  C
  H65      1.0000 0.96130  0.55190  0.63090  Biso   1.000  H
  H66      1.0000 0.79650  0.56820  0.61740  Biso   1.000  H
  C52      1.0000 0.86320  0.52650  0.71950  Biso   1.000  C
  C53      1.0000 0.97690  0.55220  0.76790  Biso   1.000  C
  H67      1.0000 0.06020  0.57000  0.75130  Biso   1.000  H
  C54      1.0000 0.96680  0.55140  0.84110  Biso   1.000  C
  H68      1.0000 0.04610  0.56780  0.87300  Biso   1.000  H
  C55      1.0000 0.74480  0.50170  0.74790  Biso   1.000  C
  H69      1.0000 0.66590  0.48260  0.71710  Biso   1.000  H
  C56      1.0000 0.74080  0.50460  0.82180  Biso   1.000  C
  H70      1.0000 0.65720  0.48900  0.83940  Biso   1.000  H
  N13      1.0000 0.84680  0.45340  0.59931  Biso   1.000  N
  H71      1.0000 0.76170  0.43290  0.60860  Biso   1.000  H
  N14      1.0000 0.96170  0.34656  0.49941  Biso   1.000  N
  H72      1.0000 0.05550  0.35850  0.49820  Biso   1.000  H
  N15      1.0000 0.85050  0.52860  0.86880  Biso   1.000  N
  N16      1.0000 0.20110  0.07130  0.47926  Biso   1.000  N
