data_image0
_cell_length_a       19.111
_cell_length_b       19.111
_cell_length_c       19.915
_cell_angle_alpha    90
_cell_angle_beta     90
_cell_angle_gamma    90

_symmetry_space_group_name_H-M    "P 1"
_symmetry_int_tables_number       1

loop_
  _symmetry_equiv_pos_as_xyz
  'x, y, z'

loop_
  _atom_site_label
  _atom_site_occupancy
  _atom_site_fract_x
  _atom_site_fract_y
  _atom_site_fract_z
  _atom_site_thermal_displace_type
  _atom_site_B_iso_or_equiv
  _atom_site_type_symbol
  N1       1.0000 0.45800  0.86390  0.94051  Biso   1.000  N
  N2       1.0000 0.49200  0.92530  0.92965  Biso   1.000  N
  C1       1.0000 0.52560  0.91760  0.87190  Biso   1.000  C
  H1       1.0000 0.55490  0.95200  0.85200  Biso   1.000  H
  C2       1.0000 0.51180  0.85180  0.84440  Biso   1.000  C
  C3       1.0000 0.46910  0.81910  0.88980  Biso   1.000  C
  H2       1.0000 0.45070  0.77310  0.88600  Biso   1.000  H
  C4       1.0000 0.53730  0.82470  0.77910  Biso   1.000  C
  C5       1.0000 0.49980  0.77400  0.74400  Biso   1.000  C
  H3       1.0000 0.45690  0.75700  0.76160  Biso   1.000  H
  C6       1.0000 0.52470  0.74830  0.68370  Biso   1.000  C
  H4       1.0000 0.49850  0.71400  0.66000  Biso   1.000  H
  C7       1.0000 0.58740  0.77220  0.65760  Biso   1.000  C
  C8       1.0000 0.62450  0.82320  0.69160  Biso   1.000  C
  H5       1.0000 0.66710  0.84050  0.67360  Biso   1.000  H
  C9       1.0000 0.59930  0.84900  0.75210  Biso   1.000  C
  H6       1.0000 0.62510  0.88400  0.77530  Biso   1.000  H
  C10      1.0000 0.61750  0.74250  0.59420  Biso   1.000  C
  O1       1.0000 0.58776  0.68798  0.57055  Biso   1.000  O
  O2       1.0000 0.67092  0.77154  0.57040  Biso   1.000  O
  C11      1.0000 0.55220  0.49730  0.45720  Biso   1.000  C
  H7       1.0000 0.58940  0.49410  0.42570  Biso   1.000  H
  N3       1.0000 0.54200  0.13610  0.94051  Biso   1.000  N
  N4       1.0000 0.50800  0.07470  0.92965  Biso   1.000  N
  C12      1.0000 0.47440  0.08240  0.87190  Biso   1.000  C
  H8       1.0000 0.44510  0.04800  0.85200  Biso   1.000  H
  C13      1.0000 0.48820  0.14820  0.84440  Biso   1.000  C
  C14      1.0000 0.53090  0.18090  0.88980  Biso   1.000  C
  H9       1.0000 0.54930  0.22690  0.88600  Biso   1.000  H
  C15      1.0000 0.46270  0.17530  0.77910  Biso   1.000  C
  C16      1.0000 0.50020  0.22600  0.74400  Biso   1.000  C
  H10      1.0000 0.54310  0.24300  0.76160  Biso   1.000  H
  C17      1.0000 0.47530  0.25170  0.68370  Biso   1.000  C
  H11      1.0000 0.50150  0.28600  0.66000  Biso   1.000  H
  C18      1.0000 0.41260  0.22780  0.65760  Biso   1.000  C
  C19      1.0000 0.37550  0.17680  0.69160  Biso   1.000  C
  H12      1.0000 0.33290  0.15950  0.67360  Biso   1.000  H
  C20      1.0000 0.40070  0.15100  0.75210  Biso   1.000  C
  H13      1.0000 0.37490  0.11600  0.77530  Biso   1.000  H
  C21      1.0000 0.38250  0.25750  0.59420  Biso   1.000  C
  O3       1.0000 0.41224  0.31202  0.57055  Biso   1.000  O
  O4       1.0000 0.32908  0.22846  0.57040  Biso   1.000  O
  C22      1.0000 0.44780  0.50270  0.45720  Biso   1.000  C
  H14      1.0000 0.41060  0.50590  0.42570  Biso   1.000  H
  N5       1.0000 0.86390  0.45800  0.05949  Biso   1.000  N
  N6       1.0000 0.92530  0.49200  0.07035  Biso   1.000  N
  C23      1.0000 0.91760  0.52560  0.12810  Biso   1.000  C
  H15      1.0000 0.95200  0.55490  0.14800  Biso   1.000  H
  C24      1.0000 0.85180  0.51180  0.15560  Biso   1.000  C
  C25      1.0000 0.81910  0.46910  0.11020  Biso   1.000  C
  H16      1.0000 0.77310  0.45070  0.11400  Biso   1.000  H
  C26      1.0000 0.82470  0.53730  0.22090  Biso   1.000  C
  C27      1.0000 0.77400  0.49980  0.25600  Biso   1.000  C
  H17      1.0000 0.75700  0.45690  0.23840  Biso   1.000  H
  C28      1.0000 0.74830  0.52470  0.31630  Biso   1.000  C
  H18      1.0000 0.71400  0.49850  0.34000  Biso   1.000  H
  C29      1.0000 0.77220  0.58740  0.34240  Biso   1.000  C
  C30      1.0000 0.82320  0.62450  0.30840  Biso   1.000  C
  H19      1.0000 0.84050  0.66710  0.32640  Biso   1.000  H
  C31      1.0000 0.84900  0.59930  0.24790  Biso   1.000  C
  H20      1.0000 0.88400  0.62510  0.22470  Biso   1.000  H
  C32      1.0000 0.74250  0.61750  0.40580  Biso   1.000  C
  O5       1.0000 0.68798  0.58776  0.42945  Biso   1.000  O
  O6       1.0000 0.77154  0.67092  0.42960  Biso   1.000  O
  C33      1.0000 0.49730  0.55220  0.54280  Biso   1.000  C
  H21      1.0000 0.49410  0.58940  0.57430  Biso   1.000  H
  N7       1.0000 0.13610  0.54200  0.05949  Biso   1.000  N
  N8       1.0000 0.07470  0.50800  0.07035  Biso   1.000  N
  C34      1.0000 0.08240  0.47440  0.12810  Biso   1.000  C
  H22      1.0000 0.04800  0.44510  0.14800  Biso   1.000  H
  C35      1.0000 0.14820  0.48820  0.15560  Biso   1.000  C
  C36      1.0000 0.18090  0.53090  0.11020  Biso   1.000  C
  H23      1.0000 0.22690  0.54930  0.11400  Biso   1.000  H
  C37      1.0000 0.17530  0.46270  0.22090  Biso   1.000  C
  C38      1.0000 0.22600  0.50020  0.25600  Biso   1.000  C
  H24      1.0000 0.24300  0.54310  0.23840  Biso   1.000  H
  C39      1.0000 0.25170  0.47530  0.31630  Biso   1.000  C
  H25      1.0000 0.28600  0.50150  0.34000  Biso   1.000  H
  C40      1.0000 0.22780  0.41260  0.34240  Biso   1.000  C
  C41      1.0000 0.17680  0.37550  0.30840  Biso   1.000  C
  H26      1.0000 0.15950  0.33290  0.32640  Biso   1.000  H
  C42      1.0000 0.15100  0.40070  0.24790  Biso   1.000  C
  H27      1.0000 0.11600  0.37490  0.22470  Biso   1.000  H
  C43      1.0000 0.25750  0.38250  0.40580  Biso   1.000  C
  O7       1.0000 0.31202  0.41224  0.42945  Biso   1.000  O
  O8       1.0000 0.22846  0.32908  0.42960  Biso   1.000  O
  C44      1.0000 0.50270  0.44780  0.54280  Biso   1.000  C
  H28      1.0000 0.50590  0.41060  0.57430  Biso   1.000  H
  N9       1.0000 0.54200  0.13610  0.05949  Biso   1.000  N
  N10      1.0000 0.50800  0.07470  0.07035  Biso   1.000  N
  C45      1.0000 0.47440  0.08240  0.12810  Biso   1.000  C
  H29      1.0000 0.44510  0.04800  0.14800  Biso   1.000  H
  C46      1.0000 0.48820  0.14820  0.15560  Biso   1.000  C
  C47      1.0000 0.53090  0.18090  0.11020  Biso   1.000  C
  H30      1.0000 0.54930  0.22690  0.11400  Biso   1.000  H
  C48      1.0000 0.46270  0.17530  0.22090  Biso   1.000  C
  C49      1.0000 0.50020  0.22600  0.25600  Biso   1.000  C
  H31      1.0000 0.54310  0.24300  0.23840  Biso   1.000  H
  C50      1.0000 0.47530  0.25170  0.31630  Biso   1.000  C
  H32      1.0000 0.50150  0.28600  0.34000  Biso   1.000  H
  C51      1.0000 0.41260  0.22780  0.34240  Biso   1.000  C
  C52      1.0000 0.37550  0.17680  0.30840  Biso   1.000  C
  H33      1.0000 0.33290  0.15950  0.32640  Biso   1.000  H
  C53      1.0000 0.40070  0.15100  0.24790  Biso   1.000  C
  H34      1.0000 0.37490  0.11600  0.22470  Biso   1.000  H
  C54      1.0000 0.38250  0.25750  0.40580  Biso   1.000  C
  O9       1.0000 0.41224  0.31202  0.42945  Biso   1.000  O
  O10      1.0000 0.32908  0.22846  0.42960  Biso   1.000  O
  C55      1.0000 0.44780  0.50270  0.54280  Biso   1.000  C
  H35      1.0000 0.41060  0.50590  0.57430  Biso   1.000  H
  N11      1.0000 0.45800  0.86390  0.05949  Biso   1.000  N
  N12      1.0000 0.49200  0.92530  0.07035  Biso   1.000  N
  C56      1.0000 0.52560  0.91760  0.12810  Biso   1.000  C
  H36      1.0000 0.55490  0.95200  0.14800  Biso   1.000  H
  C57      1.0000 0.51180  0.85180  0.15560  Biso   1.000  C
  C58      1.0000 0.46910  0.81910  0.11020  Biso   1.000  C
  H37      1.0000 0.45070  0.77310  0.11400  Biso   1.000  H
  C59      1.0000 0.53730  0.82470  0.22090  Biso   1.000  C
  C60      1.0000 0.49980  0.77400  0.25600  Biso   1.000  C
  H38      1.0000 0.45690  0.75700  0.23840  Biso   1.000  H
  C61      1.0000 0.52470  0.74830  0.31630  Biso   1.000  C
  H39      1.0000 0.49850  0.71400  0.34000  Biso   1.000  H
  C62      1.0000 0.58740  0.77220  0.34240  Biso   1.000  C
  C63      1.0000 0.62450  0.82320  0.30840  Biso   1.000  C
  H40      1.0000 0.66710  0.84050  0.32640  Biso   1.000  H
  C64      1.0000 0.59930  0.84900  0.24790  Biso   1.000  C
  H41      1.0000 0.62510  0.88400  0.22470  Biso   1.000  H
  C65      1.0000 0.61750  0.74250  0.40580  Biso   1.000  C
  O11      1.0000 0.58776  0.68798  0.42945  Biso   1.000  O
  O12      1.0000 0.67092  0.77154  0.42960  Biso   1.000  O
  C66      1.0000 0.55220  0.49730  0.54280  Biso   1.000  C
  H42      1.0000 0.58940  0.49410  0.57430  Biso   1.000  H
  N13      1.0000 0.13610  0.54200  0.94051  Biso   1.000  N
  N14      1.0000 0.07470  0.50800  0.92965  Biso   1.000  N
  C67      1.0000 0.08240  0.47440  0.87190  Biso   1.000  C
  H43      1.0000 0.04800  0.44510  0.85200  Biso   1.000  H
  C68      1.0000 0.14820  0.48820  0.84440  Biso   1.000  C
  C69      1.0000 0.18090  0.53090  0.88980  Biso   1.000  C
  H44      1.0000 0.22690  0.54930  0.88600  Biso   1.000  H
  C70      1.0000 0.17530  0.46270  0.77910  Biso   1.000  C
  C71      1.0000 0.22600  0.50020  0.74400  Biso   1.000  C
  H45      1.0000 0.24300  0.54310  0.76160  Biso   1.000  H
  C72      1.0000 0.25170  0.47530  0.68370  Biso   1.000  C
  H46      1.0000 0.28600  0.50150  0.66000  Biso   1.000  H
  C73      1.0000 0.22780  0.41260  0.65760  Biso   1.000  C
  C74      1.0000 0.17680  0.37550  0.69160  Biso   1.000  C
  H47      1.0000 0.15950  0.33290  0.67360  Biso   1.000  H
  C75      1.0000 0.15100  0.40070  0.75210  Biso   1.000  C
  H48      1.0000 0.11600  0.37490  0.77530  Biso   1.000  H
  C76      1.0000 0.25750  0.38250  0.59420  Biso   1.000  C
  O13      1.0000 0.31202  0.41224  0.57055  Biso   1.000  O
  O14      1.0000 0.22846  0.32908  0.57040  Biso   1.000  O
  C77      1.0000 0.50270  0.44780  0.45720  Biso   1.000  C
  H49      1.0000 0.50590  0.41060  0.42570  Biso   1.000  H
  N15      1.0000 0.86390  0.45800  0.94051  Biso   1.000  N
  N16      1.0000 0.92530  0.49200  0.92965  Biso   1.000  N
  C78      1.0000 0.91760  0.52560  0.87190  Biso   1.000  C
  H50      1.0000 0.95200  0.55490  0.85200  Biso   1.000  H
  C79      1.0000 0.85180  0.51180  0.84440  Biso   1.000  C
  C80      1.0000 0.81910  0.46910  0.88980  Biso   1.000  C
  H51      1.0000 0.77310  0.45070  0.88600  Biso   1.000  H
  C81      1.0000 0.82470  0.53730  0.77910  Biso   1.000  C
  C82      1.0000 0.77400  0.49980  0.74400  Biso   1.000  C
  H52      1.0000 0.75700  0.45690  0.76160  Biso   1.000  H
  C83      1.0000 0.74830  0.52470  0.68370  Biso   1.000  C
  H53      1.0000 0.71400  0.49850  0.66000  Biso   1.000  H
  C84      1.0000 0.77220  0.58740  0.65760  Biso   1.000  C
  C85      1.0000 0.82320  0.62450  0.69160  Biso   1.000  C
  H54      1.0000 0.84050  0.66710  0.67360  Biso   1.000  H
  C86      1.0000 0.84900  0.59930  0.75210  Biso   1.000  C
  H55      1.0000 0.88400  0.62510  0.77530  Biso   1.000  H
  C87      1.0000 0.74250  0.61750  0.59420  Biso   1.000  C
  O15      1.0000 0.68798  0.58776  0.57055  Biso   1.000  O
  O16      1.0000 0.77154  0.67092  0.57040  Biso   1.000  O
  C88      1.0000 0.49730  0.55220  0.45720  Biso   1.000  C
  H56      1.0000 0.49410  0.58940  0.42570  Biso   1.000  H
  Cu1      1.0000 0.63126  0.63126  0.50000  Biso   1.000  Cu
  Cu2      1.0000 0.72847  0.72847  0.50000  Biso   1.000  Cu
  N17      1.0000 0.55110  0.55110  0.50000  Biso   1.000  N
  Cu3      1.0000 0.36874  0.36874  0.50000  Biso   1.000  Cu
  Cu4      1.0000 0.27153  0.27153  0.50000  Biso   1.000  Cu
  N18      1.0000 0.44890  0.44890  0.50000  Biso   1.000  N
  C89      1.0000 0.41540  0.85420  0.00000  Biso   1.000  C
  H57      1.0000 0.37650  0.88840  0.00000  Biso   1.000  H
  H58      1.0000 0.39510  0.80650  0.00000  Biso   1.000  H
  C90      1.0000 0.58460  0.14580  0.00000  Biso   1.000  C
  H59      1.0000 0.62350  0.11160  0.00000  Biso   1.000  H
  H60      1.0000 0.60490  0.19350  0.00000  Biso   1.000  H
  C91      1.0000 0.85420  0.41540  0.00000  Biso   1.000  C
  H61      1.0000 0.88840  0.37650  0.00000  Biso   1.000  H
  H62      1.0000 0.80650  0.39510  0.00000  Biso   1.000  H
  C92      1.0000 0.14580  0.58460  0.00000  Biso   1.000  C
  H63      1.0000 0.11160  0.62350  0.00000  Biso   1.000  H
  H64      1.0000 0.19350  0.60490  0.00000  Biso   1.000  H
  Cu5      1.0000 0.50000  0.00000  0.00000  Biso   1.000  Cu
  Cu6      1.0000 0.00000  0.50000  0.00000  Biso   1.000  Cu
  N19      1.0000 0.63610  0.95800  0.44051  Biso   1.000  N
  N20      1.0000 0.57470  0.99200  0.42965  Biso   1.000  N
  C93      1.0000 0.58240  0.02560  0.37190  Biso   1.000  C
  H65      1.0000 0.54800  0.05490  0.35200  Biso   1.000  H
  C94      1.0000 0.64820  0.01180  0.34440  Biso   1.000  C
  C95      1.0000 0.68090  0.96910  0.38980  Biso   1.000  C
  H66      1.0000 0.72690  0.95070  0.38600  Biso   1.000  H
  C96      1.0000 0.67530  0.03730  0.27910  Biso   1.000  C
  C97      1.0000 0.72600  0.99980  0.24400  Biso   1.000  C
  H67      1.0000 0.74300  0.95690  0.26160  Biso   1.000  H
  C98      1.0000 0.75170  0.02470  0.18370  Biso   1.000  C
  H68      1.0000 0.78600  0.99850  0.16000  Biso   1.000  H
  C99      1.0000 0.72780  0.08740  0.15760  Biso   1.000  C
  C100     1.0000 0.67680  0.12450  0.19160  Biso   1.000  C
  H69      1.0000 0.65950  0.16710  0.17360  Biso   1.000  H
  C101     1.0000 0.65100  0.09930  0.25210  Biso   1.000  C
  H70      1.0000 0.61600  0.12510  0.27530  Biso   1.000  H
  C102     1.0000 0.75750  0.11750  0.09420  Biso   1.000  C
  O17      1.0000 0.81202  0.08776  0.07055  Biso   1.000  O
  O18      1.0000 0.72846  0.17092  0.07040  Biso   1.000  O
  C103     1.0000 0.00270  0.05220  0.95720  Biso   1.000  C
  H71      1.0000 0.00590  0.08940  0.92570  Biso   1.000  H
  N21      1.0000 0.36390  0.04200  0.44051  Biso   1.000  N
  N22      1.0000 0.42530  0.00800  0.42965  Biso   1.000  N
  C104     1.0000 0.41760  0.97440  0.37190  Biso   1.000  C
  H72      1.0000 0.45200  0.94510  0.35200  Biso   1.000  H
  C105     1.0000 0.35180  0.98820  0.34440  Biso   1.000  C
  C106     1.0000 0.31910  0.03090  0.38980  Biso   1.000  C
  H73      1.0000 0.27310  0.04930  0.38600  Biso   1.000  H
  C107     1.0000 0.32470  0.96270  0.27910  Biso   1.000  C
  C108     1.0000 0.27400  0.00020  0.24400  Biso   1.000  C
  H74      1.0000 0.25700  0.04310  0.26160  Biso   1.000  H
  C109     1.0000 0.24830  0.97530  0.18370  Biso   1.000  C
  H75      1.0000 0.21400  0.00150  0.16000  Biso   1.000  H
  C110     1.0000 0.27220  0.91260  0.15760  Biso   1.000  C
  C111     1.0000 0.32320  0.87550  0.19160  Biso   1.000  C
  H76      1.0000 0.34050  0.83290  0.17360  Biso   1.000  H
  C112     1.0000 0.34900  0.90070  0.25210  Biso   1.000  C
  H77      1.0000 0.38400  0.87490  0.27530  Biso   1.000  H
  C113     1.0000 0.24250  0.88250  0.09420  Biso   1.000  C
  O19      1.0000 0.18798  0.91224  0.07055  Biso   1.000  O
  O20      1.0000 0.27154  0.82908  0.07040  Biso   1.000  O
  C114     1.0000 0.99730  0.94780  0.95720  Biso   1.000  C
  H78      1.0000 0.99410  0.91060  0.92570  Biso   1.000  H
  N23      1.0000 0.04200  0.36390  0.55949  Biso   1.000  N
  N24      1.0000 0.00800  0.42530  0.57035  Biso   1.000  N
  C115     1.0000 0.97440  0.41760  0.62810  Biso   1.000  C
  H79      1.0000 0.94510  0.45200  0.64800  Biso   1.000  H
  C116     1.0000 0.98820  0.35180  0.65560  Biso   1.000  C
  C117     1.0000 0.03090  0.31910  0.61020  Biso   1.000  C
  H80      1.0000 0.04930  0.27310  0.61400  Biso   1.000  H
  C118     1.0000 0.96270  0.32470  0.72090  Biso   1.000  C
  C119     1.0000 0.00020  0.27400  0.75600  Biso   1.000  C
  H81      1.0000 0.04310  0.25700  0.73840  Biso   1.000  H
  C120     1.0000 0.97530  0.24830  0.81630  Biso   1.000  C
  H82      1.0000 0.00150  0.21400  0.84000  Biso   1.000  H
  C121     1.0000 0.91260  0.27220  0.84240  Biso   1.000  C
  C122     1.0000 0.87550  0.32320  0.80840  Biso   1.000  C
  H83      1.0000 0.83290  0.34050  0.82640  Biso   1.000  H
  C123     1.0000 0.90070  0.34900  0.74790  Biso   1.000  C
  H84      1.0000 0.87490  0.38400  0.72470  Biso   1.000  H
  C124     1.0000 0.88250  0.24250  0.90580  Biso   1.000  C
  O21      1.0000 0.91224  0.18798  0.92945  Biso   1.000  O
  O22      1.0000 0.82908  0.27154  0.92960  Biso   1.000  O
  C125     1.0000 0.94780  0.99730  0.04280  Biso   1.000  C
  H85      1.0000 0.91060  0.99410  0.07430  Biso   1.000  H
  N25      1.0000 0.95800  0.63610  0.55949  Biso   1.000  N
  N26      1.0000 0.99200  0.57470  0.57035  Biso   1.000  N
  C126     1.0000 0.02560  0.58240  0.62810  Biso   1.000  C
  H86      1.0000 0.05490  0.54800  0.64800  Biso   1.000  H
  C127     1.0000 0.01180  0.64820  0.65560  Biso   1.000  C
  C128     1.0000 0.96910  0.68090  0.61020  Biso   1.000  C
  H87      1.0000 0.95070  0.72690  0.61400  Biso   1.000  H
  C129     1.0000 0.03730  0.67530  0.72090  Biso   1.000  C
  C130     1.0000 0.99980  0.72600  0.75600  Biso   1.000  C
  H88      1.0000 0.95690  0.74300  0.73840  Biso   1.000  H
  C131     1.0000 0.02470  0.75170  0.81630  Biso   1.000  C
  H89      1.0000 0.99850  0.78600  0.84000  Biso   1.000  H
  C132     1.0000 0.08740  0.72780  0.84240  Biso   1.000  C
  C133     1.0000 0.12450  0.67680  0.80840  Biso   1.000  C
  H90      1.0000 0.16710  0.65950  0.82640  Biso   1.000  H
  C134     1.0000 0.09930  0.65100  0.74790  Biso   1.000  C
  H91      1.0000 0.12510  0.61600  0.72470  Biso   1.000  H
  C135     1.0000 0.11750  0.75750  0.90580  Biso   1.000  C
  O23      1.0000 0.08776  0.81202  0.92945  Biso   1.000  O
  O24      1.0000 0.17092  0.72846  0.92960  Biso   1.000  O
  C136     1.0000 0.05220  0.00270  0.04280  Biso   1.000  C
  H92      1.0000 0.08940  0.00590  0.07430  Biso   1.000  H
  N27      1.0000 0.36390  0.04200  0.55949  Biso   1.000  N
  N28      1.0000 0.42530  0.00800  0.57035  Biso   1.000  N
  C137     1.0000 0.41760  0.97440  0.62810  Biso   1.000  C
  H93      1.0000 0.45200  0.94510  0.64800  Biso   1.000  H
  C138     1.0000 0.35180  0.98820  0.65560  Biso   1.000  C
  C139     1.0000 0.31910  0.03090  0.61020  Biso   1.000  C
  H94      1.0000 0.27310  0.04930  0.61400  Biso   1.000  H
  C140     1.0000 0.32470  0.96270  0.72090  Biso   1.000  C
  C141     1.0000 0.27400  0.00020  0.75600  Biso   1.000  C
  H95      1.0000 0.25700  0.04310  0.73840  Biso   1.000  H
  C142     1.0000 0.24830  0.97530  0.81630  Biso   1.000  C
  H96      1.0000 0.21400  0.00150  0.84000  Biso   1.000  H
  C143     1.0000 0.27220  0.91260  0.84240  Biso   1.000  C
  C144     1.0000 0.32320  0.87550  0.80840  Biso   1.000  C
  H97      1.0000 0.34050  0.83290  0.82640  Biso   1.000  H
  C145     1.0000 0.34900  0.90070  0.74790  Biso   1.000  C
  H98      1.0000 0.38400  0.87490  0.72470  Biso   1.000  H
  C146     1.0000 0.24250  0.88250  0.90580  Biso   1.000  C
  O25      1.0000 0.18798  0.91224  0.92945  Biso   1.000  O
  O26      1.0000 0.27154  0.82908  0.92960  Biso   1.000  O
  C147     1.0000 0.99730  0.94780  0.04280  Biso   1.000  C
  H99      1.0000 0.99410  0.91060  0.07430  Biso   1.000  H
  N29      1.0000 0.63610  0.95800  0.55949  Biso   1.000  N
  N30      1.0000 0.57470  0.99200  0.57035  Biso   1.000  N
  C148     1.0000 0.58240  0.02560  0.62810  Biso   1.000  C
  H100     1.0000 0.54800  0.05490  0.64800  Biso   1.000  H
  C149     1.0000 0.64820  0.01180  0.65560  Biso   1.000  C
  C150     1.0000 0.68090  0.96910  0.61020  Biso   1.000  C
  H101     1.0000 0.72690  0.95070  0.61400  Biso   1.000  H
  C151     1.0000 0.67530  0.03730  0.72090  Biso   1.000  C
  C152     1.0000 0.72600  0.99980  0.75600  Biso   1.000  C
  H102     1.0000 0.74300  0.95690  0.73840  Biso   1.000  H
  C153     1.0000 0.75170  0.02470  0.81630  Biso   1.000  C
  H103     1.0000 0.78600  0.99850  0.84000  Biso   1.000  H
  C154     1.0000 0.72780  0.08740  0.84240  Biso   1.000  C
  C155     1.0000 0.67680  0.12450  0.80840  Biso   1.000  C
  H104     1.0000 0.65950  0.16710  0.82640  Biso   1.000  H
  C156     1.0000 0.65100  0.09930  0.74790  Biso   1.000  C
  H105     1.0000 0.61600  0.12510  0.72470  Biso   1.000  H
  C157     1.0000 0.75750  0.11750  0.90580  Biso   1.000  C
  O27      1.0000 0.81202  0.08776  0.92945  Biso   1.000  O
  O28      1.0000 0.72846  0.17092  0.92960  Biso   1.000  O
  C158     1.0000 0.00270  0.05220  0.04280  Biso   1.000  C
  H106     1.0000 0.00590  0.08940  0.07430  Biso   1.000  H
  N31      1.0000 0.95800  0.63610  0.44051  Biso   1.000  N
  N32      1.0000 0.99200  0.57470  0.42965  Biso   1.000  N
  C159     1.0000 0.02560  0.58240  0.37190  Biso   1.000  C
  H107     1.0000 0.05490  0.54800  0.35200  Biso   1.000  H
  C160     1.0000 0.01180  0.64820  0.34440  Biso   1.000  C
  C161     1.0000 0.96910  0.68090  0.38980  Biso   1.000  C
  H108     1.0000 0.95070  0.72690  0.38600  Biso   1.000  H
  C162     1.0000 0.03730  0.67530  0.27910  Biso   1.000  C
  C163     1.0000 0.99980  0.72600  0.24400  Biso   1.000  C
  H109     1.0000 0.95690  0.74300  0.26160  Biso   1.000  H
  C164     1.0000 0.02470  0.75170  0.18370  Biso   1.000  C
  H110     1.0000 0.99850  0.78600  0.16000  Biso   1.000  H
  C165     1.0000 0.08740  0.72780  0.15760  Biso   1.000  C
  C166     1.0000 0.12450  0.67680  0.19160  Biso   1.000  C
  H111     1.0000 0.16710  0.65950  0.17360  Biso   1.000  H
  C167     1.0000 0.09930  0.65100  0.25210  Biso   1.000  C
  H112     1.0000 0.12510  0.61600  0.27530  Biso   1.000  H
  C168     1.0000 0.11750  0.75750  0.09420  Biso   1.000  C
  O29      1.0000 0.08776  0.81202  0.07055  Biso   1.000  O
  O30      1.0000 0.17092  0.72846  0.07040  Biso   1.000  O
  C169     1.0000 0.05220  0.00270  0.95720  Biso   1.000  C
  H113     1.0000 0.08940  0.00590  0.92570  Biso   1.000  H
  N33      1.0000 0.04200  0.36390  0.44051  Biso   1.000  N
  N34      1.0000 0.00800  0.42530  0.42965  Biso   1.000  N
  C170     1.0000 0.97440  0.41760  0.37190  Biso   1.000  C
  H114     1.0000 0.94510  0.45200  0.35200  Biso   1.000  H
  C171     1.0000 0.98820  0.35180  0.34440  Biso   1.000  C
  C172     1.0000 0.03090  0.31910  0.38980  Biso   1.000  C
  H115     1.0000 0.04930  0.27310  0.38600  Biso   1.000  H
  C173     1.0000 0.96270  0.32470  0.27910  Biso   1.000  C
  C174     1.0000 0.00020  0.27400  0.24400  Biso   1.000  C
  H116     1.0000 0.04310  0.25700  0.26160  Biso   1.000  H
  C175     1.0000 0.97530  0.24830  0.18370  Biso   1.000  C
  H117     1.0000 0.00150  0.21400  0.16000  Biso   1.000  H
  C176     1.0000 0.91260  0.27220  0.15760  Biso   1.000  C
  C177     1.0000 0.87550  0.32320  0.19160  Biso   1.000  C
  H118     1.0000 0.83290  0.34050  0.17360  Biso   1.000  H
  C178     1.0000 0.90070  0.34900  0.25210  Biso   1.000  C
  H119     1.0000 0.87490  0.38400  0.27530  Biso   1.000  H
  C179     1.0000 0.88250  0.24250  0.09420  Biso   1.000  C
  O31      1.0000 0.91224  0.18798  0.07055  Biso   1.000  O
  O32      1.0000 0.82908  0.27154  0.07040  Biso   1.000  O
  C180     1.0000 0.94780  0.99730  0.95720  Biso   1.000  C
  H120     1.0000 0.91060  0.99410  0.92570  Biso   1.000  H
  Cu7      1.0000 0.86874  0.13126  0.00000  Biso   1.000  Cu
  Cu8      1.0000 0.77153  0.22847  0.00000  Biso   1.000  Cu
  N35      1.0000 0.94890  0.05110  0.00000  Biso   1.000  N
  Cu9      1.0000 0.13126  0.86874  0.00000  Biso   1.000  Cu
  Cu10     1.0000 0.22847  0.77153  0.00000  Biso   1.000  Cu
  N36      1.0000 0.05110  0.94890  0.00000  Biso   1.000  N
  C181     1.0000 0.64580  0.91540  0.50000  Biso   1.000  C
  H121     1.0000 0.61160  0.87650  0.50000  Biso   1.000  H
  H122     1.0000 0.69350  0.89510  0.50000  Biso   1.000  H
  C182     1.0000 0.35420  0.08460  0.50000  Biso   1.000  C
  H123     1.0000 0.38840  0.12350  0.50000  Biso   1.000  H
  H124     1.0000 0.30650  0.10490  0.50000  Biso   1.000  H
  C183     1.0000 0.08460  0.35420  0.50000  Biso   1.000  C
  H125     1.0000 0.12350  0.38840  0.50000  Biso   1.000  H
  H126     1.0000 0.10490  0.30650  0.50000  Biso   1.000  H
  C184     1.0000 0.91540  0.64580  0.50000  Biso   1.000  C
  H127     1.0000 0.87650  0.61160  0.50000  Biso   1.000  H
  H128     1.0000 0.89510  0.69350  0.50000  Biso   1.000  H
  Cu11     1.0000 0.50000  0.00000  0.50000  Biso   1.000  Cu
  Cu12     1.0000 0.00000  0.50000  0.50000  Biso   1.000  Cu
