data_image0
_cell_length_a       11.7152
_cell_length_b       13.5922
_cell_length_c       20.6532
_cell_angle_alpha    89.218
_cell_angle_beta     76.358
_cell_angle_gamma    67.393

_symmetry_space_group_name_H-M    "P 1"
_symmetry_int_tables_number       1

loop_
  _symmetry_equiv_pos_as_xyz
  'x, y, z'

loop_
  _atom_site_label
  _atom_site_occupancy
  _atom_site_fract_x
  _atom_site_fract_y
  _atom_site_fract_z
  _atom_site_thermal_displace_type
  _atom_site_B_iso_or_equiv
  _atom_site_type_symbol
  W1       1.0000 0.79562  0.96724  0.91006  Biso   1.000  W
  W2       1.0000 0.00212  0.74245  0.97159  Biso   1.000  W
  W3       1.0000 0.73715  0.94049  0.08301  Biso   1.000  W
  W4       1.0000 0.25645  0.80819  0.88267  Biso   1.000  W
  W5       1.0000 0.78163  0.22624  0.94485  Biso   1.000  W
  W6       1.0000 0.04830  0.04132  0.82793  Biso   1.000  W
  Cu1      1.0000 0.68360  0.93920  0.76340  Biso   1.000  Cu
  Cu2      1.0000 0.29290  0.85110  0.60890  Biso   1.000  Cu
  Cu3      1.0000 0.50990  0.31620  0.71960  Biso   1.000  Cu
  Cu4      1.0000 0.87050  0.52060  0.84510  Biso   1.000  Cu
  Cu5      1.0000 0.52430  0.19160  0.87180  Biso   1.000  Cu
  Cl1      1.0000 0.61610  0.14180  0.76860  Biso   1.000  Cl
  N1       1.0000 0.54100  0.91900  0.74010  Biso   1.000  N
  N2       1.0000 0.38900  0.88000  0.67150  Biso   1.000  N
  N3       1.0000 0.37300  0.80300  0.51480  Biso   1.000  N
  N4       1.0000 0.44600  0.73600  0.38030  Biso   1.000  N
  N5       1.0000 0.61900  0.37900  0.75230  Biso   1.000  N
  N6       1.0000 0.77000  0.45800  0.80740  Biso   1.000  N
  N7       1.0000 0.25100  0.38600  0.07620  Biso   1.000  N
  N8       1.0000 0.42200  0.26900  0.95280  Biso   1.000  N
  N9       1.0000 0.86400  0.89300  0.71600  Biso   1.000  N
  N10      1.0000 0.12100  0.85800  0.64880  Biso   1.000  N
  N11      1.0000 0.32300  0.37700  0.76880  Biso   1.000  N
  N12      1.0000 0.06000  0.46000  0.82090  Biso   1.000  N
  O1       1.0000 0.91300  0.92500  0.99300  Biso   1.000  O
  O2       1.0000 0.93500  0.04200  0.94500  Biso   1.000  O
  O3       1.0000 0.09800  0.87300  0.98300  Biso   1.000  O
  O4       1.0000 0.90000  0.02000  0.07200  Biso   1.000  O
  O5       1.0000 0.85500  0.79900  0.04440  Biso   1.000  O
  O6       1.0000 0.11200  0.71000  0.02610  Biso   1.000  O
  O7       1.0000 0.69900  0.94800  0.86750  Biso   1.000  O
  O8       1.0000 0.70100  0.96900  0.99950  Biso   1.000  O
  O9       1.0000 0.89900  0.82200  0.91480  Biso   1.000  O
  O10      1.0000 0.72400  0.11700  0.92400  Biso   1.000  O
  O11      1.0000 0.91800  0.98300  0.83950  Biso   1.000  O
  O12      1.0000 0.16200  0.89800  0.82700  Biso   1.000  O
  O13      1.0000 0.14900  0.73400  0.89880  Biso   1.000  O
  O14      1.0000 0.67600  0.08600  0.10790  Biso   1.000  O
  O15      1.0000 0.70300  0.23700  0.03630  Biso   1.000  O
  O16      1.0000 0.83700  0.91000  0.14560  Biso   1.000  O
  O17      1.0000 0.91100  0.17900  0.86340  Biso   1.000  O
  C1       1.0000 0.53900  0.82300  0.73900  Biso   1.000  C
  H1       1.0000 0.58410  0.77180  0.76400  Biso   1.000  H
  C2       1.0000 0.46400  0.79400  0.69800  Biso   1.000  C
  H2       1.0000 0.46860  0.72510  0.69150  Biso   1.000  H
  C3       1.0000 0.38400  0.97300  0.68300  Biso   1.000  C
  H3       1.0000 0.32360  0.03000  0.66890  Biso   1.000  H
  C4       1.0000 0.46100  0.99700  0.71500  Biso   1.000  C
  H4       1.0000 0.45710  0.06660  0.71930  Biso   1.000  H
  C5       1.0000 0.43900  0.69900  0.48700  Biso   1.000  C
  H5       1.0000 0.45600  0.64350  0.51490  Biso   1.000  H
  C6       1.0000 0.47900  0.67500  0.41900  Biso   1.000  C
  H6       1.0000 0.53530  0.60520  0.40340  Biso   1.000  H
  C7       1.0000 0.39400  0.83700  0.39700  Biso   1.000  C
  H7       1.0000 0.38310  0.88500  0.36410  Biso   1.000  H
  C8       1.0000 0.34900  0.88000  0.47000  Biso   1.000  C
  H8       1.0000 0.30920  0.95290  0.48390  Biso   1.000  H
  C9       1.0000 0.74600  0.32700  0.74300  Biso   1.000  C
  H9       1.0000 0.78800  0.26280  0.71620  Biso   1.000  H
  C10      1.0000 0.81400  0.36600  0.77300  Biso   1.000  C
  H10      1.0000 0.89940  0.32310  0.76850  Biso   1.000  H
  C11      1.0000 0.57200  0.47800  0.78300  Biso   1.000  C
  H11      1.0000 0.48860  0.52300  0.78330  Biso   1.000  H
  C12      1.0000 0.63800  0.51400  0.81200  Biso   1.000  C
  H12      1.0000 0.59580  0.57920  0.83770  Biso   1.000  H
  C13      1.0000 0.32200  0.29000  0.07000  Biso   1.000  C
  H13      1.0000 0.31320  0.25670  0.10990  Biso   1.000  H
  C14      1.0000 0.41300  0.22200  0.01700  Biso   1.000  C
  H14      1.0000 0.46450  0.15190  0.02110  Biso   1.000  H
  C15      1.0000 0.35100  0.37600  0.95700  Biso   1.000  C
  H15      1.0000 0.36220  0.41350  0.91940  Biso   1.000  H
  C16      1.0000 0.25000  0.43600  0.02200  Biso   1.000  C
  H16      1.0000 0.19070  0.50540  0.02270  Biso   1.000  H
  C17      1.0000 0.95800  0.83300  0.73400  Biso   1.000  C
  H17      1.0000 0.94380  0.79730  0.77220  Biso   1.000  H
  C18      1.0000 0.89300  0.93800  0.66000  Biso   1.000  C
  H18      1.0000 0.82630  0.98630  0.64410  Biso   1.000  H
  C19      1.0000 0.02300  0.91600  0.62300  Biso   1.000  C
  H19      1.0000 0.03870  0.94210  0.58110  Biso   1.000  H
  C20      1.0000 0.09100  0.81300  0.70000  Biso   1.000  C
  H20      1.0000 0.15620  0.76470  0.71610  Biso   1.000  H
  C21      1.0000 0.26600  0.32100  0.80000  Biso   1.000  C
  H21      1.0000 0.31570  0.25080  0.80460  Biso   1.000  H
  C22      1.0000 0.25300  0.47900  0.76200  Biso   1.000  C
  H22      1.0000 0.29360  0.51960  0.73840  Biso   1.000  H
  C23      1.0000 0.12900  0.52300  0.78700  Biso   1.000  C
  H23      1.0000 0.08500  0.59500  0.78230  Biso   1.000  H
  C24      1.0000 0.13000  0.36000  0.82800  Biso   1.000  C
  H24      1.0000 0.09260  0.31590  0.85070  Biso   1.000  H
  W7       1.0000 0.20438  0.03276  0.08994  Biso   1.000  W
  W8       1.0000 0.99788  0.25755  0.02841  Biso   1.000  W
  W9       1.0000 0.26285  0.05951  0.91699  Biso   1.000  W
  W10      1.0000 0.74355  0.19181  0.11733  Biso   1.000  W
  W11      1.0000 0.21837  0.77376  0.05515  Biso   1.000  W
  W12      1.0000 0.95170  0.95868  0.17207  Biso   1.000  W
  Cu6      1.0000 0.31640  0.06080  0.23660  Biso   1.000  Cu
  Cu7      1.0000 0.70710  0.14890  0.39110  Biso   1.000  Cu
  Cu8      1.0000 0.49010  0.68380  0.28040  Biso   1.000  Cu
  Cu9      1.0000 0.12950  0.47940  0.15490  Biso   1.000  Cu
  Cu10     1.0000 0.47570  0.80840  0.12820  Biso   1.000  Cu
  Cl2      1.0000 0.38390  0.85820  0.23140  Biso   1.000  Cl
  N13      1.0000 0.45900  0.08100  0.25990  Biso   1.000  N
  N14      1.0000 0.61100  0.12000  0.32850  Biso   1.000  N
  N15      1.0000 0.62700  0.19700  0.48520  Biso   1.000  N
  N16      1.0000 0.55400  0.26400  0.61970  Biso   1.000  N
  N17      1.0000 0.38100  0.62100  0.24770  Biso   1.000  N
  N18      1.0000 0.23000  0.54200  0.19260  Biso   1.000  N
  N19      1.0000 0.74900  0.61400  0.92380  Biso   1.000  N
  N20      1.0000 0.57800  0.73100  0.04720  Biso   1.000  N
  N21      1.0000 0.13600  0.10700  0.28400  Biso   1.000  N
  N22      1.0000 0.87900  0.14200  0.35120  Biso   1.000  N
  N23      1.0000 0.67700  0.62300  0.23120  Biso   1.000  N
  N24      1.0000 0.94000  0.54000  0.17910  Biso   1.000  N
  O18      1.0000 0.08700  0.07500  0.00700  Biso   1.000  O
  O19      1.0000 0.06500  0.95800  0.05500  Biso   1.000  O
  O20      1.0000 0.90200  0.12700  0.01700  Biso   1.000  O
  O21      1.0000 0.10000  0.98000  0.92800  Biso   1.000  O
  O22      1.0000 0.14500  0.20100  0.95560  Biso   1.000  O
  O23      1.0000 0.88800  0.29000  0.97390  Biso   1.000  O
  O24      1.0000 0.30100  0.05200  0.13250  Biso   1.000  O
  O25      1.0000 0.29900  0.03100  0.00050  Biso   1.000  O
  O26      1.0000 0.10100  0.17800  0.08520  Biso   1.000  O
  O27      1.0000 0.27600  0.88300  0.07600  Biso   1.000  O
  O28      1.0000 0.08200  0.01700  0.16050  Biso   1.000  O
  O29      1.0000 0.83800  0.10200  0.17300  Biso   1.000  O
  O30      1.0000 0.85100  0.26600  0.10120  Biso   1.000  O
  O31      1.0000 0.32400  0.91400  0.89210  Biso   1.000  O
  O32      1.0000 0.29700  0.76300  0.96370  Biso   1.000  O
  O33      1.0000 0.16300  0.09000  0.85440  Biso   1.000  O
  O34      1.0000 0.08900  0.82100  0.13660  Biso   1.000  O
  C25      1.0000 0.46100  0.17700  0.26100  Biso   1.000  C
  H25      1.0000 0.41590  0.22820  0.23600  Biso   1.000  H
  C26      1.0000 0.53600  0.20600  0.30200  Biso   1.000  C
  H26      1.0000 0.53140  0.27490  0.30850  Biso   1.000  H
  C27      1.0000 0.61600  0.02700  0.31700  Biso   1.000  C
  H27      1.0000 0.67640  0.97000  0.33110  Biso   1.000  H
  C28      1.0000 0.53900  0.00300  0.28500  Biso   1.000  C
  H28      1.0000 0.54290  0.93340  0.28070  Biso   1.000  H
  C29      1.0000 0.56100  0.30100  0.51300  Biso   1.000  C
  H29      1.0000 0.54400  0.35650  0.48510  Biso   1.000  H
  C30      1.0000 0.52100  0.32500  0.58100  Biso   1.000  C
  H30      1.0000 0.46470  0.39480  0.59660  Biso   1.000  H
  C31      1.0000 0.60600  0.16300  0.60300  Biso   1.000  C
  H31      1.0000 0.61690  0.11500  0.63590  Biso   1.000  H
  C32      1.0000 0.65100  0.12000  0.53000  Biso   1.000  C
  H32      1.0000 0.69080  0.04710  0.51610  Biso   1.000  H
  C33      1.0000 0.25400  0.67300  0.25700  Biso   1.000  C
  H33      1.0000 0.21200  0.73720  0.28380  Biso   1.000  H
  C34      1.0000 0.18600  0.63400  0.22700  Biso   1.000  C
  H34      1.0000 0.10060  0.67690  0.23150  Biso   1.000  H
  C35      1.0000 0.42800  0.52200  0.21700  Biso   1.000  C
  H35      1.0000 0.51140  0.47700  0.21670  Biso   1.000  H
  C36      1.0000 0.36200  0.48600  0.18800  Biso   1.000  C
  H36      1.0000 0.40420  0.42080  0.16230  Biso   1.000  H
  C37      1.0000 0.67800  0.71000  0.93000  Biso   1.000  C
  H37      1.0000 0.68680  0.74330  0.89010  Biso   1.000  H
  C38      1.0000 0.58700  0.77800  0.98300  Biso   1.000  C
  H38      1.0000 0.53550  0.84810  0.97890  Biso   1.000  H
  C39      1.0000 0.64900  0.62400  0.04300  Biso   1.000  C
  H39      1.0000 0.63780  0.58650  0.08060  Biso   1.000  H
  C40      1.0000 0.75000  0.56400  0.97800  Biso   1.000  C
  H40      1.0000 0.80930  0.49460  0.97730  Biso   1.000  H
  C41      1.0000 0.04200  0.16700  0.26600  Biso   1.000  C
  H41      1.0000 0.05620  0.20270  0.22780  Biso   1.000  H
  C42      1.0000 0.10700  0.06200  0.34000  Biso   1.000  C
  H42      1.0000 0.17370  0.01370  0.35590  Biso   1.000  H
  C43      1.0000 0.97700  0.08400  0.37700  Biso   1.000  C
  H43      1.0000 0.96130  0.05790  0.41890  Biso   1.000  H
  C44      1.0000 0.90900  0.18700  0.30000  Biso   1.000  C
  H44      1.0000 0.84380  0.23530  0.28390  Biso   1.000  H
  C45      1.0000 0.73400  0.67900  0.20000  Biso   1.000  C
  H45      1.0000 0.68430  0.74920  0.19540  Biso   1.000  H
  C46      1.0000 0.74700  0.52100  0.23800  Biso   1.000  C
  H46      1.0000 0.70640  0.48040  0.26160  Biso   1.000  H
  C47      1.0000 0.87100  0.47700  0.21300  Biso   1.000  C
  H47      1.0000 0.91500  0.40500  0.21770  Biso   1.000  H
  C48      1.0000 0.87000  0.64000  0.17200  Biso   1.000  C
  H48      1.0000 0.90740  0.68410  0.14930  Biso   1.000  H
  Si1      1.0000 0.00000  0.00000  0.00000  Biso   1.000  Si
