data_IMUTUG_ion_b
_audit_creation_date              2014-07-02
_audit_creation_method            'Materials Studio'
_symmetry_space_group_name_H-M    'P1'
_symmetry_Int_Tables_number       1
_symmetry_cell_setting            triclinic
loop_
_symmetry_equiv_pos_as_xyz
  x,y,z
_cell_length_a                    22.2690
_cell_length_b                    22.2690
_cell_length_c                    22.2690
_cell_angle_alpha                 109.4712
_cell_angle_beta                  109.4712
_cell_angle_gamma                 109.4712
loop_
_atom_site_label
_atom_site_type_symbol
_atom_site_fract_x
_atom_site_fract_y
_atom_site_fract_z
_atom_site_U_iso_or_equiv
_atom_site_adp_type
_atom_site_occupancy
O1     O     0.54650   0.81060   0.19150   0.00000  Uiso   1.00
O2     O     0.67020   0.94020   0.08800   0.00000  Uiso   1.00
O3     O     0.80360   0.93790   0.07930   0.00000  Uiso   1.00
O4     O     0.53690   0.86610   0.27960   0.00000  Uiso   1.00
C5     C     0.55970   0.86840   0.23610   0.00000  Uiso   1.00
C6     C     0.62060   0.92940   0.18120   0.00000  Uiso   1.00
H7     H     0.60001   0.87357   0.13349   0.00000  Uiso   1.00
C8     C     0.60100   0.93360   0.23960   0.00000  Uiso   1.00
O10    O     0.61910   0.35500   0.80850   0.00000  Uiso   1.00
O11    O     0.85220   0.58220   0.91200   0.00000  Uiso   1.00
O12    O     0.85860   0.72430   0.92070   0.00000  Uiso   1.00
O13    O     0.58650   0.25730   0.72040   0.00000  Uiso   1.00
C14    C     0.63230   0.32360   0.76390   0.00000  Uiso   1.00
C15    C     0.74820   0.43940   0.81880   0.00000  Uiso   1.00
H16    H     0.74008   0.46653   0.86651   0.00000  Uiso   1.00
C17    C     0.69400   0.36140   0.76040   0.00000  Uiso   1.00
O19    O     0.38090   0.18940   0.73590   0.00000  Uiso   1.00
O20    O     0.14780   0.05980   0.73000   0.00000  Uiso   1.00
O21    O     0.14140   0.06210   0.86570   0.00000  Uiso   1.00
O22    O     0.41350   0.13390   0.67080   0.00000  Uiso   1.00
C23    C     0.36770   0.13160   0.69130   0.00000  Uiso   1.00
C24    C     0.25180   0.07060   0.69120   0.00000  Uiso   1.00
H25    H     0.25992   0.12643   0.72645   0.00000  Uiso   1.00
C26    C     0.30600   0.06640   0.66740   0.00000  Uiso   1.00
O28    O     0.45350   0.64500   0.26410   0.00000  Uiso   1.00
O29    O     0.32980   0.41780   0.27000   0.00000  Uiso   1.00
O30    O     0.19640   0.27570   0.13430   0.00000  Uiso   1.00
O31    O     0.46310   0.74270   0.32920   0.00000  Uiso   1.00
C32    C     0.44030   0.67640   0.30870   0.00000  Uiso   1.00
C33    C     0.37940   0.56060   0.30880   0.00000  Uiso   1.00
H34    H     0.39999   0.53347   0.27355   0.00000  Uiso   1.00
C35    C     0.39900   0.63860   0.33260   0.00000  Uiso   1.00
O37    O     0.19150   0.54650   0.81060   0.00000  Uiso   1.00
O38    O     0.08800   0.67020   0.94020   0.00000  Uiso   1.00
O39    O     0.07930   0.80360   0.93790   0.00000  Uiso   1.00
O40    O     0.27960   0.53690   0.86610   0.00000  Uiso   1.00
C41    C     0.23610   0.55970   0.86840   0.00000  Uiso   1.00
C42    C     0.18120   0.62060   0.92940   0.00000  Uiso   1.00
H43    H     0.13349   0.60001   0.87357   0.00000  Uiso   1.00
C44    C     0.23960   0.60100   0.93360   0.00000  Uiso   1.00
O46    O     0.80850   0.61910   0.35500   0.00000  Uiso   1.00
O47    O     0.91200   0.85220   0.58220   0.00000  Uiso   1.00
O48    O     0.92070   0.85860   0.72430   0.00000  Uiso   1.00
O49    O     0.72040   0.58650   0.25730   0.00000  Uiso   1.00
C50    C     0.76390   0.63230   0.32360   0.00000  Uiso   1.00
C51    C     0.81880   0.74820   0.43940   0.00000  Uiso   1.00
H52    H     0.86651   0.74008   0.46653   0.00000  Uiso   1.00
C53    C     0.76040   0.69400   0.36140   0.00000  Uiso   1.00
O55    O     0.73590   0.38090   0.18940   0.00000  Uiso   1.00
O56    O     0.73000   0.14780   0.05980   0.00000  Uiso   1.00
O57    O     0.86570   0.14140   0.06210   0.00000  Uiso   1.00
O58    O     0.67080   0.41350   0.13390   0.00000  Uiso   1.00
C59    C     0.69130   0.36770   0.13160   0.00000  Uiso   1.00
C60    C     0.69120   0.25180   0.07060   0.00000  Uiso   1.00
H61    H     0.72645   0.25992   0.12643   0.00000  Uiso   1.00
C62    C     0.66740   0.30600   0.06640   0.00000  Uiso   1.00
O64    O     0.26410   0.45350   0.64500   0.00000  Uiso   1.00
O65    O     0.27000   0.32980   0.41780   0.00000  Uiso   1.00
O66    O     0.13430   0.19640   0.27570   0.00000  Uiso   1.00
O67    O     0.32920   0.46310   0.74270   0.00000  Uiso   1.00
C68    C     0.30870   0.44030   0.67640   0.00000  Uiso   1.00
C69    C     0.30880   0.37940   0.56060   0.00000  Uiso   1.00
H70    H     0.27355   0.39999   0.53347   0.00000  Uiso   1.00
C71    C     0.33260   0.39900   0.63860   0.00000  Uiso   1.00
O73    O     0.81060   0.19150   0.54650   0.00000  Uiso   1.00
O74    O     0.94020   0.08800   0.67020   0.00000  Uiso   1.00
O75    O     0.93790   0.07930   0.80360   0.00000  Uiso   1.00
O76    O     0.86610   0.27960   0.53690   0.00000  Uiso   1.00
C77    C     0.86840   0.23610   0.55970   0.00000  Uiso   1.00
C78    C     0.92940   0.18120   0.62060   0.00000  Uiso   1.00
H79    H     0.87357   0.13349   0.60001   0.00000  Uiso   1.00
C80    C     0.93360   0.23960   0.60100   0.00000  Uiso   1.00
O82    O     0.35500   0.80850   0.61910   0.00000  Uiso   1.00
O83    O     0.58220   0.91200   0.85220   0.00000  Uiso   1.00
O84    O     0.72430   0.92070   0.85860   0.00000  Uiso   1.00
O85    O     0.25730   0.72040   0.58650   0.00000  Uiso   1.00
C86    C     0.32360   0.76390   0.63230   0.00000  Uiso   1.00
C87    C     0.43940   0.81880   0.74820   0.00000  Uiso   1.00
H88    H     0.46653   0.86651   0.74008   0.00000  Uiso   1.00
C89    C     0.36140   0.76040   0.69400   0.00000  Uiso   1.00
O91    O     0.18940   0.73590   0.38090   0.00000  Uiso   1.00
O92    O     0.05980   0.73000   0.14780   0.00000  Uiso   1.00
O93    O     0.06210   0.86570   0.14140   0.00000  Uiso   1.00
O94    O     0.13390   0.67080   0.41350   0.00000  Uiso   1.00
C95    C     0.13160   0.69130   0.36770   0.00000  Uiso   1.00
C96    C     0.07060   0.69120   0.25180   0.00000  Uiso   1.00
H97    H     0.12643   0.72645   0.25992   0.00000  Uiso   1.00
C98    C     0.06640   0.66740   0.30600   0.00000  Uiso   1.00
O100   O     0.64500   0.26410   0.45350   0.00000  Uiso   1.00
O101   O     0.41780   0.27000   0.32980   0.00000  Uiso   1.00
O102   O     0.27570   0.13430   0.19640   0.00000  Uiso   1.00
O103   O     0.74270   0.32920   0.46310   0.00000  Uiso   1.00
C104   C     0.67640   0.30870   0.44030   0.00000  Uiso   1.00
C105   C     0.56060   0.30880   0.37940   0.00000  Uiso   1.00
H106   H     0.53347   0.27355   0.39999   0.00000  Uiso   1.00
C107   C     0.63860   0.33260   0.39900   0.00000  Uiso   1.00
O109   O     0.81060   0.54650   0.19150   0.00000  Uiso   1.00
O110   O     0.94020   0.67020   0.08800   0.00000  Uiso   1.00
O111   O     0.93790   0.80360   0.07930   0.00000  Uiso   1.00
O112   O     0.86610   0.53690   0.27960   0.00000  Uiso   1.00
C113   C     0.86840   0.55970   0.23610   0.00000  Uiso   1.00
C114   C     0.92940   0.62060   0.18120   0.00000  Uiso   1.00
H115   H     0.87357   0.60001   0.13349   0.00000  Uiso   1.00
C116   C     0.93360   0.60100   0.23960   0.00000  Uiso   1.00
O118   O     0.35500   0.61910   0.80850   0.00000  Uiso   1.00
O119   O     0.58220   0.85220   0.91200   0.00000  Uiso   1.00
O120   O     0.72430   0.85860   0.92070   0.00000  Uiso   1.00
O121   O     0.25730   0.58650   0.72040   0.00000  Uiso   1.00
C122   C     0.32360   0.63230   0.76390   0.00000  Uiso   1.00
C123   C     0.43940   0.74820   0.81880   0.00000  Uiso   1.00
H124   H     0.46653   0.74008   0.86651   0.00000  Uiso   1.00
C125   C     0.36140   0.69400   0.76040   0.00000  Uiso   1.00
O127   O     0.18940   0.38090   0.73590   0.00000  Uiso   1.00
O128   O     0.05980   0.14780   0.73000   0.00000  Uiso   1.00
O129   O     0.06210   0.14140   0.86570   0.00000  Uiso   1.00
O130   O     0.13390   0.41350   0.67080   0.00000  Uiso   1.00
C131   C     0.13160   0.36770   0.69130   0.00000  Uiso   1.00
C132   C     0.07060   0.25180   0.69120   0.00000  Uiso   1.00
H133   H     0.12643   0.25992   0.72645   0.00000  Uiso   1.00
C134   C     0.06640   0.30600   0.66740   0.00000  Uiso   1.00
O136   O     0.64500   0.45350   0.26410   0.00000  Uiso   1.00
O137   O     0.41780   0.32980   0.27000   0.00000  Uiso   1.00
O138   O     0.27570   0.19640   0.13430   0.00000  Uiso   1.00
O139   O     0.74270   0.46310   0.32920   0.00000  Uiso   1.00
C140   C     0.67640   0.44030   0.30870   0.00000  Uiso   1.00
C141   C     0.56060   0.37940   0.30880   0.00000  Uiso   1.00
H142   H     0.53347   0.39999   0.27355   0.00000  Uiso   1.00
C143   C     0.63860   0.39900   0.33260   0.00000  Uiso   1.00
O145   O     0.54650   0.19150   0.81060   0.00000  Uiso   1.00
O146   O     0.67020   0.08800   0.94020   0.00000  Uiso   1.00
O147   O     0.80360   0.07930   0.93790   0.00000  Uiso   1.00
O148   O     0.53690   0.27960   0.86610   0.00000  Uiso   1.00
C149   C     0.55970   0.23610   0.86840   0.00000  Uiso   1.00
C150   C     0.62060   0.18120   0.92940   0.00000  Uiso   1.00
H151   H     0.60001   0.13349   0.87357   0.00000  Uiso   1.00
C152   C     0.60100   0.23960   0.93360   0.00000  Uiso   1.00
O154   O     0.61910   0.80850   0.35500   0.00000  Uiso   1.00
O155   O     0.85220   0.91200   0.58220   0.00000  Uiso   1.00
O156   O     0.85860   0.92070   0.72430   0.00000  Uiso   1.00
O157   O     0.58650   0.72040   0.25730   0.00000  Uiso   1.00
C158   C     0.63230   0.76390   0.32360   0.00000  Uiso   1.00
C159   C     0.74820   0.81880   0.43940   0.00000  Uiso   1.00
H160   H     0.74008   0.86651   0.46653   0.00000  Uiso   1.00
C161   C     0.69400   0.76040   0.36140   0.00000  Uiso   1.00
O163   O     0.38090   0.73590   0.18940   0.00000  Uiso   1.00
O164   O     0.14780   0.73000   0.05980   0.00000  Uiso   1.00
O165   O     0.14140   0.86570   0.06210   0.00000  Uiso   1.00
O166   O     0.41350   0.67080   0.13390   0.00000  Uiso   1.00
C167   C     0.36770   0.69130   0.13160   0.00000  Uiso   1.00
C168   C     0.25180   0.69120   0.07060   0.00000  Uiso   1.00
H169   H     0.25992   0.72645   0.12643   0.00000  Uiso   1.00
C170   C     0.30600   0.66740   0.06640   0.00000  Uiso   1.00
O172   O     0.45350   0.26410   0.64500   0.00000  Uiso   1.00
O173   O     0.32980   0.27000   0.41780   0.00000  Uiso   1.00
O174   O     0.19640   0.13430   0.27570   0.00000  Uiso   1.00
O175   O     0.46310   0.32920   0.74270   0.00000  Uiso   1.00
C176   C     0.44030   0.30870   0.67640   0.00000  Uiso   1.00
C177   C     0.37940   0.30880   0.56060   0.00000  Uiso   1.00
H178   H     0.39999   0.27355   0.53347   0.00000  Uiso   1.00
C179   C     0.39900   0.33260   0.63860   0.00000  Uiso   1.00
O181   O     0.19150   0.81060   0.54650   0.00000  Uiso   1.00
O182   O     0.08800   0.94020   0.67020   0.00000  Uiso   1.00
O183   O     0.07930   0.93790   0.80360   0.00000  Uiso   1.00
O184   O     0.27960   0.86610   0.53690   0.00000  Uiso   1.00
C185   C     0.23610   0.86840   0.55970   0.00000  Uiso   1.00
C186   C     0.18120   0.92940   0.62060   0.00000  Uiso   1.00
H187   H     0.13349   0.87357   0.60001   0.00000  Uiso   1.00
C188   C     0.23960   0.93360   0.60100   0.00000  Uiso   1.00
O190   O     0.80850   0.35500   0.61910   0.00000  Uiso   1.00
O191   O     0.91200   0.58220   0.85220   0.00000  Uiso   1.00
O192   O     0.92070   0.72430   0.85860   0.00000  Uiso   1.00
O193   O     0.72040   0.25730   0.58650   0.00000  Uiso   1.00
C194   C     0.76390   0.32360   0.63230   0.00000  Uiso   1.00
C195   C     0.81880   0.43940   0.74820   0.00000  Uiso   1.00
H196   H     0.86651   0.46653   0.74008   0.00000  Uiso   1.00
C197   C     0.76040   0.36140   0.69400   0.00000  Uiso   1.00
O199   O     0.73590   0.18940   0.38090   0.00000  Uiso   1.00
O200   O     0.73000   0.05980   0.14780   0.00000  Uiso   1.00
O201   O     0.86570   0.06210   0.14140   0.00000  Uiso   1.00
O202   O     0.67080   0.13390   0.41350   0.00000  Uiso   1.00
C203   C     0.69130   0.13160   0.36770   0.00000  Uiso   1.00
C204   C     0.69120   0.07060   0.25180   0.00000  Uiso   1.00
H205   H     0.72645   0.12643   0.25992   0.00000  Uiso   1.00
C206   C     0.66740   0.06640   0.30600   0.00000  Uiso   1.00
O208   O     0.26410   0.64500   0.45350   0.00000  Uiso   1.00
O209   O     0.27000   0.41780   0.32980   0.00000  Uiso   1.00
O210   O     0.13430   0.27570   0.19640   0.00000  Uiso   1.00
O211   O     0.32920   0.74270   0.46310   0.00000  Uiso   1.00
C212   C     0.30870   0.67640   0.44030   0.00000  Uiso   1.00
C213   C     0.30880   0.56060   0.37940   0.00000  Uiso   1.00
H214   H     0.27355   0.53347   0.39999   0.00000  Uiso   1.00
C215   C     0.33260   0.63860   0.39900   0.00000  Uiso   1.00
In217  In    0.69437   0.90283  -0.00000   0.00000  Uiso   1.00
In219  In    0.90283   0.69437  -0.00000   0.00000  Uiso   1.00
In221  In    0.09717   0.09717   0.79154   0.00000  Uiso   1.00
In223  In    0.30563   0.30563   0.20846   0.00000  Uiso   1.00
In225  In    0.00000   0.69437   0.90283   0.00000  Uiso   1.00
In227  In    0.00000   0.90283   0.69437   0.00000  Uiso   1.00
In229  In    0.79154   0.09717   0.09717   0.00000  Uiso   1.00
In231  In    0.20846   0.30563   0.30563   0.00000  Uiso   1.00
In233  In    0.90283   0.00000   0.69437   0.00000  Uiso   1.00
In235  In    0.69437  -0.00000   0.90283   0.00000  Uiso   1.00
In237  In    0.09717   0.79154   0.09717   0.00000  Uiso   1.00
In239  In    0.30563   0.20846   0.30563   0.00000  Uiso   1.00
In241  In    0.50000   0.75000   0.25000   0.00000  Uiso   1.00
In242  In    0.50000   0.25000   0.75000   0.00000  Uiso   1.00
In243  In    0.25000   0.50000   0.75000   0.00000  Uiso   1.00
In244  In    0.75000   0.50000   0.25000   0.00000  Uiso   1.00
In245  In    0.75000   0.25000   0.50000   0.00000  Uiso   1.00
In246  In    0.25000   0.75000   0.50000   0.00000  Uiso   1.00
O247   O     0.73140  -0.00000  -0.00000   0.00000  Uiso   1.00
O248   O     0.00000   0.73140  -0.00000   0.00000  Uiso   1.00
O249   O     0.00000   0.00000   0.73140   0.00000  Uiso   1.00
O250   O     0.26860   0.26860   0.26860   0.00000  Uiso   1.00
C251   C     0.00000   0.06590   0.19330   0.00000  Uiso   1.00
H252   H    -0.00125   0.11956   0.21120   0.00000  Uiso   1.00
C253   C     0.87260   0.80670   0.80670   0.00000  Uiso   1.00
H254   H     0.90836   0.78755   0.78880   0.00000  Uiso   1.00
C255   C     0.12740   0.93410   0.93410   0.00000  Uiso   1.00
H256   H     0.09164   0.88044   0.87919   0.00000  Uiso   1.00
C257   C     0.00000   0.19330   0.06590   0.00000  Uiso   1.00
H258   H     0.00125   0.21245   0.12081   0.00000  Uiso   1.00
C259   C     0.19330  -0.00000   0.06590   0.00000  Uiso   1.00
H260   H     0.21120  -0.00125   0.11956   0.00000  Uiso   1.00
C261   C     0.80670   0.87260   0.80670   0.00000  Uiso   1.00
H262   H     0.78880   0.90836   0.78755   0.00000  Uiso   1.00
C263   C     0.93410   0.12740   0.93410   0.00000  Uiso   1.00
H264   H     0.87919   0.09164   0.88044   0.00000  Uiso   1.00
C265   C     0.06590  -0.00000   0.19330   0.00000  Uiso   1.00
H266   H     0.12081   0.00125   0.21245   0.00000  Uiso   1.00
C267   C     0.06590   0.19330  -0.00000   0.00000  Uiso   1.00
H268   H     0.12081   0.21245   0.00125   0.00000  Uiso   1.00
C269   C     0.80670   0.80670   0.87260   0.00000  Uiso   1.00
H270   H     0.78880   0.78755   0.90836   0.00000  Uiso   1.00
C271   C     0.93410   0.93410   0.12740   0.00000  Uiso   1.00
H272   H     0.87919   0.88044   0.09164   0.00000  Uiso   1.00
C273   C     0.19330   0.06590   0.00000   0.00000  Uiso   1.00
H274   H     0.21120   0.11956  -0.00125   0.00000  Uiso   1.00
C275   C     0.93560  -0.00000   0.14960   0.00000  Uiso   1.00
C276   C     0.69140  -0.00000   0.13840   0.00000  Uiso   1.00
C277   C     0.86120  -0.00000   0.12300   0.00000  Uiso   1.00
C278   C     0.62340  -0.00000   0.29840   0.00000  Uiso   1.00
H279   H     0.60569   0.00033   0.34094   0.00000  Uiso   1.00
C280   C     0.66470  -0.00000   0.19470   0.00000  Uiso   1.00
C282   C     0.85040   0.78600   0.85040   0.00000  Uiso   1.00
C283   C     0.86160   0.55300   0.86160   0.00000  Uiso   1.00
C284   C     0.87700   0.73820   0.87700   0.00000  Uiso   1.00
C285   C     0.70160   0.32500   0.70160   0.00000  Uiso   1.00
H286   H     0.65906   0.26474   0.65939   0.00000  Uiso   1.00
C287   C     0.80530   0.47000   0.80530   0.00000  Uiso   1.00
C289   C     0.14960   0.00000   0.93560   0.00000  Uiso   1.00
C290   C     0.13840  -0.00000   0.69140   0.00000  Uiso   1.00
C291   C     0.12300  -0.00000   0.86120   0.00000  Uiso   1.00
C292   C     0.29840  -0.00000   0.62340   0.00000  Uiso   1.00
H293   H     0.34061  -0.00033   0.60536   0.00000  Uiso   1.00
C294   C     0.19470  -0.00000   0.66470   0.00000  Uiso   1.00
C296   C     0.06440   0.21400   0.06440   0.00000  Uiso   1.00
C297   C     0.30860   0.44700   0.30860   0.00000  Uiso   1.00
C298   C     0.13880   0.26180   0.13880   0.00000  Uiso   1.00
C299   C     0.37660   0.67500   0.37660   0.00000  Uiso   1.00
H300   H     0.39464   0.73526   0.39431   0.00000  Uiso   1.00
C301   C     0.33530   0.53000   0.33530   0.00000  Uiso   1.00
C303   C     0.14960   0.93560  -0.00000   0.00000  Uiso   1.00
C304   C     0.13840   0.69140   0.00000   0.00000  Uiso   1.00
C305   C     0.12300   0.86120  -0.00000   0.00000  Uiso   1.00
C306   C     0.29840   0.62340  -0.00000   0.00000  Uiso   1.00
H307   H     0.34094   0.60569   0.00033   0.00000  Uiso   1.00
C308   C     0.19470   0.66470  -0.00000   0.00000  Uiso   1.00
C310   C     0.85040   0.85040   0.78600   0.00000  Uiso   1.00
C311   C     0.86160   0.86160   0.55300   0.00000  Uiso   1.00
C312   C     0.87700   0.87700   0.73820   0.00000  Uiso   1.00
C313   C     0.70160   0.70160   0.32500   0.00000  Uiso   1.00
H314   H     0.65939   0.65906   0.26474   0.00000  Uiso   1.00
C315   C     0.80530   0.80530   0.47000   0.00000  Uiso   1.00
C317   C     0.93560   0.14960  -0.00000   0.00000  Uiso   1.00
C318   C     0.69140   0.13840  -0.00000   0.00000  Uiso   1.00
C319   C     0.86120   0.12300   0.00000   0.00000  Uiso   1.00
C320   C     0.62340   0.29840  -0.00000   0.00000  Uiso   1.00
H321   H     0.60569   0.34094   0.00033   0.00000  Uiso   1.00
C322   C     0.66470   0.19470  -0.00000   0.00000  Uiso   1.00
C324   C     0.06440   0.06440   0.21400   0.00000  Uiso   1.00
C325   C     0.30860   0.30860   0.44700   0.00000  Uiso   1.00
C326   C     0.13880   0.13880   0.26180   0.00000  Uiso   1.00
C327   C     0.37660   0.37660   0.67500   0.00000  Uiso   1.00
H328   H     0.39464   0.39431   0.73526   0.00000  Uiso   1.00
C329   C     0.33530   0.33530   0.53000   0.00000  Uiso   1.00
C331   C     0.00000   0.14960   0.93560   0.00000  Uiso   1.00
C332   C     0.00000   0.13840   0.69140   0.00000  Uiso   1.00
C333   C     0.00000   0.12300   0.86120   0.00000  Uiso   1.00
C334   C     0.00000   0.29840   0.62340   0.00000  Uiso   1.00
H335   H    -0.00033   0.34061   0.60536   0.00000  Uiso   1.00
C336   C     0.00000   0.19470   0.66470   0.00000  Uiso   1.00
C338   C     0.78600   0.85040   0.85040   0.00000  Uiso   1.00
C339   C     0.55300   0.86160   0.86160   0.00000  Uiso   1.00
C340   C     0.73820   0.87700   0.87700   0.00000  Uiso   1.00
C341   C     0.32500   0.70160   0.70160   0.00000  Uiso   1.00
H342   H     0.26474   0.65906   0.65939   0.00000  Uiso   1.00
C343   C     0.47000   0.80530   0.80530   0.00000  Uiso   1.00
C345   C     0.00000   0.93560   0.14960   0.00000  Uiso   1.00
C346   C     0.00000   0.69140   0.13840   0.00000  Uiso   1.00
C347   C     0.00000   0.86120   0.12300   0.00000  Uiso   1.00
C348   C     0.00000   0.62340   0.29840   0.00000  Uiso   1.00
H349   H    -0.00033   0.60536   0.34061   0.00000  Uiso   1.00
C350   C     0.00000   0.66470   0.19470   0.00000  Uiso   1.00
C352   C     0.21400   0.06440   0.06440   0.00000  Uiso   1.00
C353   C     0.44700   0.30860   0.30860   0.00000  Uiso   1.00
C354   C     0.26180   0.13880   0.13880   0.00000  Uiso   1.00
C355   C     0.67500   0.37660   0.37660   0.00000  Uiso   1.00
H356   H     0.73526   0.39464   0.39431   0.00000  Uiso   1.00
C357   C     0.53000   0.33530   0.33530   0.00000  Uiso   1.00
loop_
_geom_bond_atom_site_label_1
_geom_bond_atom_site_label_2
_geom_bond_distance
_geom_bond_site_symmetry_2
_ccdc_geom_bond_type
O1     C5      1.196   .     A
O1     In241   2.394   .     S
O2     In217   2.176   .     S
O2     C276    1.219   1_565 A
O3     In217   2.144   .     S
O3     C277    1.262   1_565 S
O4     C5      1.242   .     A
O4     In241   2.209   .     S
C5     C8      1.395   .     S
C6     H7      1.140   .     S
C6     C8      1.488   .     A
C6     C280    1.409   1_565 S
C8     C278    1.390   1_565 S
O10    C14     1.196   .     A
O10    In242   2.394   .     S
O11    C283    1.219   .     A
O11    In219   2.176   1_556 A
O12    C284    1.262   .     A
O12    In219   2.144   1_556 S
O13    C14     1.242   .     A
O13    In242   2.209   .     S
C14    C17     1.395   .     S
C15    H16     1.140   .     S
C15    C17     1.488   .     A
C15    C287    1.409   .     A
C17    C285    1.390   .     A
O19    C23     1.196   .     A
O19    In242   2.394   .     S
O20    In221   2.176   .     S
O20    C290    1.219   .     A
O21    In221   2.144   .     S
O21    C291    1.262   .     A
O22    C23     1.242   .     A
O22    In242   2.209   .     S
C23    C26     1.395   .     S
C24    H25     1.140   .     S
C24    C26     1.488   .     A
C24    C294    1.409   .     A
C26    C292    1.390   .     A
O28    C32     1.196   .     A
O28    In241   2.394   .     S
O29    In223   2.176   .     S
O29    C297    1.219   .     A
O30    In223   2.144   .     S
O30    C298    1.262   .     A
O31    C32     1.242   .     A
O31    In241   2.209   .     S
C32    C35     1.395   .     S
C33    H34     1.140   .     S
C33    C35     1.488   .     A
C33    C301    1.409   .     A
C35    C299    1.390   .     A
O37    C41     1.196   .     A
O37    In243   2.394   .     S
O38    In225   2.176   .     S
O38    C304    1.219   1_556 S
O39    In225   2.144   .     S
O39    C305    1.262   1_556 S
O40    C41     1.242   .     A
O40    In243   2.209   .     S
C41    C44     1.395   .     S
C42    H43     1.140   .     S
C42    C44     1.488   .     A
C42    C308    1.409   1_556 A
C44    C306    1.390   1_556 A
O46    C50     1.196   .     A
O46    In244   2.394   .     S
O47    C311    1.219   .     A
O47    In227   2.176   1_655 S
O48    C312    1.262   .     A
O48    In227   2.144   1_655 A
O49    C50     1.242   .     A
O49    In244   2.209   .     S
C50    C53     1.395   .     S
C51    H52     1.140   .     S
C51    C53     1.488   .     A
C51    C315    1.409   .     A
C53    C313    1.390   .     A
O55    C59     1.196   .     A
O55    In244   2.394   .     S
O56    In229   2.176   .     S
O56    C318    1.219   .     A
O57    In229   2.144   .     S
O57    C319    1.262   .     A
O58    C59     1.242   .     A
O58    In244   2.209   .     S
C59    C62     1.395   .     S
C60    H61     1.140   .     S
C60    C62     1.488   .     A
C60    C322    1.409   .     A
C62    C320    1.390   .     A
O64    C68     1.196   .     A
O64    In243   2.394   .     S
O65    In231   2.176   .     S
O65    C325    1.219   .     A
O66    In231   2.144   .     S
O66    C326    1.262   .     A
O67    C68     1.242   .     A
O67    In243   2.209   .     S
C68    C71     1.395   .     S
C69    H70     1.140   .     S
C69    C71     1.488   .     A
C69    C329    1.409   .     A
C71    C327    1.390   .     A
O73    C77     1.196   .     A
O73    In245   2.394   .     S
O74    In233   2.176   .     S
O74    C332    1.219   1_655 A
O75    In233   2.144   .     S
O75    C333    1.262   1_655 A
O76    C77     1.242   .     A
O76    In245   2.209   .     S
C77    C80     1.395   .     S
C78    H79     1.140   .     S
C78    C80     1.488   .     A
C78    C336    1.409   1_655 S
C80    C334    1.390   1_655 S
O82    C86     1.196   .     A
O82    In246   2.394   .     S
O83    C339    1.219   .     A
O83    In235   2.176   1_565 S
O84    C340    1.262   .     A
O84    In235   2.144   1_565 A
O85    C86     1.242   .     A
O85    In246   2.209   .     S
C86    C89     1.395   .     S
C87    H88     1.140   .     S
C87    C89     1.488   .     A
C87    C343    1.409   .     A
C89    C341    1.390   .     A
O91    C95     1.196   .     A
O91    In246   2.394   .     S
O92    In237   2.176   .     S
O92    C346    1.219   .     A
O93    In237   2.144   .     S
O93    C347    1.262   .     A
O94    C95     1.242   .     A
O94    In246   2.209   .     S
C95    C98     1.395   .     S
C96    H97     1.140   .     S
C96    C98     1.488   .     A
C96    C350    1.409   .     A
C98    C348    1.390   .     A
O100   C104    1.196   .     A
O100   In245   2.394   .     S
O101   In239   2.176   .     S
O101   C353    1.219   .     A
O102   In239   2.144   .     S
O102   C354    1.262   .     A
O103   C104    1.242   .     A
O103   In245   2.209   .     S
C104   C107    1.395   .     S
C105   H106    1.140   .     S
C105   C107    1.488   .     A
C105   C357    1.409   .     A
C107   C355    1.390   .     A
O109   C113    1.196   .     A
O109   In244   2.394   .     S
O110   In219   2.176   .     S
O110   C346    1.219   1_655 A
O111   In219   2.144   .     S
O111   C347    1.262   1_655 A
O112   C113    1.242   .     A
O112   In244   2.209   .     S
C113   C116    1.395   .     S
C114   H115    1.140   .     S
C114   C116    1.488   .     A
C114   C350    1.409   1_655 A
C116   C348    1.390   1_655 S
O118   C122    1.196   .     A
O118   In243   2.394   .     S
O119   C339    1.219   .     A
O119   In217   2.176   1_556 S
O120   C340    1.262   .     A
O120   In217   2.144   1_556 A
O121   C122    1.242   .     A
O121   In243   2.209   .     S
C122   C125    1.395   .     S
C123   H124    1.140   .     S
C123   C125    1.488   .     A
C123   C343    1.409   .     A
C125   C341    1.390   .     A
O127   C131    1.196   .     A
O127   In243   2.394   .     S
O128   In221   2.176   .     S
O128   C332    1.219   .     A
O129   In221   2.144   .     S
O129   C333    1.262   .     A
O130   C131    1.242   .     A
O130   In243   2.209   .     S
C131   C134    1.395   .     S
C132   H133    1.140   .     S
C132   C134    1.488   .     A
C132   C336    1.409   .     A
C134   C334    1.390   .     A
O136   C140    1.196   .     A
O136   In244   2.394   .     S
O137   In223   2.176   .     S
O137   C353    1.219   .     A
O138   In223   2.144   .     S
O138   C354    1.262   .     A
O139   C140    1.242   .     A
O139   In244   2.209   .     S
C140   C143    1.395   .     S
C141   H142    1.140   .     S
C141   C143    1.488   .     A
C141   C357    1.409   .     A
C143   C355    1.390   .     A
O145   C149    1.196   .     A
O145   In242   2.394   .     S
O146   In235   2.176   .     S
O146   C318    1.219   1_556 S
O147   In235   2.144   .     S
O147   C319    1.262   1_556 A
O148   C149    1.242   .     A
O148   In242   2.209   .     S
C149   C152    1.395   .     S
C150   H151    1.140   .     S
C150   C152    1.488   .     A
C150   C322    1.409   1_556 A
C152   C320    1.390   1_556 S
O154   C158    1.196   .     A
O154   In241   2.394   .     S
O155   C311    1.219   .     A
O155   In233   2.176   1_565 S
O156   C312    1.262   .     A
O156   In233   2.144   1_565 S
O157   C158    1.242   .     A
O157   In241   2.209   .     S
C158   C161    1.395   .     S
C159   H160    1.140   .     S
C159   C161    1.488   .     A
C159   C315    1.409   .     A
C161   C313    1.390   .     A
O163   C167    1.196   .     A
O163   In241   2.394   .     S
O164   In237   2.176   .     S
O164   C304    1.219   .     A
O165   In237   2.144   .     S
O165   C305    1.262   .     A
O166   C167    1.242   .     A
O166   In241   2.209   .     S
C167   C170    1.395   .     S
C168   H169    1.140   .     S
C168   C170    1.488   .     A
C168   C308    1.409   .     A
C170   C306    1.390   .     A
O172   C176    1.196   .     A
O172   In242   2.394   .     S
O173   In239   2.176   .     S
O173   C325    1.219   .     A
O174   In239   2.144   .     S
O174   C326    1.262   .     A
O175   C176    1.242   .     A
O175   In242   2.209   .     S
C176   C179    1.395   .     S
C177   H178    1.140   .     S
C177   C179    1.488   .     A
C177   C329    1.409   .     A
C179   C327    1.390   .     A
O181   C185    1.196   .     A
O181   In246   2.394   .     S
O182   In227   2.176   .     S
O182   C290    1.219   1_565 A
O183   In227   2.144   .     S
O183   C291    1.262   1_565 A
O184   C185    1.242   .     A
O184   In246   2.209   .     S
C185   C188    1.395   .     S
C186   H187    1.140   .     S
C186   C188    1.488   .     A
C186   C294    1.409   1_565 A
C188   C292    1.390   1_565 A
O190   C194    1.196   .     A
O190   In245   2.394   .     S
O191   C283    1.219   .     A
O191   In225   2.176   1_655 S
O192   C284    1.262   .     A
O192   In225   2.144   1_655 S
O193   C194    1.242   .     A
O193   In245   2.209   .     S
C194   C197    1.395   .     S
C195   H196    1.140   .     S
C195   C197    1.488   .     A
C195   C287    1.409   .     A
C197   C285    1.390   .     A
O199   C203    1.196   .     A
O199   In245   2.394   .     S
O200   In229   2.176   .     S
O200   C276    1.219   .     A
O201   In229   2.144   .     S
O201   C277    1.262   .     A
O202   C203    1.242   .     A
O202   In245   2.209   .     S
C203   C206    1.395   .     S
C204   H205    1.140   .     S
C204   C206    1.488   .     A
C204   C280    1.409   .     A
C206   C278    1.390   .     A
O208   C212    1.196   .     A
O208   In246   2.394   .     S
O209   In231   2.176   .     S
O209   C297    1.219   .     A
O210   In231   2.144   .     S
O210   C298    1.262   .     A
O211   C212    1.242   .     A
O211   In246   2.209   .     S
C212   C215    1.395   .     S
C213   H214    1.140   .     S
C213   C215    1.488   .     A
C213   C301    1.409   .     A
C215   C299    1.390   .     A
In217  O119    2.176   1_554 S
In217  O120    2.144   1_554 A
In217  O247    2.043   1_565 A
In219  O11     2.176   1_554 A
In219  O12     2.144   1_554 S
In219  O248    2.043   1_655 S
In221  O249    2.043   .     S
In223  O250    2.043   .     S
In225  O191    2.176   1_455 S
In225  O192    2.144   1_455 S
In225  O248    2.043   1_556 A
In227  O47     2.176   1_455 S
In227  O48     2.144   1_455 A
In227  O249    2.043   1_565 S
In229  O247    2.043   .     S
In231  O250    2.043   .     S
In233  O155    2.176   1_545 S
In233  O156    2.144   1_545 S
In233  O249    2.043   1_655 A
In235  O83     2.176   1_545 S
In235  O84     2.144   1_545 A
In235  O247    2.043   1_556 S
In237  O248    2.043   .     S
In239  O250    2.043   .     S
O247   In217   2.043   1_545 A
O247   In235   2.043   1_554 S
O248   In219   2.043   1_455 S
O248   In225   2.043   1_554 A
O249   In227   2.043   1_545 S
O249   In233   2.043   1_455 A
C251   H252    1.140   .     S
C251   C324    1.368   .     A
C251   C275    1.368   1_455 S
C253   H254    1.140   .     S
C253   C282    1.368   .     A
C253   C310    1.368   .     A
C255   H256    1.140   .     S
C255   C289    1.368   1_565 S
C255   C303    1.368   1_556 S
C257   H258    1.140   .     S
C257   C296    1.368   .     A
C257   C317    1.368   1_455 A
C259   H260    1.140   .     S
C259   C352    1.368   .     A
C259   C303    1.368   1_545 A
C261   H262    1.140   .     S
C261   C310    1.368   .     A
C261   C338    1.368   .     A
C263   H264    1.140   .     S
C263   C317    1.368   1_556 A
C263   C331    1.368   1_655 A
C265   H266    1.140   .     S
C265   C324    1.368   .     A
C265   C345    1.368   1_545 S
C267   H268    1.140   .     S
C267   C296    1.368   .     A
C267   C331    1.368   1_554 S
C269   H270    1.140   .     S
C269   C282    1.368   .     A
C269   C338    1.368   .     A
C271   H272    1.140   .     S
C271   C275    1.368   1_565 A
C271   C345    1.368   1_655 S
C273   H274    1.140   .     S
C273   C352    1.368   .     A
C273   C289    1.368   1_554 A
C275   C277    1.563   .     S
C275   C251    1.368   1_655 S
C275   C271    1.368   1_545 A
C276   C280    1.556   .     S
C276   O2      1.219   1_545 A
C277   O3      1.262   1_545 S
C278   H279    1.140   .     S
C278   C8      1.390   1_545 S
C280   C6      1.409   1_545 S
C282   C284    1.563   .     S
C283   C287    1.556   .     S
C285   H286    1.140   .     S
C289   C291    1.563   .     S
C289   C255    1.368   1_545 S
C289   C273    1.368   1_556 A
C290   C294    1.556   .     S
C290   O182    1.219   1_545 A
C291   O183    1.262   1_545 A
C292   H293    1.140   .     S
C292   C188    1.390   1_545 A
C294   C186    1.409   1_545 A
C296   C298    1.563   .     S
C297   C301    1.556   .     S
C299   H300    1.140   .     S
C303   C305    1.563   .     S
C303   C255    1.368   1_554 S
C303   C259    1.368   1_565 A
C304   C308    1.556   .     S
C304   O38     1.219   1_554 S
C305   O39     1.262   1_554 S
C306   H307    1.140   .     S
C306   C44     1.390   1_554 A
C308   C42     1.409   1_554 A
C310   C312    1.563   .     S
C311   C315    1.556   .     S
C313   H314    1.140   .     S
C317   C319    1.563   .     S
C317   C257    1.368   1_655 A
C317   C263    1.368   1_554 A
C318   C322    1.556   .     S
C318   O146    1.219   1_554 S
C319   O147    1.262   1_554 A
C320   H321    1.140   .     S
C320   C152    1.390   1_554 S
C322   C150    1.409   1_554 A
C324   C326    1.563   .     S
C325   C329    1.556   .     S
C327   H328    1.140   .     S
C331   C333    1.563   .     S
C331   C263    1.368   1_455 A
C331   C267    1.368   1_556 S
C332   C336    1.556   .     S
C332   O74     1.219   1_455 A
C333   O75     1.262   1_455 A
C334   H335    1.140   .     S
C334   C80     1.390   1_455 S
C336   C78     1.409   1_455 S
C338   C340    1.563   .     S
C339   C343    1.556   .     S
C341   H342    1.140   .     S
C345   C347    1.563   .     S
C345   C265    1.368   1_565 S
C345   C271    1.368   1_455 S
C346   C350    1.556   .     S
C346   O110    1.219   1_455 A
C347   O111    1.262   1_455 A
C348   H349    1.140   .     S
C348   C116    1.390   1_455 S
C350   C114    1.409   1_455 A
C352   C354    1.563   .     S
C353   C357    1.556   .     S
C355   H356    1.140   .     S
