data_INAMUG_clean
_audit_creation_date              2014-07-02
_audit_creation_method            'Materials Studio'
_symmetry_space_group_name_H-M    'P1'
_symmetry_Int_Tables_number       1
_symmetry_cell_setting            triclinic
loop_
_symmetry_equiv_pos_as_xyz
  x,y,z
_cell_length_a                    11.1660
_cell_length_b                    11.6380
_cell_length_c                    20.9500
_cell_angle_alpha                 96.2500
_cell_angle_beta                  90.6800
_cell_angle_gamma                 108.4900
loop_
_atom_site_label
_atom_site_type_symbol
_atom_site_fract_x
_atom_site_fract_y
_atom_site_fract_z
_atom_site_U_iso_or_equiv
_atom_site_adp_type
_atom_site_occupancy
Co1    Co    0.86552   0.52078   0.75937   0.01267  Uiso   1.00
Co2    Co    0.13448   0.47922   0.24063   0.01267  Uiso   1.00
Co3    Co    0.00000   0.00000   0.50000   0.01267  Uiso   1.00
Co4    Co    0.50000   0.50000   0.00000   0.01267  Uiso   1.00
H1     H     0.12720   0.67440   0.96160   0.01267  Uiso   1.00
H2     H     0.90310   0.35350   0.56510   0.01267  Uiso   1.00
H3     H     0.67260   0.13150   0.62960   0.01267  Uiso   1.00
H4     H     0.79390   0.11410   0.54420   0.01267  Uiso   1.00
H5     H     0.91210   0.87780   0.62140   0.01267  Uiso   1.00
H6     H     0.24950   0.05390   0.81010   0.01267  Uiso   1.00
H7     H     0.23860   0.18390   0.83000   0.01267  Uiso   1.00
H8     H     0.24350   0.14280   0.69630   0.01267  Uiso   1.00
H9     H     0.44180   0.26300   0.65030   0.01267  Uiso   1.00
H10    H     0.10980   0.60450   0.84660   0.01267  Uiso   1.00
H11    H     0.24600   0.86680   0.69670   0.01267  Uiso   1.00
H12    H     0.04490   0.73290   0.69060   0.01267  Uiso   1.00
H13    H     0.03610   0.01940   0.81770   0.01267  Uiso   1.00
H14    H     0.05500   0.00860   0.74340   0.01267  Uiso   1.00
H15    H     0.48250   0.89090   0.82040   0.01267  Uiso   1.00
H16    H     0.42910   0.99330   0.80310   0.01267  Uiso   1.00
H17    H     0.51700   0.84660   0.71250   0.01267  Uiso   1.00
H18    H     0.46240   0.94820   0.69480   0.01267  Uiso   1.00
H19    H     0.63210   0.09930   0.74520   0.01267  Uiso   1.00
H20    H     0.68180   0.00410   0.77520   0.01267  Uiso   1.00
H21    H     0.79080   0.88620   0.70810   0.01267  Uiso   1.00
H22    H     0.80140   0.59220   0.19610   0.01267  Uiso   1.00
H23    H     0.73580   0.59240   0.09280   0.01267  Uiso   1.00
H24    H     0.39350   0.39660   0.12500   0.01267  Uiso   1.00
H25    H     0.44970   0.38930   0.22910   0.01267  Uiso   1.00
H26    H     0.76530   0.53260   0.30790   0.01267  Uiso   1.00
H27    H     0.51990   0.45820   0.34400   0.01267  Uiso   1.00
H28    H     0.54710   0.33790   0.31780   0.01267  Uiso   1.00
H29    H     0.67650   0.49990   0.42540   0.01267  Uiso   1.00
H30    H     0.71560   0.38720   0.39730   0.01267  Uiso   1.00
H31    H     0.65870   0.23810   0.47010   0.01267  Uiso   1.00
H32    H     0.51480   0.11880   0.53190   0.01267  Uiso   1.00
H33    H     0.27030   0.27970   0.49770   0.01267  Uiso   1.00
H34    H     0.40770   0.40540   0.43570   0.01267  Uiso   1.00
H35    H     0.03820   0.17780   0.68140   0.01267  Uiso   1.00
H36    H     0.90830   0.35480   0.86070   0.01267  Uiso   1.00
H37    H     0.30980   0.74190   0.85970   0.01267  Uiso   1.00
H38    H     0.97520   0.34580   0.67840   0.01267  Uiso   1.00
H39    H     0.97580   0.19070   0.86940   0.01267  Uiso   1.00
H40    H     0.64670   0.38710   0.65950   0.01267  Uiso   1.00
H41    H     0.66680   0.35790   0.84230   0.01267  Uiso   1.00
H42    H     0.46100   0.23180   0.83810   0.01267  Uiso   1.00
H43    H     0.87280   0.32560   0.03840   0.01267  Uiso   1.00
H44    H     0.09690   0.64650   0.43490   0.01267  Uiso   1.00
H45    H     0.32740   0.86850   0.37040   0.01267  Uiso   1.00
H46    H     0.20610   0.88590   0.45580   0.01267  Uiso   1.00
H47    H     0.08790   0.12220   0.37860   0.01267  Uiso   1.00
H48    H     0.75050   0.94610   0.18990   0.01267  Uiso   1.00
H49    H     0.76140   0.81610   0.17000   0.01267  Uiso   1.00
H50    H     0.75650   0.85720   0.30370   0.01267  Uiso   1.00
H51    H     0.55820   0.73700   0.34970   0.01267  Uiso   1.00
H52    H     0.89020   0.39550   0.15340   0.01267  Uiso   1.00
H53    H     0.75400   0.13320   0.30330   0.01267  Uiso   1.00
H54    H     0.95510   0.26710   0.30940   0.01267  Uiso   1.00
H55    H     0.96390   0.98060   0.18230   0.01267  Uiso   1.00
H56    H     0.94500   0.99140   0.25660   0.01267  Uiso   1.00
H57    H     0.51750   0.10910   0.17960   0.01267  Uiso   1.00
H58    H     0.57090   0.00670   0.19690   0.01267  Uiso   1.00
H59    H     0.48300   0.15340   0.28750   0.01267  Uiso   1.00
H60    H     0.53760   0.05180   0.30520   0.01267  Uiso   1.00
H61    H     0.36790   0.90070   0.25480   0.01267  Uiso   1.00
H62    H     0.31820   0.99590   0.22480   0.01267  Uiso   1.00
H63    H     0.20920   0.11380   0.29190   0.01267  Uiso   1.00
H64    H     0.19860   0.40780   0.80390   0.01267  Uiso   1.00
H65    H     0.26420   0.40760   0.90720   0.01267  Uiso   1.00
H66    H     0.60650   0.60340   0.87500   0.01267  Uiso   1.00
H67    H     0.55030   0.61070   0.77090   0.01267  Uiso   1.00
H68    H     0.23470   0.46740   0.69210   0.01267  Uiso   1.00
H69    H     0.48010   0.54180   0.65600   0.01267  Uiso   1.00
H70    H     0.45290   0.66210   0.68220   0.01267  Uiso   1.00
H71    H     0.32350   0.50010   0.57460   0.01267  Uiso   1.00
H72    H     0.28440   0.61280   0.60270   0.01267  Uiso   1.00
H73    H     0.34130   0.76190   0.52990   0.01267  Uiso   1.00
H74    H     0.48520   0.88120   0.46810   0.01267  Uiso   1.00
H75    H     0.72970   0.72030   0.50230   0.01267  Uiso   1.00
H76    H     0.59230   0.59460   0.56430   0.01267  Uiso   1.00
H77    H     0.96180   0.82220   0.31860   0.01267  Uiso   1.00
H78    H     0.09170   0.64520   0.13930   0.01267  Uiso   1.00
H79    H     0.69020   0.25810   0.14030   0.01267  Uiso   1.00
H80    H     0.02480   0.65420   0.32160   0.01267  Uiso   1.00
H81    H     0.02420   0.80930   0.13060   0.01267  Uiso   1.00
H82    H     0.35330   0.61290   0.34050   0.01267  Uiso   1.00
H83    H     0.33320   0.64210   0.15770   0.01267  Uiso   1.00
H84    H     0.53900   0.76820   0.16190   0.01267  Uiso   1.00
C1     C     0.72742   0.41590   0.97286   0.01267  Uiso   1.00
C2     C     0.86992   0.45723   0.98384   0.01267  Uiso   1.00
C3     C     0.94719   0.56158   0.95973   0.01267  Uiso   1.00
C4     C     0.89849   0.62110   0.90883   0.01267  Uiso   1.00
C5     C     0.07615   0.60390   0.97685   0.01267  Uiso   1.00
C6     C     0.88432   0.56210   0.61643   0.01267  Uiso   1.00
C7     C     0.94601   0.53269   0.55622   0.01267  Uiso   1.00
C8     C     0.02960   0.75827   0.53521   0.01267  Uiso   1.00
C9     C     0.00602   0.62256   0.51715   0.01267  Uiso   1.00
C10    C     0.94190   0.41234   0.53864   0.01267  Uiso   1.00
C11    C     0.72070   0.07930   0.62914   0.01267  Uiso   1.00
C12    C     0.79480   0.06900   0.57810   0.01267  Uiso   1.00
C13    C     0.86380   0.93000   0.62318   0.01267  Uiso   1.00
C14    C     0.21900   0.11660   0.79580   0.01267  Uiso   1.00
C15    C     0.28640   0.16070   0.73627   0.01267  Uiso   1.00
C16    C     0.42450   0.23429   0.74378   0.01267  Uiso   1.00
C17    C     0.48520   0.28180   0.69025   0.01267  Uiso   1.00
C18    C     0.13670   0.65920   0.81652   0.01267  Uiso   1.00
C19    C     0.22000   0.81580   0.72852   0.01267  Uiso   1.00
C20    C     0.09920   0.73360   0.72474   0.01267  Uiso   1.00
C21    C     0.07410   0.06450   0.78278   0.01267  Uiso   1.00
C22    C     0.30320   0.82250   0.77983   0.01267  Uiso   1.00
C23    C     0.43530   0.91390   0.78758   0.01267  Uiso   1.00
C24    C     0.50920   0.92550   0.72784   0.01267  Uiso   1.00
C25    C     0.63950   0.01810   0.73749   0.01267  Uiso   1.00
C26    C     0.71840   0.01143   0.67992   0.01267  Uiso   1.00
C27    C     0.79100   0.93470   0.67562   0.01267  Uiso   1.00
C28    C     0.71750   0.55120   0.18281   0.01267  Uiso   1.00
C29    C     0.67740   0.55110   0.12056   0.01267  Uiso   1.00
C30    C     0.47700   0.43620   0.13950   0.01267  Uiso   1.00
C31    C     0.51010   0.43160   0.20246   0.01267  Uiso   1.00
C32    C     0.63360   0.49023   0.22620   0.01267  Uiso   1.00
C33    C     0.68170   0.49130   0.29397   0.01267  Uiso   1.00
C34    C     0.58590   0.42080   0.33810   0.01267  Uiso   1.00
C35    C     0.64450   0.41750   0.40342   0.01267  Uiso   1.00
C36    C     0.55160   0.33780   0.44533   0.01267  Uiso   1.00
C37    C     0.58040   0.24950   0.47507   0.01267  Uiso   1.00
C38    C     0.49280   0.17770   0.51233   0.01267  Uiso   1.00
C39    C     0.35000   0.27160   0.49260   0.01267  Uiso   1.00
C40    C     0.43230   0.34750   0.45487   0.01267  Uiso   1.00
C41    C     0.01460   0.21370   0.71890   0.01267  Uiso   1.00
C42    C     0.93680   0.32010   0.82435   0.01267  Uiso   1.00
C43    C     0.01910   0.16564   0.77684   0.01267  Uiso   1.00
C44    C     0.25830   0.74130   0.82443   0.01267  Uiso   1.00
C45    C     0.97520   0.31430   0.71735   0.01267  Uiso   1.00
C46    C     0.97700   0.22070   0.82990   0.01267  Uiso   1.00
C47    C     0.60880   0.35630   0.69605   0.01267  Uiso   1.00
C48    C     0.62070   0.33920   0.80321   0.01267  Uiso   1.00
C49    C     0.49610   0.26310   0.80115   0.01267  Uiso   1.00
C50    C     0.27258   0.58410   0.02714   0.01267  Uiso   1.00
C51    C     0.13008   0.54277   0.01616   0.01267  Uiso   1.00
C52    C     0.05281   0.43842   0.04027   0.01267  Uiso   1.00
C53    C     0.10151   0.37890   0.09117   0.01267  Uiso   1.00
C54    C     0.92385   0.39610   0.02315   0.01267  Uiso   1.00
C55    C     0.11568   0.43790   0.38357   0.01267  Uiso   1.00
C56    C     0.05399   0.46731   0.44378   0.01267  Uiso   1.00
C57    C     0.97040   0.24173   0.46479   0.01267  Uiso   1.00
C58    C     0.99398   0.37744   0.48285   0.01267  Uiso   1.00
C59    C     0.05810   0.58766   0.46136   0.01267  Uiso   1.00
C60    C     0.27930   0.92070   0.37086   0.01267  Uiso   1.00
C61    C     0.20520   0.93100   0.42190   0.01267  Uiso   1.00
C62    C     0.13620   0.07000   0.37682   0.01267  Uiso   1.00
C63    C     0.78100   0.88340   0.20420   0.01267  Uiso   1.00
C64    C     0.71360   0.83930   0.26373   0.01267  Uiso   1.00
C65    C     0.57550   0.76571   0.25622   0.01267  Uiso   1.00
C66    C     0.51480   0.71820   0.30975   0.01267  Uiso   1.00
C67    C     0.86330   0.34080   0.18348   0.01267  Uiso   1.00
C68    C     0.78000   0.18420   0.27148   0.01267  Uiso   1.00
C69    C     0.90080   0.26640   0.27526   0.01267  Uiso   1.00
C70    C     0.92590   0.93550   0.21722   0.01267  Uiso   1.00
C71    C     0.69680   0.17750   0.22017   0.01267  Uiso   1.00
C72    C     0.56470   0.08610   0.21242   0.01267  Uiso   1.00
C73    C     0.49080   0.07450   0.27216   0.01267  Uiso   1.00
C74    C     0.36050   0.98190   0.26251   0.01267  Uiso   1.00
C75    C     0.28160   0.98857   0.32008   0.01267  Uiso   1.00
C76    C     0.20900   0.06530   0.32438   0.01267  Uiso   1.00
C77    C     0.28250   0.44880   0.81719   0.01267  Uiso   1.00
C78    C     0.32260   0.44890   0.87944   0.01267  Uiso   1.00
C79    C     0.52300   0.56380   0.86050   0.01267  Uiso   1.00
C80    C     0.48990   0.56840   0.79754   0.01267  Uiso   1.00
C81    C     0.36640   0.50977   0.77380   0.01267  Uiso   1.00
C82    C     0.31830   0.50870   0.70603   0.01267  Uiso   1.00
C83    C     0.41410   0.57920   0.66190   0.01267  Uiso   1.00
C84    C     0.35550   0.58250   0.59658   0.01267  Uiso   1.00
C85    C     0.44840   0.66220   0.55467   0.01267  Uiso   1.00
C86    C     0.41960   0.75050   0.52493   0.01267  Uiso   1.00
C87    C     0.50720   0.82230   0.48767   0.01267  Uiso   1.00
C88    C     0.65000   0.72840   0.50740   0.01267  Uiso   1.00
C89    C     0.56770   0.65250   0.54513   0.01267  Uiso   1.00
C90    C     0.98540   0.78630   0.28110   0.01267  Uiso   1.00
C91    C     0.06320   0.67990   0.17565   0.01267  Uiso   1.00
C92    C     0.98090   0.83436   0.22316   0.01267  Uiso   1.00
C93    C     0.74170   0.25870   0.17557   0.01267  Uiso   1.00
C94    C     0.02480   0.68570   0.28265   0.01267  Uiso   1.00
C95    C     0.02300   0.77930   0.17010   0.01267  Uiso   1.00
C96    C     0.39120   0.64370   0.30395   0.01267  Uiso   1.00
C97    C     0.37930   0.66080   0.19679   0.01267  Uiso   1.00
C98    C     0.50390   0.73690   0.19885   0.01267  Uiso   1.00
N1     N     0.05604   0.65458   0.76784   0.01267  Uiso   1.00
N2     N     0.86810   0.99713   0.57482   0.01267  Uiso   1.00
N3     N     0.55780   0.49433   0.09785   0.01267  Uiso   1.00
N4     N     0.37890   0.18780   0.52188   0.01267  Uiso   1.00
N5     N     0.93673   0.36920   0.76942   0.01267  Uiso   1.00
N6     N     0.67780   0.38683   0.75215   0.01267  Uiso   1.00
N7     N     0.94396   0.34542   0.23216   0.01267  Uiso   1.00
N8     N     0.13190   0.00287   0.42518   0.01267  Uiso   1.00
N9     N     0.44220   0.50567   0.90215   0.01267  Uiso   1.00
N10    N     0.62110   0.81220   0.47812   0.01267  Uiso   1.00
N11    N     0.06327   0.63080   0.23058   0.01267  Uiso   1.00
N12    N     0.32220   0.61317   0.24785   0.01267  Uiso   1.00
O1     O     0.85031   0.55226   0.85858   0.01267  Uiso   1.00
O2     O     0.91433   0.73305   0.91892   0.01267  Uiso   1.00
O3     O     0.67893   0.49958   0.97275   0.01267  Uiso   1.00
O4     O     0.66832   0.30456   0.96633   0.01267  Uiso   1.00
O5     O     0.88118   0.49446   0.66051   0.01267  Uiso   1.00
O6     O     0.84171   0.64915   0.61970   0.01267  Uiso   1.00
O7     O     0.97228   0.80999   0.50151   0.01267  Uiso   1.00
O8     O     0.11139   0.80997   0.57928   0.01267  Uiso   1.00
O9     O     0.14969   0.44774   0.14142   0.01267  Uiso   1.00
O10    O     0.08567   0.26695   0.08108   0.01267  Uiso   1.00
O11    O     0.32107   0.50042   0.02725   0.01267  Uiso   1.00
O12    O     0.33168   0.69544   0.03367   0.01267  Uiso   1.00
O13    O     0.11882   0.50554   0.33949   0.01267  Uiso   1.00
O14    O     0.15829   0.35085   0.38030   0.01267  Uiso   1.00
O15    O     0.02772   0.19001   0.49849   0.01267  Uiso   1.00
O16    O     0.88861   0.19003   0.42072   0.01267  Uiso   1.00
