data_image0
_cell_length_a       11.3605
_cell_length_b       18.312
_cell_length_c       12.4463
_cell_angle_alpha    90
_cell_angle_beta     108.491
_cell_angle_gamma    90

_symmetry_space_group_name_H-M    "P 1"
_symmetry_int_tables_number       1

loop_
  _symmetry_equiv_pos_as_xyz
  'x, y, z'

loop_
  _atom_site_label
  _atom_site_occupancy
  _atom_site_fract_x
  _atom_site_fract_y
  _atom_site_fract_z
  _atom_site_thermal_displace_type
  _atom_site_B_iso_or_equiv
  _atom_site_type_symbol
  Zn1      1.0000 0.26629  0.47820  0.90906  Biso   1.000  Zn
  Zn2      1.0000 0.08276  0.32757  0.44064  Biso   1.000  Zn
  O1       1.0000 0.36830  0.47684  0.81030  Biso   1.000  O
  O2       1.0000 0.45400  0.37340  0.89310  Biso   1.000  O
  O3       1.0000 0.64110  0.48703  0.93990  Biso   1.000  O
  O4       1.0000 0.81640  0.47229  0.89720  Biso   1.000  O
  O5       1.0000 0.77520  0.45960  0.49730  Biso   1.000  O
  O6       1.0000 0.61970  0.40700  0.38250  Biso   1.000  O
  O7       1.0000 0.25040  0.36466  0.48560  Biso   1.000  O
  O8       1.0000 0.27360  0.33830  0.66480  Biso   1.000  O
  N1       1.0000 0.87050  0.45379  0.17370  Biso   1.000  N
  N2       1.0000 0.97530  0.44576  0.14260  Biso   1.000  N
  N3       1.0000 0.00030  0.38353  0.30110  Biso   1.000  N
  N4       1.0000 0.06540  0.39828  0.95230  Biso   1.000  N
  N5       1.0000 0.17260  0.38938  0.92480  Biso   1.000  N
  N6       1.0000 0.09210  0.28058  0.92770  Biso   1.000  N
  N7       1.0000 0.67400  0.43090  0.47460  Biso   1.000  N
  C1       1.0000 0.88930  0.41650  0.26780  Biso   1.000  C
  H1       1.0000 0.83200  0.41330  0.30690  Biso   1.000  H
  C2       1.0000 0.05030  0.40390  0.22060  Biso   1.000  C
  H2       1.0000 0.12890  0.38990  0.22040  Biso   1.000  H
  C3       1.0000 0.02070  0.33250  0.95320  Biso   1.000  C
  H3       1.0000 0.94790  0.32260  0.96960  Biso   1.000  H
  C4       1.0000 0.18560  0.31890  0.91060  Biso   1.000  C
  H4       1.0000 0.25090  0.29830  0.89130  Biso   1.000  H
  C5       1.0000 0.31220  0.36370  0.59150  Biso   1.000  C
  C6       1.0000 0.44110  0.39510  0.62200  Biso   1.000  C
  C7       1.0000 0.49750  0.39940  0.53730  Biso   1.000  C
  H5       1.0000 0.45530  0.38440  0.46370  Biso   1.000  H
  C8       1.0000 0.61660  0.42610  0.56460  Biso   1.000  C
  C9       1.0000 0.68330  0.44780  0.67180  Biso   1.000  C
  H6       1.0000 0.76440  0.46440  0.68820  Biso   1.000  H
  C10      1.0000 0.62580  0.44420  0.75640  Biso   1.000  C
  C11      1.0000 0.50400  0.41960  0.73140  Biso   1.000  C
  C12      1.0000 0.43720  0.42180  0.82000  Biso   1.000  C
  C13      1.0000 0.70230  0.47010  0.87450  Biso   1.000  C
  Zn3      1.0000 0.73371  0.97820  0.59094  Biso   1.000  Zn
  Zn4      1.0000 0.91724  0.82757  0.05936  Biso   1.000  Zn
  O9       1.0000 0.63170  0.97684  0.68970  Biso   1.000  O
  O10      1.0000 0.54600  0.87340  0.60690  Biso   1.000  O
  O11      1.0000 0.35890  0.98703  0.56010  Biso   1.000  O
  O12      1.0000 0.18360  0.97229  0.60280  Biso   1.000  O
  O13      1.0000 0.22480  0.95960  0.00270  Biso   1.000  O
  O14      1.0000 0.38030  0.90700  0.11750  Biso   1.000  O
  O15      1.0000 0.74960  0.86466  0.01440  Biso   1.000  O
  O16      1.0000 0.72640  0.83830  0.83520  Biso   1.000  O
  N8       1.0000 0.12950  0.95379  0.32630  Biso   1.000  N
  N9       1.0000 0.02470  0.94576  0.35740  Biso   1.000  N
  N10      1.0000 0.99970  0.88353  0.19890  Biso   1.000  N
  N11      1.0000 0.93460  0.89828  0.54770  Biso   1.000  N
  N12      1.0000 0.82740  0.88938  0.57520  Biso   1.000  N
  N13      1.0000 0.90790  0.78058  0.57230  Biso   1.000  N
  N14      1.0000 0.32600  0.93090  0.02540  Biso   1.000  N
  C14      1.0000 0.11070  0.91650  0.23220  Biso   1.000  C
  H7       1.0000 0.16800  0.91330  0.19310  Biso   1.000  H
  C15      1.0000 0.94970  0.90390  0.27940  Biso   1.000  C
  H8       1.0000 0.87110  0.88990  0.27960  Biso   1.000  H
  C16      1.0000 0.97930  0.83250  0.54680  Biso   1.000  C
  H9       1.0000 0.05210  0.82260  0.53040  Biso   1.000  H
  C17      1.0000 0.81440  0.81890  0.58940  Biso   1.000  C
  H10      1.0000 0.74910  0.79830  0.60870  Biso   1.000  H
  C18      1.0000 0.68780  0.86370  0.90850  Biso   1.000  C
  C19      1.0000 0.55890  0.89510  0.87800  Biso   1.000  C
  C20      1.0000 0.50250  0.89940  0.96270  Biso   1.000  C
  H11      1.0000 0.54470  0.88440  0.03630  Biso   1.000  H
  C21      1.0000 0.38340  0.92610  0.93540  Biso   1.000  C
  C22      1.0000 0.31670  0.94780  0.82820  Biso   1.000  C
  H12      1.0000 0.23560  0.96440  0.81180  Biso   1.000  H
  C23      1.0000 0.37420  0.94420  0.74360  Biso   1.000  C
  C24      1.0000 0.49600  0.91960  0.76860  Biso   1.000  C
  C25      1.0000 0.56280  0.92180  0.68000  Biso   1.000  C
  C26      1.0000 0.29770  0.97010  0.62550  Biso   1.000  C
  Zn5      1.0000 0.73371  0.52180  0.09094  Biso   1.000  Zn
  Zn6      1.0000 0.91724  0.67243  0.55936  Biso   1.000  Zn
  O17      1.0000 0.63170  0.52316  0.18970  Biso   1.000  O
  O18      1.0000 0.54600  0.62660  0.10690  Biso   1.000  O
  O19      1.0000 0.35890  0.51297  0.06010  Biso   1.000  O
  O20      1.0000 0.18360  0.52771  0.10280  Biso   1.000  O
  O21      1.0000 0.22480  0.54040  0.50270  Biso   1.000  O
  O22      1.0000 0.38030  0.59300  0.61750  Biso   1.000  O
  O23      1.0000 0.74960  0.63534  0.51440  Biso   1.000  O
  O24      1.0000 0.72640  0.66170  0.33520  Biso   1.000  O
  N15      1.0000 0.12950  0.54621  0.82630  Biso   1.000  N
  N16      1.0000 0.02470  0.55424  0.85740  Biso   1.000  N
  N17      1.0000 0.99970  0.61647  0.69890  Biso   1.000  N
  N18      1.0000 0.93460  0.60172  0.04770  Biso   1.000  N
  N19      1.0000 0.82740  0.61062  0.07520  Biso   1.000  N
  N20      1.0000 0.90790  0.71942  0.07230  Biso   1.000  N
  N21      1.0000 0.32600  0.56910  0.52540  Biso   1.000  N
  C27      1.0000 0.11070  0.58350  0.73220  Biso   1.000  C
  H13      1.0000 0.16800  0.58670  0.69310  Biso   1.000  H
  C28      1.0000 0.94970  0.59610  0.77940  Biso   1.000  C
  H14      1.0000 0.87110  0.61010  0.77960  Biso   1.000  H
  C29      1.0000 0.97930  0.66750  0.04680  Biso   1.000  C
  H15      1.0000 0.05210  0.67740  0.03040  Biso   1.000  H
  C30      1.0000 0.81440  0.68110  0.08940  Biso   1.000  C
  H16      1.0000 0.74910  0.70170  0.10870  Biso   1.000  H
  C31      1.0000 0.68780  0.63630  0.40850  Biso   1.000  C
  C32      1.0000 0.55890  0.60490  0.37800  Biso   1.000  C
  C33      1.0000 0.50250  0.60060  0.46270  Biso   1.000  C
  H17      1.0000 0.54470  0.61560  0.53630  Biso   1.000  H
  C34      1.0000 0.38340  0.57390  0.43540  Biso   1.000  C
  C35      1.0000 0.31670  0.55220  0.32820  Biso   1.000  C
  H18      1.0000 0.23560  0.53560  0.31180  Biso   1.000  H
  C36      1.0000 0.37420  0.55580  0.24360  Biso   1.000  C
  C37      1.0000 0.49600  0.58040  0.26860  Biso   1.000  C
  C38      1.0000 0.56280  0.57820  0.18000  Biso   1.000  C
  C39      1.0000 0.29770  0.52990  0.12550  Biso   1.000  C
  Zn7      1.0000 0.26629  0.02180  0.40906  Biso   1.000  Zn
  Zn8      1.0000 0.08276  0.17243  0.94064  Biso   1.000  Zn
  O25      1.0000 0.36830  0.02316  0.31030  Biso   1.000  O
  O26      1.0000 0.45400  0.12660  0.39310  Biso   1.000  O
  O27      1.0000 0.64110  0.01297  0.43990  Biso   1.000  O
  O28      1.0000 0.81640  0.02771  0.39720  Biso   1.000  O
  O29      1.0000 0.77520  0.04040  0.99730  Biso   1.000  O
  O30      1.0000 0.61970  0.09300  0.88250  Biso   1.000  O
  O31      1.0000 0.25040  0.13534  0.98560  Biso   1.000  O
  O32      1.0000 0.27360  0.16170  0.16480  Biso   1.000  O
  N22      1.0000 0.87050  0.04621  0.67370  Biso   1.000  N
  N23      1.0000 0.97530  0.05424  0.64260  Biso   1.000  N
  N24      1.0000 0.00030  0.11647  0.80110  Biso   1.000  N
  N25      1.0000 0.06540  0.10172  0.45230  Biso   1.000  N
  N26      1.0000 0.17260  0.11062  0.42480  Biso   1.000  N
  N27      1.0000 0.09210  0.21942  0.42770  Biso   1.000  N
  N28      1.0000 0.67400  0.06910  0.97460  Biso   1.000  N
  C40      1.0000 0.88930  0.08350  0.76780  Biso   1.000  C
  H19      1.0000 0.83200  0.08670  0.80690  Biso   1.000  H
  C41      1.0000 0.05030  0.09610  0.72060  Biso   1.000  C
  H20      1.0000 0.12890  0.11010  0.72040  Biso   1.000  H
  C42      1.0000 0.02070  0.16750  0.45320  Biso   1.000  C
  H21      1.0000 0.94790  0.17740  0.46960  Biso   1.000  H
  C43      1.0000 0.18560  0.18110  0.41060  Biso   1.000  C
  H22      1.0000 0.25090  0.20170  0.39130  Biso   1.000  H
  C44      1.0000 0.31220  0.13630  0.09150  Biso   1.000  C
  C45      1.0000 0.44110  0.10490  0.12200  Biso   1.000  C
  C46      1.0000 0.49750  0.10060  0.03730  Biso   1.000  C
  H23      1.0000 0.45530  0.11560  0.96370  Biso   1.000  H
  C47      1.0000 0.61660  0.07390  0.06460  Biso   1.000  C
  C48      1.0000 0.68330  0.05220  0.17180  Biso   1.000  C
  H24      1.0000 0.76440  0.03560  0.18820  Biso   1.000  H
  C49      1.0000 0.62580  0.05580  0.25640  Biso   1.000  C
  C50      1.0000 0.50400  0.08040  0.23140  Biso   1.000  C
  C51      1.0000 0.43720  0.07820  0.32000  Biso   1.000  C
  C52      1.0000 0.70230  0.02990  0.37450  Biso   1.000  C
  Zn9      1.0000 0.00000  0.50000  0.00000  Biso   1.000  Zn
  Zn10     1.0000 0.00000  0.00000  0.50000  Biso   1.000  Zn
