data_image0
_cell_length_a       17.591
_cell_length_b       22.781
_cell_length_c       19.058
_cell_angle_alpha    90
_cell_angle_beta     93.225
_cell_angle_gamma    90

_symmetry_space_group_name_H-M    "P 1"
_symmetry_int_tables_number       1

loop_
  _symmetry_equiv_pos_as_xyz
  'x, y, z'

loop_
  _atom_site_label
  _atom_site_occupancy
  _atom_site_fract_x
  _atom_site_fract_y
  _atom_site_fract_z
  _atom_site_thermal_displace_type
  _atom_site_B_iso_or_equiv
  _atom_site_type_symbol
  N1       1.0000 0.99170  0.49784  0.31527  Biso   1.000  N
  N2       1.0000 0.75800  0.30462  0.17088  Biso   1.000  N
  N3       1.0000 0.88450  0.30910  0.18870  Biso   1.000  N
  C1       1.0000 0.37370  0.33490  0.05170  Biso   1.000  C
  H1       1.0000 0.39320  0.35470  0.01400  Biso   1.000  H
  N4       1.0000 0.90280  0.39780  0.09654  Biso   1.000  N
  C2       1.0000 0.34530  0.36780  0.11040  Biso   1.000  C
  H2       1.0000 0.34840  0.40850  0.10890  Biso   1.000  H
  C3       1.0000 0.78030  0.25393  0.20640  Biso   1.000  C
  O1       1.0000 0.53001  0.45006  0.41364  Biso   1.000  O
  C4       1.0000 0.91240  0.42187  0.31350  Biso   1.000  C
  C5       1.0000 0.93720  0.47012  0.35180  Biso   1.000  C
  N5       1.0000 0.95630  0.26698  0.99454  Biso   1.000  N
  N6       1.0000 0.05260  0.43400  0.14670  Biso   1.000  N
  C6       1.0000 0.64300  0.35990  0.20330  Biso   1.000  C
  N7       1.0000 0.95300  0.41986  0.25259  Biso   1.000  N
  C7       1.0000 0.12060  0.52619  0.36310  Biso   1.000  C
  C8       1.0000 0.82250  0.33556  0.16270  Biso   1.000  C
  N8       1.0000 0.00740  0.30660  0.09240  Biso   1.000  N
  C9       1.0000 0.99930  0.46553  0.25650  Biso   1.000  C
  C10      1.0000 0.68870  0.23060  0.93840  Biso   1.000  C
  H3       1.0000 0.64580  0.23650  0.90830  Biso   1.000  H
  C11      1.0000 0.60800  0.17146  0.01970  Biso   1.000  C
  C12      1.0000 0.73810  0.20620  0.22970  Biso   1.000  C
  H4       1.0000 0.68530  0.20470  0.22330  Biso   1.000  H
  N9       1.0000 0.21080  0.36110  0.24000  Biso   1.000  N
  C13      1.0000 0.89980  0.20950  0.24890  Biso   1.000  C
  H5       1.0000 0.95260  0.20970  0.25500  Biso   1.000  H
  C14      1.0000 0.25120  0.55124  0.39100  Biso   1.000  C
  H6       1.0000 0.28850  0.58000  0.39720  Biso   1.000  H
  O2       1.0000 0.46960  0.42195  0.53940  Biso   1.000  O
  C15      1.0000 0.19720  0.32170  0.29370  Biso   1.000  C
  C16      1.0000 0.90300  0.36210  0.03120  Biso   1.000  C
  H7       1.0000 0.85210  0.34740  0.01980  Biso   1.000  H
  H8       1.0000 0.91740  0.38680  0.99260  Biso   1.000  H
  C17      1.0000 0.95680  0.31201  0.03930  Biso   1.000  C
  C18      1.0000 0.75800  0.25050  0.91960  Biso   1.000  C
  H9       1.0000 0.76130  0.27080  0.87750  Biso   1.000  H
  C19      1.0000 0.21220  0.45070  0.39840  Biso   1.000  C
  H10      1.0000 0.22350  0.41170  0.40870  Biso   1.000  H
  O3       1.0000 0.51210  0.51872  0.33069  Biso   1.000  O
  C20      1.0000 0.01190  0.22740  0.02180  Biso   1.000  C
  C21      1.0000 0.31680  0.34470  0.16320  Biso   1.000  C
  C22      1.0000 0.14290  0.37020  0.20380  Biso   1.000  C
  C23      1.0000 0.90710  0.48380  0.41790  Biso   1.000  C
  H11      1.0000 0.92560  0.51500  0.44540  Biso   1.000  H
  C24      1.0000 0.05380  0.47950  0.20250  Biso   1.000  C
  H12      1.0000 0.10480  0.48230  0.22460  Biso   1.000  H
  H13      1.0000 0.04100  0.51730  0.18160  Biso   1.000  H
  C25      1.0000 0.01550  0.45690  0.07910  Biso   1.000  C
  H14      1.0000 0.02810  0.43180  0.04040  Biso   1.000  H
  H15      1.0000 0.03410  0.49610  0.07000  Biso   1.000  H
  O4       1.0000 0.40020  0.18680  0.00270  Biso   1.000  O
  C26      1.0000 0.34980  0.47520  0.42390  Biso   1.000  C
  C27      1.0000 0.11890  0.31010  0.28720  Biso   1.000  C
  C28      1.0000 0.13830  0.46730  0.37790  Biso   1.000  C
  H16      1.0000 0.10010  0.43910  0.37410  Biso   1.000  H
  C29      1.0000 0.85700  0.16330  0.27140  Biso   1.000  C
  H17      1.0000 0.88190  0.13180  0.29340  Biso   1.000  H
  C30      1.0000 0.28490  0.38260  0.22030  Biso   1.000  C
  H18      1.0000 0.32020  0.38260  0.26130  Biso   1.000  H
  H19      1.0000 0.27980  0.42270  0.20360  Biso   1.000  H
  C31      1.0000 0.82310  0.40020  0.39890  Biso   1.000  C
  H20      1.0000 0.78370  0.37760  0.41510  Biso   1.000  H
  C32      1.0000 0.10060  0.22310  0.12160  Biso   1.000  C
  H21      1.0000 0.12080  0.23860  0.16380  Biso   1.000  H
  C33      1.0000 0.77920  0.16190  0.26260  Biso   1.000  C
  H22      1.0000 0.75330  0.12980  0.27950  Biso   1.000  H
  C34      1.0000 0.89960  0.25790  0.93690  Biso   1.000  C
  H23      1.0000 0.91710  0.22720  0.90640  Biso   1.000  H
  H24      1.0000 0.89440  0.29370  0.90950  Biso   1.000  H
  C35      1.0000 0.85020  0.44900  0.43820  Biso   1.000  C
  H25      1.0000 0.82780  0.45760  0.48000  Biso   1.000  H
  C36      1.0000 0.61950  0.38590  0.32200  Biso   1.000  C
  H26      1.0000 0.62840  0.37930  0.36990  Biso   1.000  H
  C37      1.0000 0.53560  0.46940  0.35330  Biso   1.000  C
  C38      1.0000 0.12890  0.40820  0.14060  Biso   1.000  C
  H27      1.0000 0.16720  0.43880  0.13950  Biso   1.000  H
  H28      1.0000 0.13050  0.38510  0.09790  Biso   1.000  H
  C39      1.0000 0.59370  0.40420  0.18010  Biso   1.000  C
  H29      1.0000 0.58330  0.41010  0.13220  Biso   1.000  H
  C40      1.0000 0.37180  0.27780  0.05180  Biso   1.000  C
  C41      1.0000 0.03560  0.17300  0.99670  Biso   1.000  C
  H30      1.0000 0.01320  0.15580  0.95630  Biso   1.000  H
  C42      1.0000 0.65410  0.35060  0.27350  Biso   1.000  C
  H31      1.0000 0.68550  0.32000  0.28950  Biso   1.000  H
  C43      1.0000 0.08740  0.27120  0.33520  Biso   1.000  C
  H32      1.0000 0.03550  0.26310  0.33250  Biso   1.000  H
  C44      1.0000 0.13410  0.24590  0.38500  Biso   1.000  C
  H33      1.0000 0.11390  0.21990  0.41670  Biso   1.000  H
  C45      1.0000 0.55930  0.44040  0.22950  Biso   1.000  C
  H34      1.0000 0.52780  0.47110  0.21410  Biso   1.000  H
  C46      1.0000 0.24560  0.29570  0.34540  Biso   1.000  C
  H35      1.0000 0.29760  0.30370  0.34910  Biso   1.000  H
  C47      1.0000 0.12580  0.17170  0.09700  Biso   1.000  C
  H36      1.0000 0.16540  0.15220  0.12160  Biso   1.000  H
  C48      1.0000 0.09330  0.14720  0.03510  Biso   1.000  C
  H37      1.0000 0.11220  0.11160  0.01970  Biso   1.000  H
  C49      1.0000 0.39820  0.24050  0.99340  Biso   1.000  C
  C50      1.0000 0.33760  0.25480  0.10470  Biso   1.000  C
  H38      1.0000 0.32970  0.21450  0.10510  Biso   1.000  H
  C51      1.0000 0.31260  0.28800  0.16030  Biso   1.000  C
  H39      1.0000 0.29170  0.26830  0.19740  Biso   1.000  H
  C52      1.0000 0.21230  0.25800  0.39010  Biso   1.000  C
  H40      1.0000 0.24260  0.23970  0.42520  Biso   1.000  H
  C53      1.0000 0.86010  0.25608  0.21640  Biso   1.000  C
  C54      1.0000 0.93020  0.45840  0.08500  Biso   1.000  C
  H41      1.0000 0.91750  0.48330  0.12390  Biso   1.000  H
  H42      1.0000 0.90570  0.47430  0.04220  Biso   1.000  H
  C55      1.0000 0.82660  0.39527  0.12780  Biso   1.000  C
  H43      1.0000 0.78600  0.39950  0.09150  Biso   1.000  H
  H44      1.0000 0.82190  0.42630  0.16210  Biso   1.000  H
  C56      1.0000 0.85500  0.38580  0.33630  Biso   1.000  C
  H45      1.0000 0.83850  0.35310  0.31040  Biso   1.000  H
  C57      1.0000 0.26970  0.49340  0.40340  Biso   1.000  C
  N10      1.0000 0.08610  0.34123  0.23100  Biso   1.000  N
  C58      1.0000 0.82340  0.24108  0.96210  Biso   1.000  C
  C59      1.0000 0.17830  0.56710  0.36970  Biso   1.000  C
  H46      1.0000 0.16750  0.60620  0.35950  Biso   1.000  H
  O5       1.0000 0.36500  0.42106  0.42010  Biso   1.000  O
  C60      1.0000 0.81440  0.21510  0.02670  Biso   1.000  C
  H47      1.0000 0.85660  0.21080  0.05790  Biso   1.000  H
  C61      1.0000 0.04340  0.25260  0.08220  Biso   1.000  C
  C62      1.0000 0.74580  0.19563  0.04570  Biso   1.000  C
  H48      1.0000 0.74170  0.17790  0.08930  Biso   1.000  H
  O6       1.0000 0.39783  0.51568  0.44272  Biso   1.000  O
  C63      1.0000 0.68160  0.20191  0.00090  Biso   1.000  C
  O7       1.0000 0.55630  0.17018  0.96948  Biso   1.000  O
  O8       1.0000 0.60430  0.14930  0.07855  Biso   1.000  O
  C64      1.0000 0.57210  0.43050  0.29860  Biso   1.000  C
  C65      1.0000 0.68000  0.32100  0.14970  Biso   1.000  C
  H49      1.0000 0.64990  0.28560  0.14270  Biso   1.000  H
  H50      1.0000 0.67970  0.34150  0.10510  Biso   1.000  H
  C66      1.0000 0.04160  0.54650  0.33870  Biso   1.000  C
  H51      1.0000 0.01880  0.56690  0.37700  Biso   1.000  H
  H52      1.0000 0.04550  0.57410  0.30040  Biso   1.000  H
  O9       1.0000 0.41550  0.26490  0.93870  Biso   1.000  O
  Ni1      1.0000 0.98225  0.36090  0.17533  Biso   1.000  Ni
  Ni2      1.0000 0.46063  0.37471  0.45041  Biso   1.000  Ni
  Ni3      1.0000 0.54115  0.41520  0.61921  Biso   1.000  Ni
  N11      1.0000 0.00830  0.99784  0.18473  Biso   1.000  N
  N12      1.0000 0.24200  0.80462  0.32912  Biso   1.000  N
  N13      1.0000 0.11550  0.80910  0.31130  Biso   1.000  N
  C67      1.0000 0.62630  0.83490  0.44830  Biso   1.000  C
  H53      1.0000 0.60680  0.85470  0.48600  Biso   1.000  H
  N14      1.0000 0.09720  0.89780  0.40346  Biso   1.000  N
  C68      1.0000 0.65470  0.86780  0.38960  Biso   1.000  C
  H54      1.0000 0.65160  0.90850  0.39110  Biso   1.000  H
  C69      1.0000 0.21970  0.75393  0.29360  Biso   1.000  C
  O10      1.0000 0.46999  0.95006  0.08636  Biso   1.000  O
  C70      1.0000 0.08760  0.92187  0.18650  Biso   1.000  C
  C71      1.0000 0.06280  0.97012  0.14820  Biso   1.000  C
  N15      1.0000 0.04370  0.76698  0.50546  Biso   1.000  N
  N16      1.0000 0.94740  0.93400  0.35330  Biso   1.000  N
  C72      1.0000 0.35700  0.85990  0.29670  Biso   1.000  C
  N17      1.0000 0.04700  0.91986  0.24741  Biso   1.000  N
  C73      1.0000 0.87940  0.02619  0.13690  Biso   1.000  C
  C74      1.0000 0.17750  0.83556  0.33730  Biso   1.000  C
  N18      1.0000 0.99260  0.80660  0.40760  Biso   1.000  N
  C75      1.0000 0.00070  0.96553  0.24350  Biso   1.000  C
  C76      1.0000 0.31130  0.73060  0.56160  Biso   1.000  C
  H55      1.0000 0.35420  0.73650  0.59170  Biso   1.000  H
  C77      1.0000 0.39200  0.67146  0.48030  Biso   1.000  C
  C78      1.0000 0.26190  0.70620  0.27030  Biso   1.000  C
  H56      1.0000 0.31470  0.70470  0.27670  Biso   1.000  H
  N19      1.0000 0.78920  0.86110  0.26000  Biso   1.000  N
  C79      1.0000 0.10020  0.70950  0.25110  Biso   1.000  C
  H57      1.0000 0.04740  0.70970  0.24500  Biso   1.000  H
  C80      1.0000 0.74880  0.05124  0.10900  Biso   1.000  C
  H58      1.0000 0.71150  0.08000  0.10280  Biso   1.000  H
  O11      1.0000 0.53040  0.92195  0.96060  Biso   1.000  O
  C81      1.0000 0.80280  0.82170  0.20630  Biso   1.000  C
  C82      1.0000 0.09700  0.86210  0.46880  Biso   1.000  C
  H59      1.0000 0.14790  0.84740  0.48020  Biso   1.000  H
  H60      1.0000 0.08260  0.88680  0.50740  Biso   1.000  H
  C83      1.0000 0.04320  0.81201  0.46070  Biso   1.000  C
  C84      1.0000 0.24200  0.75050  0.58040  Biso   1.000  C
  H61      1.0000 0.23870  0.77080  0.62250  Biso   1.000  H
  C85      1.0000 0.78780  0.95070  0.10160  Biso   1.000  C
  H62      1.0000 0.77650  0.91170  0.09130  Biso   1.000  H
  O12      1.0000 0.48790  0.01872  0.16931  Biso   1.000  O
  C86      1.0000 0.98810  0.72740  0.47820  Biso   1.000  C
  C87      1.0000 0.68320  0.84470  0.33680  Biso   1.000  C
  C88      1.0000 0.85710  0.87020  0.29620  Biso   1.000  C
  C89      1.0000 0.09290  0.98380  0.08210  Biso   1.000  C
  H63      1.0000 0.07440  0.01500  0.05460  Biso   1.000  H
  C90      1.0000 0.94620  0.97950  0.29750  Biso   1.000  C
  H64      1.0000 0.89520  0.98230  0.27540  Biso   1.000  H
  H65      1.0000 0.95900  0.01730  0.31840  Biso   1.000  H
  C91      1.0000 0.98450  0.95690  0.42090  Biso   1.000  C
  H66      1.0000 0.97190  0.93180  0.45960  Biso   1.000  H
  H67      1.0000 0.96590  0.99610  0.43000  Biso   1.000  H
  O13      1.0000 0.59980  0.68680  0.49730  Biso   1.000  O
  C92      1.0000 0.65020  0.97520  0.07610  Biso   1.000  C
  C93      1.0000 0.88110  0.81010  0.21280  Biso   1.000  C
  C94      1.0000 0.86170  0.96730  0.12210  Biso   1.000  C
  H68      1.0000 0.89990  0.93910  0.12590  Biso   1.000  H
  C95      1.0000 0.14300  0.66330  0.22860  Biso   1.000  C
  H69      1.0000 0.11810  0.63180  0.20660  Biso   1.000  H
  C96      1.0000 0.71510  0.88260  0.27970  Biso   1.000  C
  H70      1.0000 0.67980  0.88260  0.23870  Biso   1.000  H
  H71      1.0000 0.72020  0.92270  0.29640  Biso   1.000  H
  C97      1.0000 0.17690  0.90020  0.10110  Biso   1.000  C
  H72      1.0000 0.21630  0.87760  0.08490  Biso   1.000  H
  C98      1.0000 0.89940  0.72310  0.37840  Biso   1.000  C
  H73      1.0000 0.87920  0.73860  0.33620  Biso   1.000  H
  C99      1.0000 0.22080  0.66190  0.23740  Biso   1.000  C
  H74      1.0000 0.24670  0.62980  0.22050  Biso   1.000  H
  C100     1.0000 0.10040  0.75790  0.56310  Biso   1.000  C
  H75      1.0000 0.08290  0.72720  0.59360  Biso   1.000  H
  H76      1.0000 0.10560  0.79370  0.59050  Biso   1.000  H
  C101     1.0000 0.14980  0.94900  0.06180  Biso   1.000  C
  H77      1.0000 0.17220  0.95760  0.02000  Biso   1.000  H
  C102     1.0000 0.38050  0.88590  0.17800  Biso   1.000  C
  H78      1.0000 0.37160  0.87930  0.13010  Biso   1.000  H
  C103     1.0000 0.46440  0.96940  0.14670  Biso   1.000  C
  C104     1.0000 0.87110  0.90820  0.35940  Biso   1.000  C
  H79      1.0000 0.83280  0.93880  0.36050  Biso   1.000  H
  H80      1.0000 0.86950  0.88510  0.40210  Biso   1.000  H
  C105     1.0000 0.40630  0.90420  0.31990  Biso   1.000  C
  H81      1.0000 0.41670  0.91010  0.36780  Biso   1.000  H
  C106     1.0000 0.62820  0.77780  0.44820  Biso   1.000  C
  C107     1.0000 0.96440  0.67300  0.50330  Biso   1.000  C
  H82      1.0000 0.98680  0.65580  0.54370  Biso   1.000  H
  C108     1.0000 0.34590  0.85060  0.22650  Biso   1.000  C
  H83      1.0000 0.31450  0.82000  0.21050  Biso   1.000  H
  C109     1.0000 0.91260  0.77120  0.16480  Biso   1.000  C
  H84      1.0000 0.96450  0.76310  0.16750  Biso   1.000  H
  C110     1.0000 0.86590  0.74590  0.11500  Biso   1.000  C
  H85      1.0000 0.88610  0.71990  0.08330  Biso   1.000  H
  C111     1.0000 0.44070  0.94040  0.27050  Biso   1.000  C
  H86      1.0000 0.47220  0.97110  0.28590  Biso   1.000  H
  C112     1.0000 0.75440  0.79570  0.15460  Biso   1.000  C
  H87      1.0000 0.70240  0.80370  0.15090  Biso   1.000  H
  C113     1.0000 0.87420  0.67170  0.40300  Biso   1.000  C
  H88      1.0000 0.83460  0.65220  0.37840  Biso   1.000  H
  C114     1.0000 0.90670  0.64720  0.46490  Biso   1.000  C
  H89      1.0000 0.88780  0.61160  0.48030  Biso   1.000  H
  C115     1.0000 0.60180  0.74050  0.50660  Biso   1.000  C
  C116     1.0000 0.66240  0.75480  0.39530  Biso   1.000  C
  H90      1.0000 0.67030  0.71450  0.39490  Biso   1.000  H
  C117     1.0000 0.68740  0.78800  0.33970  Biso   1.000  C
  H91      1.0000 0.70830  0.76830  0.30260  Biso   1.000  H
  C118     1.0000 0.78770  0.75800  0.10990  Biso   1.000  C
  H92      1.0000 0.75740  0.73970  0.07480  Biso   1.000  H
  C119     1.0000 0.13990  0.75608  0.28360  Biso   1.000  C
  C120     1.0000 0.06980  0.95840  0.41500  Biso   1.000  C
  H93      1.0000 0.08250  0.98330  0.37610  Biso   1.000  H
  H94      1.0000 0.09430  0.97430  0.45780  Biso   1.000  H
  C121     1.0000 0.17340  0.89527  0.37220  Biso   1.000  C
  H95      1.0000 0.21400  0.89950  0.40850  Biso   1.000  H
  H96      1.0000 0.17810  0.92630  0.33790  Biso   1.000  H
  C122     1.0000 0.14500  0.88580  0.16370  Biso   1.000  C
  H97      1.0000 0.16150  0.85310  0.18960  Biso   1.000  H
  C123     1.0000 0.73030  0.99340  0.09660  Biso   1.000  C
  N20      1.0000 0.91390  0.84123  0.26900  Biso   1.000  N
  C124     1.0000 0.17660  0.74108  0.53790  Biso   1.000  C
  C125     1.0000 0.82170  0.06710  0.13030  Biso   1.000  C
  H98      1.0000 0.83250  0.10620  0.14050  Biso   1.000  H
  O14      1.0000 0.63500  0.92106  0.07990  Biso   1.000  O
  C126     1.0000 0.18560  0.71510  0.47330  Biso   1.000  C
  H99      1.0000 0.14340  0.71080  0.44210  Biso   1.000  H
  C127     1.0000 0.95660  0.75260  0.41780  Biso   1.000  C
  C128     1.0000 0.25420  0.69563  0.45430  Biso   1.000  C
  H100     1.0000 0.25830  0.67790  0.41070  Biso   1.000  H
  O15      1.0000 0.60217  0.01568  0.05728  Biso   1.000  O
  C129     1.0000 0.31840  0.70191  0.49910  Biso   1.000  C
  O16      1.0000 0.44370  0.67018  0.53052  Biso   1.000  O
  O17      1.0000 0.39570  0.64930  0.42145  Biso   1.000  O
  C130     1.0000 0.42790  0.93050  0.20140  Biso   1.000  C
  C131     1.0000 0.32000  0.82100  0.35030  Biso   1.000  C
  H101     1.0000 0.35010  0.78560  0.35730  Biso   1.000  H
  H102     1.0000 0.32030  0.84150  0.39490  Biso   1.000  H
  C132     1.0000 0.95840  0.04650  0.16130  Biso   1.000  C
  H103     1.0000 0.98120  0.06690  0.12300  Biso   1.000  H
  H104     1.0000 0.95450  0.07410  0.19960  Biso   1.000  H
  O18      1.0000 0.58450  0.76490  0.56130  Biso   1.000  O
  Ni4      1.0000 0.01775  0.86090  0.32467  Biso   1.000  Ni
  Ni5      1.0000 0.53937  0.87471  0.04959  Biso   1.000  Ni
  Ni6      1.0000 0.45885  0.91520  0.88079  Biso   1.000  Ni
  N21      1.0000 0.00830  0.50216  0.68473  Biso   1.000  N
  N22      1.0000 0.24200  0.69538  0.82912  Biso   1.000  N
  N23      1.0000 0.11550  0.69090  0.81130  Biso   1.000  N
  C133     1.0000 0.62630  0.66510  0.94830  Biso   1.000  C
  H105     1.0000 0.60680  0.64530  0.98600  Biso   1.000  H
  N24      1.0000 0.09720  0.60220  0.90346  Biso   1.000  N
  C134     1.0000 0.65470  0.63220  0.88960  Biso   1.000  C
  H106     1.0000 0.65160  0.59150  0.89110  Biso   1.000  H
  C135     1.0000 0.21970  0.74607  0.79360  Biso   1.000  C
  O19      1.0000 0.46999  0.54994  0.58636  Biso   1.000  O
  C136     1.0000 0.08760  0.57813  0.68650  Biso   1.000  C
  C137     1.0000 0.06280  0.52988  0.64820  Biso   1.000  C
  N25      1.0000 0.04370  0.73302  0.00546  Biso   1.000  N
  N26      1.0000 0.94740  0.56600  0.85330  Biso   1.000  N
  C138     1.0000 0.35700  0.64010  0.79670  Biso   1.000  C
  N27      1.0000 0.04700  0.58014  0.74741  Biso   1.000  N
  C139     1.0000 0.87940  0.47381  0.63690  Biso   1.000  C
  C140     1.0000 0.17750  0.66444  0.83730  Biso   1.000  C
  N28      1.0000 0.99260  0.69340  0.90760  Biso   1.000  N
  C141     1.0000 0.00070  0.53447  0.74350  Biso   1.000  C
  C142     1.0000 0.31130  0.76940  0.06160  Biso   1.000  C
  H107     1.0000 0.35420  0.76350  0.09170  Biso   1.000  H
  C143     1.0000 0.39200  0.82854  0.98030  Biso   1.000  C
  C144     1.0000 0.26190  0.79380  0.77030  Biso   1.000  C
  H108     1.0000 0.31470  0.79530  0.77670  Biso   1.000  H
  N29      1.0000 0.78920  0.63890  0.76000  Biso   1.000  N
  C145     1.0000 0.10020  0.79050  0.75110  Biso   1.000  C
  H109     1.0000 0.04740  0.79030  0.74500  Biso   1.000  H
  C146     1.0000 0.74880  0.44876  0.60900  Biso   1.000  C
  H110     1.0000 0.71150  0.42000  0.60280  Biso   1.000  H
  O20      1.0000 0.53040  0.57805  0.46060  Biso   1.000  O
  C147     1.0000 0.80280  0.67830  0.70630  Biso   1.000  C
  C148     1.0000 0.09700  0.63790  0.96880  Biso   1.000  C
  H111     1.0000 0.14790  0.65260  0.98020  Biso   1.000  H
  H112     1.0000 0.08260  0.61320  0.00740  Biso   1.000  H
  C149     1.0000 0.04320  0.68799  0.96070  Biso   1.000  C
  C150     1.0000 0.24200  0.74950  0.08040  Biso   1.000  C
  H113     1.0000 0.23870  0.72920  0.12250  Biso   1.000  H
  C151     1.0000 0.78780  0.54930  0.60160  Biso   1.000  C
  H114     1.0000 0.77650  0.58830  0.59130  Biso   1.000  H
  O21      1.0000 0.48790  0.48128  0.66931  Biso   1.000  O
  C152     1.0000 0.98810  0.77260  0.97820  Biso   1.000  C
  C153     1.0000 0.68320  0.65530  0.83680  Biso   1.000  C
  C154     1.0000 0.85710  0.62980  0.79620  Biso   1.000  C
  C155     1.0000 0.09290  0.51620  0.58210  Biso   1.000  C
  H115     1.0000 0.07440  0.48500  0.55460  Biso   1.000  H
  C156     1.0000 0.94620  0.52050  0.79750  Biso   1.000  C
  H116     1.0000 0.89520  0.51770  0.77540  Biso   1.000  H
  H117     1.0000 0.95900  0.48270  0.81840  Biso   1.000  H
  C157     1.0000 0.98450  0.54310  0.92090  Biso   1.000  C
  H118     1.0000 0.97190  0.56820  0.95960  Biso   1.000  H
  H119     1.0000 0.96590  0.50390  0.93000  Biso   1.000  H
  O22      1.0000 0.59980  0.81320  0.99730  Biso   1.000  O
  C158     1.0000 0.65020  0.52480  0.57610  Biso   1.000  C
  C159     1.0000 0.88110  0.68990  0.71280  Biso   1.000  C
  C160     1.0000 0.86170  0.53270  0.62210  Biso   1.000  C
  H120     1.0000 0.89990  0.56090  0.62590  Biso   1.000  H
  C161     1.0000 0.14300  0.83670  0.72860  Biso   1.000  C
  H121     1.0000 0.11810  0.86820  0.70660  Biso   1.000  H
  C162     1.0000 0.71510  0.61740  0.77970  Biso   1.000  C
  H122     1.0000 0.67980  0.61740  0.73870  Biso   1.000  H
  H123     1.0000 0.72020  0.57730  0.79640  Biso   1.000  H
  C163     1.0000 0.17690  0.59980  0.60110  Biso   1.000  C
  H124     1.0000 0.21630  0.62240  0.58490  Biso   1.000  H
  C164     1.0000 0.89940  0.77690  0.87840  Biso   1.000  C
  H125     1.0000 0.87920  0.76140  0.83620  Biso   1.000  H
  C165     1.0000 0.22080  0.83810  0.73740  Biso   1.000  C
  H126     1.0000 0.24670  0.87020  0.72050  Biso   1.000  H
  C166     1.0000 0.10040  0.74210  0.06310  Biso   1.000  C
  H127     1.0000 0.08290  0.77280  0.09360  Biso   1.000  H
  H128     1.0000 0.10560  0.70630  0.09050  Biso   1.000  H
  C167     1.0000 0.14980  0.55100  0.56180  Biso   1.000  C
  H129     1.0000 0.17220  0.54240  0.52000  Biso   1.000  H
  C168     1.0000 0.38050  0.61410  0.67800  Biso   1.000  C
  H130     1.0000 0.37160  0.62070  0.63010  Biso   1.000  H
  C169     1.0000 0.46440  0.53060  0.64670  Biso   1.000  C
  C170     1.0000 0.87110  0.59180  0.85940  Biso   1.000  C
  H131     1.0000 0.83280  0.56120  0.86050  Biso   1.000  H
  H132     1.0000 0.86950  0.61490  0.90210  Biso   1.000  H
  C171     1.0000 0.40630  0.59580  0.81990  Biso   1.000  C
  H133     1.0000 0.41670  0.58990  0.86780  Biso   1.000  H
  C172     1.0000 0.62820  0.72220  0.94820  Biso   1.000  C
  C173     1.0000 0.96440  0.82700  0.00330  Biso   1.000  C
  H134     1.0000 0.98680  0.84420  0.04370  Biso   1.000  H
  C174     1.0000 0.34590  0.64940  0.72650  Biso   1.000  C
  H135     1.0000 0.31450  0.68000  0.71050  Biso   1.000  H
  C175     1.0000 0.91260  0.72880  0.66480  Biso   1.000  C
  H136     1.0000 0.96450  0.73690  0.66750  Biso   1.000  H
  C176     1.0000 0.86590  0.75410  0.61500  Biso   1.000  C
  H137     1.0000 0.88610  0.78010  0.58330  Biso   1.000  H
  C177     1.0000 0.44070  0.55960  0.77050  Biso   1.000  C
  H138     1.0000 0.47220  0.52890  0.78590  Biso   1.000  H
  C178     1.0000 0.75440  0.70430  0.65460  Biso   1.000  C
  H139     1.0000 0.70240  0.69630  0.65090  Biso   1.000  H
  C179     1.0000 0.87420  0.82830  0.90300  Biso   1.000  C
  H140     1.0000 0.83460  0.84780  0.87840  Biso   1.000  H
  C180     1.0000 0.90670  0.85280  0.96490  Biso   1.000  C
  H141     1.0000 0.88780  0.88840  0.98030  Biso   1.000  H
  C181     1.0000 0.60180  0.75950  0.00660  Biso   1.000  C
  C182     1.0000 0.66240  0.74520  0.89530  Biso   1.000  C
  H142     1.0000 0.67030  0.78550  0.89490  Biso   1.000  H
  C183     1.0000 0.68740  0.71200  0.83970  Biso   1.000  C
  H143     1.0000 0.70830  0.73170  0.80260  Biso   1.000  H
  C184     1.0000 0.78770  0.74200  0.60990  Biso   1.000  C
  H144     1.0000 0.75740  0.76030  0.57480  Biso   1.000  H
  C185     1.0000 0.13990  0.74392  0.78360  Biso   1.000  C
  C186     1.0000 0.06980  0.54160  0.91500  Biso   1.000  C
  H145     1.0000 0.08250  0.51670  0.87610  Biso   1.000  H
  H146     1.0000 0.09430  0.52570  0.95780  Biso   1.000  H
  C187     1.0000 0.17340  0.60473  0.87220  Biso   1.000  C
  H147     1.0000 0.21400  0.60050  0.90850  Biso   1.000  H
  H148     1.0000 0.17810  0.57370  0.83790  Biso   1.000  H
  C188     1.0000 0.14500  0.61420  0.66370  Biso   1.000  C
  H149     1.0000 0.16150  0.64690  0.68960  Biso   1.000  H
  C189     1.0000 0.73030  0.50660  0.59660  Biso   1.000  C
  N30      1.0000 0.91390  0.65877  0.76900  Biso   1.000  N
  C190     1.0000 0.17660  0.75892  0.03790  Biso   1.000  C
  C191     1.0000 0.82170  0.43290  0.63030  Biso   1.000  C
  H150     1.0000 0.83250  0.39380  0.64050  Biso   1.000  H
  O23      1.0000 0.63500  0.57894  0.57990  Biso   1.000  O
  C192     1.0000 0.18560  0.78490  0.97330  Biso   1.000  C
  H151     1.0000 0.14340  0.78920  0.94210  Biso   1.000  H
  C193     1.0000 0.95660  0.74740  0.91780  Biso   1.000  C
  C194     1.0000 0.25420  0.80437  0.95430  Biso   1.000  C
  H152     1.0000 0.25830  0.82210  0.91070  Biso   1.000  H
  O24      1.0000 0.60217  0.48432  0.55728  Biso   1.000  O
  C195     1.0000 0.31840  0.79809  0.99910  Biso   1.000  C
  O25      1.0000 0.44370  0.82982  0.03052  Biso   1.000  O
  O26      1.0000 0.39570  0.85070  0.92145  Biso   1.000  O
  C196     1.0000 0.42790  0.56950  0.70140  Biso   1.000  C
  C197     1.0000 0.32000  0.67900  0.85030  Biso   1.000  C
  H153     1.0000 0.35010  0.71440  0.85730  Biso   1.000  H
  H154     1.0000 0.32030  0.65850  0.89490  Biso   1.000  H
  C198     1.0000 0.95840  0.45350  0.66130  Biso   1.000  C
  H155     1.0000 0.98120  0.43310  0.62300  Biso   1.000  H
  H156     1.0000 0.95450  0.42590  0.69960  Biso   1.000  H
  O27      1.0000 0.58450  0.73510  0.06130  Biso   1.000  O
  Ni7      1.0000 0.01775  0.63910  0.82467  Biso   1.000  Ni
  Ni8      1.0000 0.53937  0.62529  0.54959  Biso   1.000  Ni
  Ni9      1.0000 0.45885  0.58480  0.38079  Biso   1.000  Ni
  N31      1.0000 0.99170  0.00216  0.81527  Biso   1.000  N
  N32      1.0000 0.75800  0.19538  0.67088  Biso   1.000  N
  N33      1.0000 0.88450  0.19090  0.68870  Biso   1.000  N
  C199     1.0000 0.37370  0.16510  0.55170  Biso   1.000  C
  H157     1.0000 0.39320  0.14530  0.51400  Biso   1.000  H
  N34      1.0000 0.90280  0.10220  0.59654  Biso   1.000  N
  C200     1.0000 0.34530  0.13220  0.61040  Biso   1.000  C
  H158     1.0000 0.34840  0.09150  0.60890  Biso   1.000  H
  C201     1.0000 0.78030  0.24607  0.70640  Biso   1.000  C
  O28      1.0000 0.53001  0.04994  0.91364  Biso   1.000  O
  C202     1.0000 0.91240  0.07813  0.81350  Biso   1.000  C
  C203     1.0000 0.93720  0.02988  0.85180  Biso   1.000  C
  N35      1.0000 0.95630  0.23302  0.49454  Biso   1.000  N
  N36      1.0000 0.05260  0.06600  0.64670  Biso   1.000  N
  C204     1.0000 0.64300  0.14010  0.70330  Biso   1.000  C
  N37      1.0000 0.95300  0.08014  0.75259  Biso   1.000  N
  C205     1.0000 0.12060  0.97381  0.86310  Biso   1.000  C
  C206     1.0000 0.82250  0.16444  0.66270  Biso   1.000  C
  N38      1.0000 0.00740  0.19340  0.59240  Biso   1.000  N
  C207     1.0000 0.99930  0.03447  0.75650  Biso   1.000  C
  C208     1.0000 0.68870  0.26940  0.43840  Biso   1.000  C
  H159     1.0000 0.64580  0.26350  0.40830  Biso   1.000  H
  C209     1.0000 0.60800  0.32854  0.51970  Biso   1.000  C
  C210     1.0000 0.73810  0.29380  0.72970  Biso   1.000  C
  H160     1.0000 0.68530  0.29530  0.72330  Biso   1.000  H
  N39      1.0000 0.21080  0.13890  0.74000  Biso   1.000  N
  C211     1.0000 0.89980  0.29050  0.74890  Biso   1.000  C
  H161     1.0000 0.95260  0.29030  0.75500  Biso   1.000  H
  C212     1.0000 0.25120  0.94876  0.89100  Biso   1.000  C
  H162     1.0000 0.28850  0.92000  0.89720  Biso   1.000  H
  O29      1.0000 0.46960  0.07805  0.03940  Biso   1.000  O
  C213     1.0000 0.19720  0.17830  0.79370  Biso   1.000  C
  C214     1.0000 0.90300  0.13790  0.53120  Biso   1.000  C
  H163     1.0000 0.85210  0.15260  0.51980  Biso   1.000  H
  H164     1.0000 0.91740  0.11320  0.49260  Biso   1.000  H
  C215     1.0000 0.95680  0.18799  0.53930  Biso   1.000  C
  C216     1.0000 0.75800  0.24950  0.41960  Biso   1.000  C
  H165     1.0000 0.76130  0.22920  0.37750  Biso   1.000  H
  C217     1.0000 0.21220  0.04930  0.89840  Biso   1.000  C
  H166     1.0000 0.22350  0.08830  0.90870  Biso   1.000  H
  O30      1.0000 0.51210  0.98128  0.83069  Biso   1.000  O
  C218     1.0000 0.01190  0.27260  0.52180  Biso   1.000  C
  C219     1.0000 0.31680  0.15530  0.66320  Biso   1.000  C
  C220     1.0000 0.14290  0.12980  0.70380  Biso   1.000  C
  C221     1.0000 0.90710  0.01620  0.91790  Biso   1.000  C
  H167     1.0000 0.92560  0.98500  0.94540  Biso   1.000  H
  C222     1.0000 0.05380  0.02050  0.70250  Biso   1.000  C
  H168     1.0000 0.10480  0.01770  0.72460  Biso   1.000  H
  H169     1.0000 0.04100  0.98270  0.68160  Biso   1.000  H
  C223     1.0000 0.01550  0.04310  0.57910  Biso   1.000  C
  H170     1.0000 0.02810  0.06820  0.54040  Biso   1.000  H
  H171     1.0000 0.03410  0.00390  0.57000  Biso   1.000  H
  O31      1.0000 0.40020  0.31320  0.50270  Biso   1.000  O
  C224     1.0000 0.34980  0.02480  0.92390  Biso   1.000  C
  C225     1.0000 0.11890  0.18990  0.78720  Biso   1.000  C
  C226     1.0000 0.13830  0.03270  0.87790  Biso   1.000  C
  H172     1.0000 0.10010  0.06090  0.87410  Biso   1.000  H
  C227     1.0000 0.85700  0.33670  0.77140  Biso   1.000  C
  H173     1.0000 0.88190  0.36820  0.79340  Biso   1.000  H
  C228     1.0000 0.28490  0.11740  0.72030  Biso   1.000  C
  H174     1.0000 0.32020  0.11740  0.76130  Biso   1.000  H
  H175     1.0000 0.27980  0.07730  0.70360  Biso   1.000  H
  C229     1.0000 0.82310  0.09980  0.89890  Biso   1.000  C
  H176     1.0000 0.78370  0.12240  0.91510  Biso   1.000  H
  C230     1.0000 0.10060  0.27690  0.62160  Biso   1.000  C
  H177     1.0000 0.12080  0.26140  0.66380  Biso   1.000  H
  C231     1.0000 0.77920  0.33810  0.76260  Biso   1.000  C
  H178     1.0000 0.75330  0.37020  0.77950  Biso   1.000  H
  C232     1.0000 0.89960  0.24210  0.43690  Biso   1.000  C
  H179     1.0000 0.91710  0.27280  0.40640  Biso   1.000  H
  H180     1.0000 0.89440  0.20630  0.40950  Biso   1.000  H
  C233     1.0000 0.85020  0.05100  0.93820  Biso   1.000  C
  H181     1.0000 0.82780  0.04240  0.98000  Biso   1.000  H
  C234     1.0000 0.61950  0.11410  0.82200  Biso   1.000  C
  H182     1.0000 0.62840  0.12070  0.86990  Biso   1.000  H
  C235     1.0000 0.53560  0.03060  0.85330  Biso   1.000  C
  C236     1.0000 0.12890  0.09180  0.64060  Biso   1.000  C
  H183     1.0000 0.16720  0.06120  0.63950  Biso   1.000  H
  H184     1.0000 0.13050  0.11490  0.59790  Biso   1.000  H
  C237     1.0000 0.59370  0.09580  0.68010  Biso   1.000  C
  H185     1.0000 0.58330  0.08990  0.63220  Biso   1.000  H
  C238     1.0000 0.37180  0.22220  0.55180  Biso   1.000  C
  C239     1.0000 0.03560  0.32700  0.49670  Biso   1.000  C
  H186     1.0000 0.01320  0.34420  0.45630  Biso   1.000  H
  C240     1.0000 0.65410  0.14940  0.77350  Biso   1.000  C
  H187     1.0000 0.68550  0.18000  0.78950  Biso   1.000  H
  C241     1.0000 0.08740  0.22880  0.83520  Biso   1.000  C
  H188     1.0000 0.03550  0.23690  0.83250  Biso   1.000  H
  C242     1.0000 0.13410  0.25410  0.88500  Biso   1.000  C
  H189     1.0000 0.11390  0.28010  0.91670  Biso   1.000  H
  C243     1.0000 0.55930  0.05960  0.72950  Biso   1.000  C
  H190     1.0000 0.52780  0.02890  0.71410  Biso   1.000  H
  C244     1.0000 0.24560  0.20430  0.84540  Biso   1.000  C
  H191     1.0000 0.29760  0.19630  0.84910  Biso   1.000  H
  C245     1.0000 0.12580  0.32830  0.59700  Biso   1.000  C
  H192     1.0000 0.16540  0.34780  0.62160  Biso   1.000  H
  C246     1.0000 0.09330  0.35280  0.53510  Biso   1.000  C
  H193     1.0000 0.11220  0.38840  0.51970  Biso   1.000  H
  C247     1.0000 0.39820  0.25950  0.49340  Biso   1.000  C
  C248     1.0000 0.33760  0.24520  0.60470  Biso   1.000  C
  H194     1.0000 0.32970  0.28550  0.60510  Biso   1.000  H
  C249     1.0000 0.31260  0.21200  0.66030  Biso   1.000  C
  H195     1.0000 0.29170  0.23170  0.69740  Biso   1.000  H
  C250     1.0000 0.21230  0.24200  0.89010  Biso   1.000  C
  H196     1.0000 0.24260  0.26030  0.92520  Biso   1.000  H
  C251     1.0000 0.86010  0.24392  0.71640  Biso   1.000  C
  C252     1.0000 0.93020  0.04160  0.58500  Biso   1.000  C
  H197     1.0000 0.91750  0.01670  0.62390  Biso   1.000  H
  H198     1.0000 0.90570  0.02570  0.54220  Biso   1.000  H
  C253     1.0000 0.82660  0.10473  0.62780  Biso   1.000  C
  H199     1.0000 0.78600  0.10050  0.59150  Biso   1.000  H
  H200     1.0000 0.82190  0.07370  0.66210  Biso   1.000  H
  C254     1.0000 0.85500  0.11420  0.83630  Biso   1.000  C
  H201     1.0000 0.83850  0.14690  0.81040  Biso   1.000  H
  C255     1.0000 0.26970  0.00660  0.90340  Biso   1.000  C
  N40      1.0000 0.08610  0.15877  0.73100  Biso   1.000  N
  C256     1.0000 0.82340  0.25892  0.46210  Biso   1.000  C
  C257     1.0000 0.17830  0.93290  0.86970  Biso   1.000  C
  H202     1.0000 0.16750  0.89380  0.85950  Biso   1.000  H
  O32      1.0000 0.36500  0.07894  0.92010  Biso   1.000  O
  C258     1.0000 0.81440  0.28490  0.52670  Biso   1.000  C
  H203     1.0000 0.85660  0.28920  0.55790  Biso   1.000  H
  C259     1.0000 0.04340  0.24740  0.58220  Biso   1.000  C
  C260     1.0000 0.74580  0.30437  0.54570  Biso   1.000  C
  H204     1.0000 0.74170  0.32210  0.58930  Biso   1.000  H
  O33      1.0000 0.39783  0.98432  0.94272  Biso   1.000  O
  C261     1.0000 0.68160  0.29809  0.50090  Biso   1.000  C
  O34      1.0000 0.55630  0.32982  0.46948  Biso   1.000  O
  O35      1.0000 0.60430  0.35070  0.57855  Biso   1.000  O
  C262     1.0000 0.57210  0.06950  0.79860  Biso   1.000  C
  C263     1.0000 0.68000  0.17900  0.64970  Biso   1.000  C
  H205     1.0000 0.64990  0.21440  0.64270  Biso   1.000  H
  H206     1.0000 0.67970  0.15850  0.60510  Biso   1.000  H
  C264     1.0000 0.04160  0.95350  0.83870  Biso   1.000  C
  H207     1.0000 0.01880  0.93310  0.87700  Biso   1.000  H
  H208     1.0000 0.04550  0.92590  0.80040  Biso   1.000  H
  O36      1.0000 0.41550  0.23510  0.43870  Biso   1.000  O
  Ni10     1.0000 0.98225  0.13910  0.67533  Biso   1.000  Ni
  Ni11     1.0000 0.46063  0.12529  0.95041  Biso   1.000  Ni
  Ni12     1.0000 0.54115  0.08480  0.11921  Biso   1.000  Ni
  Ni13     1.0000 0.50000  0.50000  0.50000  Biso   1.000  Ni
  Ni14     1.0000 0.50000  0.00000  0.00000  Biso   1.000  Ni
