data_image0
_cell_length_a       10.23
_cell_length_b       9.468
_cell_length_c       28.006
_cell_angle_alpha    90
_cell_angle_beta     98.048
_cell_angle_gamma    90

_symmetry_space_group_name_H-M    "P 1"
_symmetry_int_tables_number       1

loop_
  _symmetry_equiv_pos_as_xyz
  'x, y, z'

loop_
  _atom_site_label
  _atom_site_occupancy
  _atom_site_fract_x
  _atom_site_fract_y
  _atom_site_fract_z
  _atom_site_thermal_displace_type
  _atom_site_B_iso_or_equiv
  _atom_site_type_symbol
  Co1      1.0000 0.77973  0.38336  0.69352  Biso   1.000  Co
  Co2      1.0000 0.55644  0.43970  0.59720  Biso   1.000  Co
  O1       1.0000 0.53270  0.24630  0.62640  Biso   1.000  O
  O2       1.0000 0.70990  0.18690  0.67780  Biso   1.000  O
  O3       1.0000 0.78250  0.65270  0.70590  Biso   1.000  O
  O4       1.0000 0.63260  0.51830  0.66600  Biso   1.000  O
  O5       1.0000 0.28770  0.87800  0.73500  Biso   1.000  O
  O6       1.0000 0.08120  0.84860  0.74520  Biso   1.000  O
  O7       1.0000 0.58970  0.62590  0.46420  Biso   1.000  O
  O8       1.0000 0.65210  0.53880  0.39920  Biso   1.000  O
  O9       1.0000 0.10060  0.60780  0.35900  Biso   1.000  O
  O10      1.0000 0.26260  0.61080  0.42190  Biso   1.000  O
  C1       1.0000 0.60300  0.15900  0.65200  Biso   1.000  C
  C2       1.0000 0.55180  0.01010  0.65330  Biso   1.000  C
  C3       1.0000 0.63570  0.89880  0.66780  Biso   1.000  C
  H1       1.0000 0.72550  0.91440  0.67700  Biso   1.000  H
  C4       1.0000 0.58370  0.76290  0.66870  Biso   1.000  C
  C5       1.0000 0.44910  0.74170  0.65790  Biso   1.000  C
  H2       1.0000 0.41490  0.65130  0.66010  Biso   1.000  H
  C6       1.0000 0.36390  0.85370  0.64370  Biso   1.000  C
  C7       1.0000 0.41570  0.98460  0.64030  Biso   1.000  C
  H3       1.0000 0.36030  0.05910  0.62930  Biso   1.000  H
  C8       1.0000 0.67390  0.63950  0.68110  Biso   1.000  C
  C9       1.0000 0.21900  0.82460  0.63140  Biso   1.000  C
  C10      1.0000 0.13070  0.82520  0.66490  Biso   1.000  C
  C11      1.0000 0.99820  0.79150  0.64870  Biso   1.000  C
  H4       1.0000 0.93890  0.79260  0.67100  Biso   1.000  H
  C12      1.0000 0.95030  0.75630  0.60080  Biso   1.000  C
  H5       1.0000 0.86200  0.73310  0.59160  Biso   1.000  H
  C13      1.0000 0.03920  0.75720  0.56740  Biso   1.000  C
  C14      1.0000 0.16920  0.79280  0.58380  Biso   1.000  C
  H6       1.0000 0.22780  0.79560  0.56120  Biso   1.000  H
  C15      1.0000 0.17120  0.85280  0.71800  Biso   1.000  C
  C16      1.0000 0.99480  0.71300  0.51660  Biso   1.000  C
  C17      1.0000 0.86230  0.68190  0.50050  Biso   1.000  C
  H7       1.0000 0.80000  0.69650  0.52120  Biso   1.000  H
  C18      1.0000 0.82210  0.63080  0.45530  Biso   1.000  C
  C19      1.0000 0.91250  0.60870  0.42320  Biso   1.000  C
  H8       1.0000 0.88430  0.57260  0.39260  Biso   1.000  H
  C20      1.0000 0.04440  0.64050  0.43700  Biso   1.000  C
  C21      1.0000 0.08490  0.68900  0.48440  Biso   1.000  C
  H9       1.0000 0.17410  0.70550  0.49440  Biso   1.000  H
  C22      1.0000 0.14660  0.61590  0.40420  Biso   1.000  C
  C23      1.0000 0.67910  0.59510  0.43790  Biso   1.000  C
  Co3      1.0000 0.22027  0.88336  0.80648  Biso   1.000  Co
  Co4      1.0000 0.44356  0.93970  0.90280  Biso   1.000  Co
  O11      1.0000 0.46730  0.74630  0.87360  Biso   1.000  O
  O12      1.0000 0.29010  0.68690  0.82220  Biso   1.000  O
  O13      1.0000 0.21750  0.15270  0.79410  Biso   1.000  O
  O14      1.0000 0.36740  0.01830  0.83400  Biso   1.000  O
  O15      1.0000 0.71230  0.37800  0.76500  Biso   1.000  O
  O16      1.0000 0.91880  0.34860  0.75480  Biso   1.000  O
  O17      1.0000 0.41030  0.12590  0.03580  Biso   1.000  O
  O18      1.0000 0.34790  0.03880  0.10080  Biso   1.000  O
  O19      1.0000 0.89940  0.10780  0.14100  Biso   1.000  O
  O20      1.0000 0.73740  0.11080  0.07810  Biso   1.000  O
  C24      1.0000 0.39700  0.65900  0.84800  Biso   1.000  C
  C25      1.0000 0.44820  0.51010  0.84670  Biso   1.000  C
  C26      1.0000 0.36430  0.39880  0.83220  Biso   1.000  C
  H10      1.0000 0.27450  0.41440  0.82300  Biso   1.000  H
  C27      1.0000 0.41630  0.26290  0.83130  Biso   1.000  C
  C28      1.0000 0.55090  0.24170  0.84210  Biso   1.000  C
  H11      1.0000 0.58510  0.15130  0.83990  Biso   1.000  H
  C29      1.0000 0.63610  0.35370  0.85630  Biso   1.000  C
  C30      1.0000 0.58430  0.48460  0.85970  Biso   1.000  C
  H12      1.0000 0.63970  0.55910  0.87070  Biso   1.000  H
  C31      1.0000 0.32610  0.13950  0.81890  Biso   1.000  C
  C32      1.0000 0.78100  0.32460  0.86860  Biso   1.000  C
  C33      1.0000 0.86930  0.32520  0.83510  Biso   1.000  C
  C34      1.0000 0.00180  0.29150  0.85130  Biso   1.000  C
  H13      1.0000 0.06110  0.29260  0.82900  Biso   1.000  H
  C35      1.0000 0.04970  0.25630  0.89920  Biso   1.000  C
  H14      1.0000 0.13800  0.23310  0.90840  Biso   1.000  H
  C36      1.0000 0.96080  0.25720  0.93260  Biso   1.000  C
  C37      1.0000 0.83080  0.29280  0.91620  Biso   1.000  C
  H15      1.0000 0.77220  0.29560  0.93880  Biso   1.000  H
  C38      1.0000 0.82880  0.35280  0.78200  Biso   1.000  C
  C39      1.0000 0.00520  0.21300  0.98340  Biso   1.000  C
  C40      1.0000 0.13770  0.18190  0.99950  Biso   1.000  C
  H16      1.0000 0.20000  0.19650  0.97880  Biso   1.000  H
  C41      1.0000 0.17790  0.13080  0.04470  Biso   1.000  C
  C42      1.0000 0.08750  0.10870  0.07680  Biso   1.000  C
  H17      1.0000 0.11570  0.07260  0.10740  Biso   1.000  H
  C43      1.0000 0.95560  0.14050  0.06300  Biso   1.000  C
  C44      1.0000 0.91510  0.18900  0.01560  Biso   1.000  C
  H18      1.0000 0.82590  0.20550  0.00560  Biso   1.000  H
  C45      1.0000 0.85340  0.11590  0.09580  Biso   1.000  C
  C46      1.0000 0.32090  0.09510  0.06210  Biso   1.000  C
  Co5      1.0000 0.22027  0.61664  0.30648  Biso   1.000  Co
  Co6      1.0000 0.44356  0.56030  0.40280  Biso   1.000  Co
  O21      1.0000 0.46730  0.75370  0.37360  Biso   1.000  O
  O22      1.0000 0.29010  0.81310  0.32220  Biso   1.000  O
  O23      1.0000 0.21750  0.34730  0.29410  Biso   1.000  O
  O24      1.0000 0.36740  0.48170  0.33400  Biso   1.000  O
  O25      1.0000 0.71230  0.12200  0.26500  Biso   1.000  O
  O26      1.0000 0.91880  0.15140  0.25480  Biso   1.000  O
  O27      1.0000 0.41030  0.37410  0.53580  Biso   1.000  O
  O28      1.0000 0.34790  0.46120  0.60080  Biso   1.000  O
  O29      1.0000 0.89940  0.39220  0.64100  Biso   1.000  O
  O30      1.0000 0.73740  0.38920  0.57810  Biso   1.000  O
  C47      1.0000 0.39700  0.84100  0.34800  Biso   1.000  C
  C48      1.0000 0.44820  0.98990  0.34670  Biso   1.000  C
  C49      1.0000 0.36430  0.10120  0.33220  Biso   1.000  C
  H19      1.0000 0.27450  0.08560  0.32300  Biso   1.000  H
  C50      1.0000 0.41630  0.23710  0.33130  Biso   1.000  C
  C51      1.0000 0.55090  0.25830  0.34210  Biso   1.000  C
  H20      1.0000 0.58510  0.34870  0.33990  Biso   1.000  H
  C52      1.0000 0.63610  0.14630  0.35630  Biso   1.000  C
  C53      1.0000 0.58430  0.01540  0.35970  Biso   1.000  C
  H21      1.0000 0.63970  0.94090  0.37070  Biso   1.000  H
  C54      1.0000 0.32610  0.36050  0.31890  Biso   1.000  C
  C55      1.0000 0.78100  0.17540  0.36860  Biso   1.000  C
  C56      1.0000 0.86930  0.17480  0.33510  Biso   1.000  C
  C57      1.0000 0.00180  0.20850  0.35130  Biso   1.000  C
  H22      1.0000 0.06110  0.20740  0.32900  Biso   1.000  H
  C58      1.0000 0.04970  0.24370  0.39920  Biso   1.000  C
  H23      1.0000 0.13800  0.26690  0.40840  Biso   1.000  H
  C59      1.0000 0.96080  0.24280  0.43260  Biso   1.000  C
  C60      1.0000 0.83080  0.20720  0.41620  Biso   1.000  C
  H24      1.0000 0.77220  0.20440  0.43880  Biso   1.000  H
  C61      1.0000 0.82880  0.14720  0.28200  Biso   1.000  C
  C62      1.0000 0.00520  0.28700  0.48340  Biso   1.000  C
  C63      1.0000 0.13770  0.31810  0.49950  Biso   1.000  C
  H25      1.0000 0.20000  0.30350  0.47880  Biso   1.000  H
  C64      1.0000 0.17790  0.36920  0.54470  Biso   1.000  C
  C65      1.0000 0.08750  0.39130  0.57680  Biso   1.000  C
  H26      1.0000 0.11570  0.42740  0.60740  Biso   1.000  H
  C66      1.0000 0.95560  0.35950  0.56300  Biso   1.000  C
  C67      1.0000 0.91510  0.31100  0.51560  Biso   1.000  C
  H27      1.0000 0.82590  0.29450  0.50560  Biso   1.000  H
  C68      1.0000 0.85340  0.38410  0.59580  Biso   1.000  C
  C69      1.0000 0.32090  0.40490  0.56210  Biso   1.000  C
  Co7      1.0000 0.77973  0.11664  0.19352  Biso   1.000  Co
  Co8      1.0000 0.55644  0.06030  0.09720  Biso   1.000  Co
  O31      1.0000 0.53270  0.25370  0.12640  Biso   1.000  O
  O32      1.0000 0.70990  0.31310  0.17780  Biso   1.000  O
  O33      1.0000 0.78250  0.84730  0.20590  Biso   1.000  O
  O34      1.0000 0.63260  0.98170  0.16600  Biso   1.000  O
  O35      1.0000 0.28770  0.62200  0.23500  Biso   1.000  O
  O36      1.0000 0.08120  0.65140  0.24520  Biso   1.000  O
  O37      1.0000 0.58970  0.87410  0.96420  Biso   1.000  O
  O38      1.0000 0.65210  0.96120  0.89920  Biso   1.000  O
  O39      1.0000 0.10060  0.89220  0.85900  Biso   1.000  O
  O40      1.0000 0.26260  0.88920  0.92190  Biso   1.000  O
  C70      1.0000 0.60300  0.34100  0.15200  Biso   1.000  C
  C71      1.0000 0.55180  0.48990  0.15330  Biso   1.000  C
  C72      1.0000 0.63570  0.60120  0.16780  Biso   1.000  C
  H28      1.0000 0.72550  0.58560  0.17700  Biso   1.000  H
  C73      1.0000 0.58370  0.73710  0.16870  Biso   1.000  C
  C74      1.0000 0.44910  0.75830  0.15790  Biso   1.000  C
  H29      1.0000 0.41490  0.84870  0.16010  Biso   1.000  H
  C75      1.0000 0.36390  0.64630  0.14370  Biso   1.000  C
  C76      1.0000 0.41570  0.51540  0.14030  Biso   1.000  C
  H30      1.0000 0.36030  0.44090  0.12930  Biso   1.000  H
  C77      1.0000 0.67390  0.86050  0.18110  Biso   1.000  C
  C78      1.0000 0.21900  0.67540  0.13140  Biso   1.000  C
  C79      1.0000 0.13070  0.67480  0.16490  Biso   1.000  C
  C80      1.0000 0.99820  0.70850  0.14870  Biso   1.000  C
  H31      1.0000 0.93890  0.70740  0.17100  Biso   1.000  H
  C81      1.0000 0.95030  0.74370  0.10080  Biso   1.000  C
  H32      1.0000 0.86200  0.76690  0.09160  Biso   1.000  H
  C82      1.0000 0.03920  0.74280  0.06740  Biso   1.000  C
  C83      1.0000 0.16920  0.70720  0.08380  Biso   1.000  C
  H33      1.0000 0.22780  0.70440  0.06120  Biso   1.000  H
  C84      1.0000 0.17120  0.64720  0.21800  Biso   1.000  C
  C85      1.0000 0.99480  0.78700  0.01660  Biso   1.000  C
  C86      1.0000 0.86230  0.81810  0.00050  Biso   1.000  C
  H34      1.0000 0.80000  0.80350  0.02120  Biso   1.000  H
  C87      1.0000 0.82210  0.86920  0.95530  Biso   1.000  C
  C88      1.0000 0.91250  0.89130  0.92320  Biso   1.000  C
  H35      1.0000 0.88430  0.92740  0.89260  Biso   1.000  H
  C89      1.0000 0.04440  0.85950  0.93700  Biso   1.000  C
  C90      1.0000 0.08490  0.81100  0.98440  Biso   1.000  C
  H36      1.0000 0.17410  0.79450  0.99440  Biso   1.000  H
  C91      1.0000 0.14660  0.88410  0.90420  Biso   1.000  C
  C92      1.0000 0.67910  0.90490  0.93790  Biso   1.000  C
