data_image0
_cell_length_a       10.615
_cell_length_b       9.6419
_cell_length_c       28.48
_cell_angle_alpha    90
_cell_angle_beta     94.819
_cell_angle_gamma    90

_symmetry_space_group_name_H-M    "P 1"
_symmetry_int_tables_number       1

loop_
  _symmetry_equiv_pos_as_xyz
  'x, y, z'

loop_
  _atom_site_label
  _atom_site_occupancy
  _atom_site_fract_x
  _atom_site_fract_y
  _atom_site_fract_z
  _atom_site_thermal_displace_type
  _atom_site_B_iso_or_equiv
  _atom_site_type_symbol
  Mn1      1.0000 0.55212  0.19468  0.09425  Biso   1.000  Mn
  Mn2      1.0000 0.76770  0.26041  0.69087  Biso   1.000  Mn
  O1       1.0000 0.35143  0.14870  0.09054  Biso   1.000  O
  O2       1.0000 0.34380  0.00510  0.02878  Biso   1.000  O
  O3       1.0000 0.90440  0.21530  0.14198  Biso   1.000  O
  O4       1.0000 0.74840  0.23430  0.08571  Biso   1.000  O
  O5       1.0000 0.47280  0.62010  0.86720  Biso   1.000  O
  O6       1.0000 0.29750  0.55570  0.82418  Biso   1.000  O
  O7       1.0000 0.38770  0.89580  0.83569  Biso   1.000  O
  O8       1.0000 0.24140  0.02990  0.80041  Biso   1.000  O
  O9       1.0000 0.91070  0.20990  0.75057  Biso   1.000  O
  O10      1.0000 0.71900  0.25710  0.76477  Biso   1.000  O
  C1       1.0000 0.29510  0.09220  0.05434  Biso   1.000  C
  C2       1.0000 0.16090  0.13440  0.04084  Biso   1.000  C
  C3       1.0000 0.07920  0.16480  0.07546  Biso   1.000  C
  H1       1.0000 0.10890  0.16360  0.10710  Biso   1.000  H
  C4       1.0000 0.95400  0.19670  0.06252  Biso   1.000  C
  C5       1.0000 0.91180  0.20530  0.01461  Biso   1.000  C
  H2       1.0000 0.82810  0.22930  0.00610  Biso   1.000  H
  C6       1.0000 0.99160  0.17900  0.97957  Biso   1.000  C
  C7       1.0000 0.11640  0.13960  0.99386  Biso   1.000  C
  H3       1.0000 0.17060  0.11640  0.97110  Biso   1.000  H
  C8       1.0000 0.86190  0.21710  0.09947  Biso   1.000  C
  C9       1.0000 0.94870  0.18790  0.92823  Biso   1.000  C
  C10      1.0000 0.82120  0.20820  0.91309  Biso   1.000  C
  H4       1.0000 0.76320  0.21690  0.93560  Biso   1.000  H
  C11      1.0000 0.77730  0.21590  0.86545  Biso   1.000  C
  C12      1.0000 0.86420  0.20620  0.83139  Biso   1.000  C
  C13      1.0000 0.99140  0.18300  0.84621  Biso   1.000  C
  H5       1.0000 0.04950  0.17350  0.82370  Biso   1.000  H
  C14      1.0000 0.03260  0.17410  0.89301  Biso   1.000  C
  H6       1.0000 0.11790  0.15850  0.90160  Biso   1.000  H
  C15      1.0000 0.63790  0.23430  0.85398  Biso   1.000  C
  C16      1.0000 0.58460  0.36590  0.85524  Biso   1.000  C
  H7       1.0000 0.63610  0.44170  0.86340  Biso   1.000  H
  C17      1.0000 0.45480  0.38650  0.84440  Biso   1.000  C
  C18      1.0000 0.37790  0.27230  0.83303  Biso   1.000  C
  H8       1.0000 0.29190  0.28480  0.82510  Biso   1.000  H
  C19      1.0000 0.42960  0.13970  0.83356  Biso   1.000  C
  C20      1.0000 0.55940  0.12150  0.84351  Biso   1.000  C
  H9       1.0000 0.59370  0.03280  0.84310  Biso   1.000  H
  C21      1.0000 0.40380  0.53140  0.84537  Biso   1.000  C
  C22      1.0000 0.34690  0.01570  0.82223  Biso   1.000  C
  C23      1.0000 0.82870  0.22470  0.77952  Biso   1.000  C
  Mn3      1.0000 0.44788  0.69468  0.40575  Biso   1.000  Mn
  Mn4      1.0000 0.23230  0.76041  0.80913  Biso   1.000  Mn
  O11      1.0000 0.64857  0.64870  0.40946  Biso   1.000  O
  O12      1.0000 0.65620  0.50510  0.47122  Biso   1.000  O
  O13      1.0000 0.09560  0.71530  0.35802  Biso   1.000  O
  O14      1.0000 0.25160  0.73430  0.41429  Biso   1.000  O
  O15      1.0000 0.52720  0.12010  0.63280  Biso   1.000  O
  O16      1.0000 0.70250  0.05570  0.67582  Biso   1.000  O
  O17      1.0000 0.61230  0.39580  0.66431  Biso   1.000  O
  O18      1.0000 0.75860  0.52990  0.69959  Biso   1.000  O
  O19      1.0000 0.08930  0.70990  0.74943  Biso   1.000  O
  O20      1.0000 0.28100  0.75710  0.73523  Biso   1.000  O
  C24      1.0000 0.70490  0.59220  0.44566  Biso   1.000  C
  C25      1.0000 0.83910  0.63440  0.45916  Biso   1.000  C
  C26      1.0000 0.92080  0.66480  0.42454  Biso   1.000  C
  H10      1.0000 0.89110  0.66360  0.39290  Biso   1.000  H
  C27      1.0000 0.04600  0.69670  0.43748  Biso   1.000  C
  C28      1.0000 0.08820  0.70530  0.48539  Biso   1.000  C
  H11      1.0000 0.17190  0.72930  0.49390  Biso   1.000  H
  C29      1.0000 0.00840  0.67900  0.52043  Biso   1.000  C
  C30      1.0000 0.88360  0.63960  0.50614  Biso   1.000  C
  H12      1.0000 0.82940  0.61640  0.52890  Biso   1.000  H
  C31      1.0000 0.13810  0.71710  0.40053  Biso   1.000  C
  C32      1.0000 0.05130  0.68790  0.57177  Biso   1.000  C
  C33      1.0000 0.17880  0.70820  0.58691  Biso   1.000  C
  H13      1.0000 0.23680  0.71690  0.56440  Biso   1.000  H
  C34      1.0000 0.22270  0.71590  0.63455  Biso   1.000  C
  C35      1.0000 0.13580  0.70620  0.66861  Biso   1.000  C
  C36      1.0000 0.00860  0.68300  0.65379  Biso   1.000  C
  H14      1.0000 0.95050  0.67350  0.67630  Biso   1.000  H
  C37      1.0000 0.96740  0.67410  0.60699  Biso   1.000  C
  H15      1.0000 0.88210  0.65850  0.59840  Biso   1.000  H
  C38      1.0000 0.36210  0.73430  0.64602  Biso   1.000  C
  C39      1.0000 0.41540  0.86590  0.64476  Biso   1.000  C
  H16      1.0000 0.36390  0.94170  0.63660  Biso   1.000  H
  C40      1.0000 0.54520  0.88650  0.65560  Biso   1.000  C
  C41      1.0000 0.62210  0.77230  0.66697  Biso   1.000  C
  H17      1.0000 0.70810  0.78480  0.67490  Biso   1.000  H
  C42      1.0000 0.57040  0.63970  0.66644  Biso   1.000  C
  C43      1.0000 0.44060  0.62150  0.65649  Biso   1.000  C
  H18      1.0000 0.40630  0.53280  0.65690  Biso   1.000  H
  C44      1.0000 0.59620  0.03140  0.65463  Biso   1.000  C
  C45      1.0000 0.65310  0.51570  0.67777  Biso   1.000  C
  C46      1.0000 0.17130  0.72470  0.72048  Biso   1.000  C
  Mn5      1.0000 0.44788  0.80532  0.90575  Biso   1.000  Mn
  Mn6      1.0000 0.23230  0.73959  0.30913  Biso   1.000  Mn
  O21      1.0000 0.64857  0.85130  0.90946  Biso   1.000  O
  O22      1.0000 0.65620  0.99490  0.97122  Biso   1.000  O
  O23      1.0000 0.09560  0.78470  0.85802  Biso   1.000  O
  O24      1.0000 0.25160  0.76570  0.91429  Biso   1.000  O
  O25      1.0000 0.52720  0.37990  0.13280  Biso   1.000  O
  O26      1.0000 0.70250  0.44430  0.17582  Biso   1.000  O
  O27      1.0000 0.61230  0.10420  0.16431  Biso   1.000  O
  O28      1.0000 0.75860  0.97010  0.19959  Biso   1.000  O
  O29      1.0000 0.08930  0.79010  0.24943  Biso   1.000  O
  O30      1.0000 0.28100  0.74290  0.23523  Biso   1.000  O
  C47      1.0000 0.70490  0.90780  0.94566  Biso   1.000  C
  C48      1.0000 0.83910  0.86560  0.95916  Biso   1.000  C
  C49      1.0000 0.92080  0.83520  0.92454  Biso   1.000  C
  H19      1.0000 0.89110  0.83640  0.89290  Biso   1.000  H
  C50      1.0000 0.04600  0.80330  0.93748  Biso   1.000  C
  C51      1.0000 0.08820  0.79470  0.98539  Biso   1.000  C
  H20      1.0000 0.17190  0.77070  0.99390  Biso   1.000  H
  C52      1.0000 0.00840  0.82100  0.02043  Biso   1.000  C
  C53      1.0000 0.88360  0.86040  0.00614  Biso   1.000  C
  H21      1.0000 0.82940  0.88360  0.02890  Biso   1.000  H
  C54      1.0000 0.13810  0.78290  0.90053  Biso   1.000  C
  C55      1.0000 0.05130  0.81210  0.07177  Biso   1.000  C
  C56      1.0000 0.17880  0.79180  0.08691  Biso   1.000  C
  H22      1.0000 0.23680  0.78310  0.06440  Biso   1.000  H
  C57      1.0000 0.22270  0.78410  0.13455  Biso   1.000  C
  C58      1.0000 0.13580  0.79380  0.16861  Biso   1.000  C
  C59      1.0000 0.00860  0.81700  0.15379  Biso   1.000  C
  H23      1.0000 0.95050  0.82650  0.17630  Biso   1.000  H
  C60      1.0000 0.96740  0.82590  0.10699  Biso   1.000  C
  H24      1.0000 0.88210  0.84150  0.09840  Biso   1.000  H
  C61      1.0000 0.36210  0.76570  0.14602  Biso   1.000  C
  C62      1.0000 0.41540  0.63410  0.14476  Biso   1.000  C
  H25      1.0000 0.36390  0.55830  0.13660  Biso   1.000  H
  C63      1.0000 0.54520  0.61350  0.15560  Biso   1.000  C
  C64      1.0000 0.62210  0.72770  0.16697  Biso   1.000  C
  H26      1.0000 0.70810  0.71520  0.17490  Biso   1.000  H
  C65      1.0000 0.57040  0.86030  0.16644  Biso   1.000  C
  C66      1.0000 0.44060  0.87850  0.15649  Biso   1.000  C
  H27      1.0000 0.40630  0.96720  0.15690  Biso   1.000  H
  C67      1.0000 0.59620  0.46860  0.15463  Biso   1.000  C
  C68      1.0000 0.65310  0.98430  0.17777  Biso   1.000  C
  C69      1.0000 0.17130  0.77530  0.22048  Biso   1.000  C
  Mn7      1.0000 0.55212  0.30532  0.59425  Biso   1.000  Mn
  Mn8      1.0000 0.76770  0.23959  0.19087  Biso   1.000  Mn
  O31      1.0000 0.35143  0.35130  0.59054  Biso   1.000  O
  O32      1.0000 0.34380  0.49490  0.52878  Biso   1.000  O
  O33      1.0000 0.90440  0.28470  0.64198  Biso   1.000  O
  O34      1.0000 0.74840  0.26570  0.58571  Biso   1.000  O
  O35      1.0000 0.47280  0.87990  0.36720  Biso   1.000  O
  O36      1.0000 0.29750  0.94430  0.32418  Biso   1.000  O
  O37      1.0000 0.38770  0.60420  0.33569  Biso   1.000  O
  O38      1.0000 0.24140  0.47010  0.30041  Biso   1.000  O
  O39      1.0000 0.91070  0.29010  0.25057  Biso   1.000  O
  O40      1.0000 0.71900  0.24290  0.26477  Biso   1.000  O
  C70      1.0000 0.29510  0.40780  0.55434  Biso   1.000  C
  C71      1.0000 0.16090  0.36560  0.54084  Biso   1.000  C
  C72      1.0000 0.07920  0.33520  0.57546  Biso   1.000  C
  H28      1.0000 0.10890  0.33640  0.60710  Biso   1.000  H
  C73      1.0000 0.95400  0.30330  0.56252  Biso   1.000  C
  C74      1.0000 0.91180  0.29470  0.51461  Biso   1.000  C
  H29      1.0000 0.82810  0.27070  0.50610  Biso   1.000  H
  C75      1.0000 0.99160  0.32100  0.47957  Biso   1.000  C
  C76      1.0000 0.11640  0.36040  0.49386  Biso   1.000  C
  H30      1.0000 0.17060  0.38360  0.47110  Biso   1.000  H
  C77      1.0000 0.86190  0.28290  0.59947  Biso   1.000  C
  C78      1.0000 0.94870  0.31210  0.42823  Biso   1.000  C
  C79      1.0000 0.82120  0.29180  0.41309  Biso   1.000  C
  H31      1.0000 0.76320  0.28310  0.43560  Biso   1.000  H
  C80      1.0000 0.77730  0.28410  0.36545  Biso   1.000  C
  C81      1.0000 0.86420  0.29380  0.33139  Biso   1.000  C
  C82      1.0000 0.99140  0.31700  0.34621  Biso   1.000  C
  H32      1.0000 0.04950  0.32650  0.32370  Biso   1.000  H
  C83      1.0000 0.03260  0.32590  0.39301  Biso   1.000  C
  H33      1.0000 0.11790  0.34150  0.40160  Biso   1.000  H
  C84      1.0000 0.63790  0.26570  0.35398  Biso   1.000  C
  C85      1.0000 0.58460  0.13410  0.35524  Biso   1.000  C
  H34      1.0000 0.63610  0.05830  0.36340  Biso   1.000  H
  C86      1.0000 0.45480  0.11350  0.34440  Biso   1.000  C
  C87      1.0000 0.37790  0.22770  0.33303  Biso   1.000  C
  H35      1.0000 0.29190  0.21520  0.32510  Biso   1.000  H
  C88      1.0000 0.42960  0.36030  0.33356  Biso   1.000  C
  C89      1.0000 0.55940  0.37850  0.34351  Biso   1.000  C
  H36      1.0000 0.59370  0.46720  0.34310  Biso   1.000  H
  C90      1.0000 0.40380  0.96860  0.34537  Biso   1.000  C
  C91      1.0000 0.34690  0.48430  0.32223  Biso   1.000  C
  C92      1.0000 0.82870  0.27530  0.27952  Biso   1.000  C
