data_image0
_cell_length_a       16.0206
_cell_length_b       10.107
_cell_length_c       18.533
_cell_angle_alpha    90
_cell_angle_beta     90
_cell_angle_gamma    90

_symmetry_space_group_name_H-M    "P 1"
_symmetry_int_tables_number       1

loop_
  _symmetry_equiv_pos_as_xyz
  'x, y, z'

loop_
  _atom_site_label
  _atom_site_occupancy
  _atom_site_fract_x
  _atom_site_fract_y
  _atom_site_fract_z
  _atom_site_thermal_displace_type
  _atom_site_B_iso_or_equiv
  _atom_site_type_symbol
  Ga1      1.0000 0.03840  0.68168  0.28205  Biso   1.000  Ga
  Ga2      1.0000 0.84971  0.83323  0.32400  Biso   1.000  Ga
  Ga3      1.0000 0.00914  0.65238  0.09228  Biso   1.000  Ga
  P1       1.0000 0.06094  0.37850  0.31604  Biso   1.000  P
  P2       1.0000 0.18386  0.64830  0.16842  Biso   1.000  P
  P3       1.0000 0.01195  0.85790  0.42263  Biso   1.000  P
  F1       1.0000 0.00310  0.58850  0.19520  Biso   1.000  F
  F2       1.0000 0.91990  0.66920  0.31050  Biso   1.000  F
  O1       1.0000 0.05910  0.52400  0.33930  Biso   1.000  O
  O2       1.0000 0.14370  0.35050  0.27630  Biso   1.000  O
  O3       1.0000 0.98660  0.34610  0.26810  Biso   1.000  O
  O4       1.0000 0.05990  0.29580  0.38570  Biso   1.000  O
  O5       1.0000 0.15120  0.68960  0.24260  Biso   1.000  O
  O6       1.0000 0.20780  0.50160  0.16740  Biso   1.000  O
  O7       1.0000 0.12180  0.67970  0.10740  Biso   1.000  O
  O8       1.0000 0.26160  0.72860  0.14960  Biso   1.000  O
  O9       1.0000 0.06520  0.78440  0.36680  Biso   1.000  O
  O10      1.0000 0.92020  0.87170  0.40030  Biso   1.000  O
  O11      1.0000 0.01770  0.78370  0.49420  Biso   1.000  O
  O12      1.0000 0.04790  0.99840  0.43200  Biso   1.000  O
  Ga4      1.0000 0.46160  0.31832  0.78205  Biso   1.000  Ga
  Ga5      1.0000 0.65029  0.16677  0.82400  Biso   1.000  Ga
  Ga6      1.0000 0.49086  0.34762  0.59228  Biso   1.000  Ga
  P4       1.0000 0.43906  0.62150  0.81604  Biso   1.000  P
  P5       1.0000 0.31614  0.35170  0.66842  Biso   1.000  P
  P6       1.0000 0.48805  0.14210  0.92263  Biso   1.000  P
  F3       1.0000 0.49690  0.41150  0.69520  Biso   1.000  F
  F4       1.0000 0.58010  0.33080  0.81050  Biso   1.000  F
  O13      1.0000 0.44090  0.47600  0.83930  Biso   1.000  O
  O14      1.0000 0.35630  0.64950  0.77630  Biso   1.000  O
  O15      1.0000 0.51340  0.65390  0.76810  Biso   1.000  O
  O16      1.0000 0.44010  0.70420  0.88570  Biso   1.000  O
  O17      1.0000 0.34880  0.31040  0.74260  Biso   1.000  O
  O18      1.0000 0.29220  0.49840  0.66740  Biso   1.000  O
  O19      1.0000 0.37820  0.32030  0.60740  Biso   1.000  O
  O20      1.0000 0.23840  0.27140  0.64960  Biso   1.000  O
  O21      1.0000 0.43480  0.21560  0.86680  Biso   1.000  O
  O22      1.0000 0.57980  0.12830  0.90030  Biso   1.000  O
  O23      1.0000 0.48230  0.21630  0.99420  Biso   1.000  O
  O24      1.0000 0.45210  0.00160  0.93200  Biso   1.000  O
  Ga7      1.0000 0.96160  0.18168  0.21795  Biso   1.000  Ga
  Ga8      1.0000 0.15029  0.33323  0.17600  Biso   1.000  Ga
  Ga9      1.0000 0.99086  0.15238  0.40772  Biso   1.000  Ga
  P7       1.0000 0.93906  0.87850  0.18396  Biso   1.000  P
  P8       1.0000 0.81614  0.14830  0.33158  Biso   1.000  P
  P9       1.0000 0.98805  0.35790  0.07737  Biso   1.000  P
  F5       1.0000 0.99690  0.08850  0.30480  Biso   1.000  F
  F6       1.0000 0.08010  0.16920  0.18950  Biso   1.000  F
  O25      1.0000 0.94090  0.02400  0.16070  Biso   1.000  O
  O26      1.0000 0.85630  0.85050  0.22370  Biso   1.000  O
  O27      1.0000 0.01340  0.84610  0.23190  Biso   1.000  O
  O28      1.0000 0.94010  0.79580  0.11430  Biso   1.000  O
  O29      1.0000 0.84880  0.18960  0.25740  Biso   1.000  O
  O30      1.0000 0.79220  0.00160  0.33260  Biso   1.000  O
  O31      1.0000 0.87820  0.17970  0.39260  Biso   1.000  O
  O32      1.0000 0.73840  0.22860  0.35040  Biso   1.000  O
  O33      1.0000 0.93480  0.28440  0.13320  Biso   1.000  O
  O34      1.0000 0.07980  0.37170  0.09970  Biso   1.000  O
  O35      1.0000 0.98230  0.28370  0.00580  Biso   1.000  O
  O36      1.0000 0.95210  0.49840  0.06800  Biso   1.000  O
  Ga10     1.0000 0.53840  0.81832  0.71795  Biso   1.000  Ga
  Ga11     1.0000 0.34971  0.66677  0.67600  Biso   1.000  Ga
  Ga12     1.0000 0.50914  0.84762  0.90772  Biso   1.000  Ga
  P10      1.0000 0.56094  0.12150  0.68396  Biso   1.000  P
  P11      1.0000 0.68386  0.85170  0.83158  Biso   1.000  P
  P12      1.0000 0.51195  0.64210  0.57737  Biso   1.000  P
  F7       1.0000 0.50310  0.91150  0.80480  Biso   1.000  F
  F8       1.0000 0.41990  0.83080  0.68950  Biso   1.000  F
  O37      1.0000 0.55910  0.97600  0.66070  Biso   1.000  O
  O38      1.0000 0.64370  0.14950  0.72370  Biso   1.000  O
  O39      1.0000 0.48660  0.15390  0.73190  Biso   1.000  O
  O40      1.0000 0.55990  0.20420  0.61430  Biso   1.000  O
  O41      1.0000 0.65120  0.81040  0.75740  Biso   1.000  O
  O42      1.0000 0.70780  0.99840  0.83260  Biso   1.000  O
  O43      1.0000 0.62180  0.82030  0.89260  Biso   1.000  O
  O44      1.0000 0.76160  0.77140  0.85040  Biso   1.000  O
  O45      1.0000 0.56520  0.71560  0.63320  Biso   1.000  O
  O46      1.0000 0.42020  0.62830  0.59970  Biso   1.000  O
  O47      1.0000 0.51770  0.71630  0.50580  Biso   1.000  O
  O48      1.0000 0.54790  0.50160  0.56800  Biso   1.000  O
  Ga13     1.0000 0.96160  0.31832  0.71795  Biso   1.000  Ga
  Ga14     1.0000 0.15029  0.16677  0.67600  Biso   1.000  Ga
  Ga15     1.0000 0.99086  0.34762  0.90772  Biso   1.000  Ga
  P13      1.0000 0.93906  0.62150  0.68396  Biso   1.000  P
  P14      1.0000 0.81614  0.35170  0.83158  Biso   1.000  P
  P15      1.0000 0.98805  0.14210  0.57737  Biso   1.000  P
  F9       1.0000 0.99690  0.41150  0.80480  Biso   1.000  F
  F10      1.0000 0.08010  0.33080  0.68950  Biso   1.000  F
  O49      1.0000 0.94090  0.47600  0.66070  Biso   1.000  O
  O50      1.0000 0.85630  0.64950  0.72370  Biso   1.000  O
  O51      1.0000 0.01340  0.65390  0.73190  Biso   1.000  O
  O52      1.0000 0.94010  0.70420  0.61430  Biso   1.000  O
  O53      1.0000 0.84880  0.31040  0.75740  Biso   1.000  O
  O54      1.0000 0.79220  0.49840  0.83260  Biso   1.000  O
  O55      1.0000 0.87820  0.32030  0.89260  Biso   1.000  O
  O56      1.0000 0.73840  0.27140  0.85040  Biso   1.000  O
  O57      1.0000 0.93480  0.21560  0.63320  Biso   1.000  O
  O58      1.0000 0.07980  0.12830  0.59970  Biso   1.000  O
  O59      1.0000 0.98230  0.21630  0.50580  Biso   1.000  O
  O60      1.0000 0.95210  0.00160  0.56800  Biso   1.000  O
  Ga16     1.0000 0.53840  0.68168  0.21795  Biso   1.000  Ga
  Ga17     1.0000 0.34971  0.83323  0.17600  Biso   1.000  Ga
  Ga18     1.0000 0.50914  0.65238  0.40772  Biso   1.000  Ga
  P16      1.0000 0.56094  0.37850  0.18396  Biso   1.000  P
  P17      1.0000 0.68386  0.64830  0.33158  Biso   1.000  P
  P18      1.0000 0.51195  0.85790  0.07737  Biso   1.000  P
  F11      1.0000 0.50310  0.58850  0.30480  Biso   1.000  F
  F12      1.0000 0.41990  0.66920  0.18950  Biso   1.000  F
  O61      1.0000 0.55910  0.52400  0.16070  Biso   1.000  O
  O62      1.0000 0.64370  0.35050  0.22370  Biso   1.000  O
  O63      1.0000 0.48660  0.34610  0.23190  Biso   1.000  O
  O64      1.0000 0.55990  0.29580  0.11430  Biso   1.000  O
  O65      1.0000 0.65120  0.68960  0.25740  Biso   1.000  O
  O66      1.0000 0.70780  0.50160  0.33260  Biso   1.000  O
  O67      1.0000 0.62180  0.67970  0.39260  Biso   1.000  O
  O68      1.0000 0.76160  0.72860  0.35040  Biso   1.000  O
  O69      1.0000 0.56520  0.78440  0.13320  Biso   1.000  O
  O70      1.0000 0.42020  0.87170  0.09970  Biso   1.000  O
  O71      1.0000 0.51770  0.78370  0.00580  Biso   1.000  O
  O72      1.0000 0.54790  0.99840  0.06800  Biso   1.000  O
  Ga19     1.0000 0.03840  0.81832  0.78205  Biso   1.000  Ga
  Ga20     1.0000 0.84971  0.66677  0.82400  Biso   1.000  Ga
  Ga21     1.0000 0.00914  0.84762  0.59228  Biso   1.000  Ga
  P19      1.0000 0.06094  0.12150  0.81604  Biso   1.000  P
  P20      1.0000 0.18386  0.85170  0.66842  Biso   1.000  P
  P21      1.0000 0.01195  0.64210  0.92263  Biso   1.000  P
  F13      1.0000 0.00310  0.91150  0.69520  Biso   1.000  F
  F14      1.0000 0.91990  0.83080  0.81050  Biso   1.000  F
  O73      1.0000 0.05910  0.97600  0.83930  Biso   1.000  O
  O74      1.0000 0.14370  0.14950  0.77630  Biso   1.000  O
  O75      1.0000 0.98660  0.15390  0.76810  Biso   1.000  O
  O76      1.0000 0.05990  0.20420  0.88570  Biso   1.000  O
  O77      1.0000 0.15120  0.81040  0.74260  Biso   1.000  O
  O78      1.0000 0.20780  0.99840  0.66740  Biso   1.000  O
  O79      1.0000 0.12180  0.82030  0.60740  Biso   1.000  O
  O80      1.0000 0.26160  0.77140  0.64960  Biso   1.000  O
  O81      1.0000 0.06520  0.71560  0.86680  Biso   1.000  O
  O82      1.0000 0.92020  0.62830  0.90030  Biso   1.000  O
  O83      1.0000 0.01770  0.71630  0.99420  Biso   1.000  O
  O84      1.0000 0.04790  0.50160  0.93200  Biso   1.000  O
  Ga22     1.0000 0.46160  0.18168  0.28205  Biso   1.000  Ga
  Ga23     1.0000 0.65029  0.33323  0.32400  Biso   1.000  Ga
  Ga24     1.0000 0.49086  0.15238  0.09228  Biso   1.000  Ga
  P22      1.0000 0.43906  0.87850  0.31604  Biso   1.000  P
  P23      1.0000 0.31614  0.14830  0.16842  Biso   1.000  P
  P24      1.0000 0.48805  0.35790  0.42263  Biso   1.000  P
  F15      1.0000 0.49690  0.08850  0.19520  Biso   1.000  F
  F16      1.0000 0.58010  0.16920  0.31050  Biso   1.000  F
  O85      1.0000 0.44090  0.02400  0.33930  Biso   1.000  O
  O86      1.0000 0.35630  0.85050  0.27630  Biso   1.000  O
  O87      1.0000 0.51340  0.84610  0.26810  Biso   1.000  O
  O88      1.0000 0.44010  0.79580  0.38570  Biso   1.000  O
  O89      1.0000 0.34880  0.18960  0.24260  Biso   1.000  O
  O90      1.0000 0.29220  0.00160  0.16740  Biso   1.000  O
  O91      1.0000 0.37820  0.17970  0.10740  Biso   1.000  O
  O92      1.0000 0.23840  0.22860  0.14960  Biso   1.000  O
  O93      1.0000 0.43480  0.28440  0.36680  Biso   1.000  O
  O94      1.0000 0.57980  0.37170  0.40030  Biso   1.000  O
  O95      1.0000 0.48230  0.28370  0.49420  Biso   1.000  O
  O96      1.0000 0.45210  0.49840  0.43200  Biso   1.000  O
