data_image0
_cell_length_a       8.9864
_cell_length_b       27.7885
_cell_length_c       10.953
_cell_angle_alpha    90
_cell_angle_beta     99.196
_cell_angle_gamma    90

_symmetry_space_group_name_H-M    "P 1"
_symmetry_int_tables_number       1

loop_
  _symmetry_equiv_pos_as_xyz
  'x, y, z'

loop_
  _atom_site_label
  _atom_site_occupancy
  _atom_site_fract_x
  _atom_site_fract_y
  _atom_site_fract_z
  _atom_site_thermal_displace_type
  _atom_site_B_iso_or_equiv
  _atom_site_type_symbol
  Mo1      1.0000 0.58569  0.64903  0.87405  Biso   1.000  Mo
  O1       1.0000 0.66937  0.18396  0.41340  Biso   1.000  O
  O2       1.0000 0.43090  0.61583  0.90657  Biso   1.000  O
  N1       1.0000 0.37160  0.57232  0.13399  Biso   1.000  N
  C1       1.0000 0.33800  0.52701  0.16040  Biso   1.000  C
  H1       1.0000 0.25140  0.51330  0.11620  Biso   1.000  H
  C2       1.0000 0.42470  0.49932  0.24960  Biso   1.000  C
  H2       1.0000 0.39770  0.46760  0.26210  Biso   1.000  H
  C3       1.0000 0.55240  0.51900  0.32070  Biso   1.000  C
  C4       1.0000 0.58580  0.56648  0.29510  Biso   1.000  C
  H3       1.0000 0.66910  0.58160  0.34060  Biso   1.000  H
  C5       1.0000 0.49530  0.59108  0.20240  Biso   1.000  C
  H4       1.0000 0.52140  0.62260  0.18620  Biso   1.000  H
  C6       1.0000 0.65370  0.49093  0.41620  Biso   1.000  C
  C7       1.0000 0.65020  0.44084  0.41420  Biso   1.000  C
  H5       1.0000 0.58140  0.42470  0.35580  Biso   1.000  H
  C8       1.0000 0.72120  0.33597  0.38930  Biso   1.000  C
  H6       1.0000 0.70470  0.35250  0.31460  Biso   1.000  H
  C9       1.0000 0.71670  0.28610  0.38940  Biso   1.000  C
  H7       1.0000 0.69140  0.26950  0.31520  Biso   1.000  H
  Mo2      1.0000 0.08569  0.14903  0.37405  Biso   1.000  Mo
  O3       1.0000 0.16937  0.68396  0.91340  Biso   1.000  O
  O4       1.0000 0.93090  0.11583  0.40657  Biso   1.000  O
  N2       1.0000 0.87160  0.07232  0.63399  Biso   1.000  N
  C10      1.0000 0.83800  0.02701  0.66040  Biso   1.000  C
  H8       1.0000 0.75140  0.01330  0.61620  Biso   1.000  H
  C11      1.0000 0.92470  0.99932  0.74960  Biso   1.000  C
  H9       1.0000 0.89770  0.96760  0.76210  Biso   1.000  H
  C12      1.0000 0.05240  0.01900  0.82070  Biso   1.000  C
  C13      1.0000 0.08580  0.06648  0.79510  Biso   1.000  C
  H10      1.0000 0.16910  0.08160  0.84060  Biso   1.000  H
  C14      1.0000 0.99530  0.09108  0.70240  Biso   1.000  C
  H11      1.0000 0.02140  0.12260  0.68620  Biso   1.000  H
  C15      1.0000 0.15370  0.99093  0.91620  Biso   1.000  C
  C16      1.0000 0.15020  0.94084  0.91420  Biso   1.000  C
  H12      1.0000 0.08140  0.92470  0.85580  Biso   1.000  H
  C17      1.0000 0.22120  0.83597  0.88930  Biso   1.000  C
  H13      1.0000 0.20470  0.85250  0.81460  Biso   1.000  H
  C18      1.0000 0.21670  0.78610  0.88940  Biso   1.000  C
  H14      1.0000 0.19140  0.76950  0.81520  Biso   1.000  H
  Mo3      1.0000 0.91431  0.64903  0.12595  Biso   1.000  Mo
  O5       1.0000 0.83063  0.18396  0.58660  Biso   1.000  O
  O6       1.0000 0.06910  0.61583  0.09343  Biso   1.000  O
  N3       1.0000 0.12840  0.57232  0.86601  Biso   1.000  N
  C19      1.0000 0.16200  0.52701  0.83960  Biso   1.000  C
  H15      1.0000 0.24860  0.51330  0.88380  Biso   1.000  H
  C20      1.0000 0.07530  0.49932  0.75040  Biso   1.000  C
  H16      1.0000 0.10230  0.46760  0.73790  Biso   1.000  H
  C21      1.0000 0.94760  0.51900  0.67930  Biso   1.000  C
  C22      1.0000 0.91420  0.56648  0.70490  Biso   1.000  C
  H17      1.0000 0.83090  0.58160  0.65940  Biso   1.000  H
  C23      1.0000 0.00470  0.59108  0.79760  Biso   1.000  C
  H18      1.0000 0.97860  0.62260  0.81380  Biso   1.000  H
  C24      1.0000 0.84630  0.49093  0.58380  Biso   1.000  C
  C25      1.0000 0.84980  0.44084  0.58580  Biso   1.000  C
  H19      1.0000 0.91860  0.42470  0.64420  Biso   1.000  H
  C26      1.0000 0.77880  0.33597  0.61070  Biso   1.000  C
  H20      1.0000 0.79530  0.35250  0.68540  Biso   1.000  H
  C27      1.0000 0.78330  0.28610  0.61060  Biso   1.000  C
  H21      1.0000 0.80860  0.26950  0.68480  Biso   1.000  H
  Mo4      1.0000 0.41431  0.14903  0.62595  Biso   1.000  Mo
  O7       1.0000 0.33063  0.68396  0.08660  Biso   1.000  O
  O8       1.0000 0.56910  0.11583  0.59343  Biso   1.000  O
  N4       1.0000 0.62840  0.07232  0.36601  Biso   1.000  N
  C28      1.0000 0.66200  0.02701  0.33960  Biso   1.000  C
  H22      1.0000 0.74860  0.01330  0.38380  Biso   1.000  H
  C29      1.0000 0.57530  0.99932  0.25040  Biso   1.000  C
  H23      1.0000 0.60230  0.96760  0.23790  Biso   1.000  H
  C30      1.0000 0.44760  0.01900  0.17930  Biso   1.000  C
  C31      1.0000 0.41420  0.06648  0.20490  Biso   1.000  C
  H24      1.0000 0.33090  0.08160  0.15940  Biso   1.000  H
  C32      1.0000 0.50470  0.09108  0.29760  Biso   1.000  C
  H25      1.0000 0.47860  0.12260  0.31380  Biso   1.000  H
  C33      1.0000 0.34630  0.99093  0.08380  Biso   1.000  C
  C34      1.0000 0.34980  0.94084  0.08580  Biso   1.000  C
  H26      1.0000 0.41860  0.92470  0.14420  Biso   1.000  H
  C35      1.0000 0.27880  0.83597  0.11070  Biso   1.000  C
  H27      1.0000 0.29530  0.85250  0.18540  Biso   1.000  H
  C36      1.0000 0.28330  0.78610  0.11060  Biso   1.000  C
  H28      1.0000 0.30860  0.76950  0.18480  Biso   1.000  H
  Ni1      1.0000 0.25000  0.61722  0.00000  Biso   1.000  Ni
  Ni2      1.0000 0.75000  0.11722  0.50000  Biso   1.000  Ni
  O9       1.0000 0.75000  0.63799  0.00000  Biso   1.000  O
  O10      1.0000 0.25000  0.13799  0.50000  Biso   1.000  O
  N5       1.0000 0.75000  0.51590  0.50000  Biso   1.000  N
  C37      1.0000 0.75000  0.41499  0.50000  Biso   1.000  C
  C38      1.0000 0.75000  0.36161  0.50000  Biso   1.000  C
  C39      1.0000 0.75000  0.26070  0.50000  Biso   1.000  C
  C40      1.0000 0.75000  0.20669  0.50000  Biso   1.000  C
  N6       1.0000 0.25000  0.01590  0.00000  Biso   1.000  N
  C41      1.0000 0.25000  0.91499  0.00000  Biso   1.000  C
  C42      1.0000 0.25000  0.86161  0.00000  Biso   1.000  C
  C43      1.0000 0.25000  0.76070  0.00000  Biso   1.000  C
  C44      1.0000 0.25000  0.70669  0.00000  Biso   1.000  C
  Mo5      1.0000 0.41431  0.35097  0.12595  Biso   1.000  Mo
  O11      1.0000 0.33063  0.81604  0.58660  Biso   1.000  O
  O12      1.0000 0.56910  0.38417  0.09343  Biso   1.000  O
  N7       1.0000 0.62840  0.42768  0.86601  Biso   1.000  N
  C45      1.0000 0.66200  0.47299  0.83960  Biso   1.000  C
  H29      1.0000 0.74860  0.48670  0.88380  Biso   1.000  H
  C46      1.0000 0.57530  0.50068  0.75040  Biso   1.000  C
  H30      1.0000 0.60230  0.53240  0.73790  Biso   1.000  H
  C47      1.0000 0.44760  0.48100  0.67930  Biso   1.000  C
  C48      1.0000 0.41420  0.43352  0.70490  Biso   1.000  C
  H31      1.0000 0.33090  0.41840  0.65940  Biso   1.000  H
  C49      1.0000 0.50470  0.40892  0.79760  Biso   1.000  C
  H32      1.0000 0.47860  0.37740  0.81380  Biso   1.000  H
  C50      1.0000 0.34630  0.50907  0.58380  Biso   1.000  C
  C51      1.0000 0.34980  0.55916  0.58580  Biso   1.000  C
  H33      1.0000 0.41860  0.57530  0.64420  Biso   1.000  H
  C52      1.0000 0.27880  0.66403  0.61070  Biso   1.000  C
  H34      1.0000 0.29530  0.64750  0.68540  Biso   1.000  H
  C53      1.0000 0.28330  0.71390  0.61060  Biso   1.000  C
  H35      1.0000 0.30860  0.73050  0.68480  Biso   1.000  H
  Mo6      1.0000 0.91431  0.85097  0.62595  Biso   1.000  Mo
  O13      1.0000 0.83063  0.31604  0.08660  Biso   1.000  O
  O14      1.0000 0.06910  0.88417  0.59343  Biso   1.000  O
  N8       1.0000 0.12840  0.92768  0.36601  Biso   1.000  N
  C54      1.0000 0.16200  0.97299  0.33960  Biso   1.000  C
  H36      1.0000 0.24860  0.98670  0.38380  Biso   1.000  H
  C55      1.0000 0.07530  0.00068  0.25040  Biso   1.000  C
  H37      1.0000 0.10230  0.03240  0.23790  Biso   1.000  H
  C56      1.0000 0.94760  0.98100  0.17930  Biso   1.000  C
  C57      1.0000 0.91420  0.93352  0.20490  Biso   1.000  C
  H38      1.0000 0.83090  0.91840  0.15940  Biso   1.000  H
  C58      1.0000 0.00470  0.90892  0.29760  Biso   1.000  C
  H39      1.0000 0.97860  0.87740  0.31380  Biso   1.000  H
  C59      1.0000 0.84630  0.00907  0.08380  Biso   1.000  C
  C60      1.0000 0.84980  0.05916  0.08580  Biso   1.000  C
  H40      1.0000 0.91860  0.07530  0.14420  Biso   1.000  H
  C61      1.0000 0.77880  0.16403  0.11070  Biso   1.000  C
  H41      1.0000 0.79530  0.14750  0.18540  Biso   1.000  H
  C62      1.0000 0.78330  0.21390  0.11060  Biso   1.000  C
  H42      1.0000 0.80860  0.23050  0.18480  Biso   1.000  H
  Mo7      1.0000 0.08569  0.35097  0.87405  Biso   1.000  Mo
  O15      1.0000 0.16937  0.81604  0.41340  Biso   1.000  O
  O16      1.0000 0.93090  0.38417  0.90657  Biso   1.000  O
  N9       1.0000 0.87160  0.42768  0.13399  Biso   1.000  N
  C63      1.0000 0.83800  0.47299  0.16040  Biso   1.000  C
  H43      1.0000 0.75140  0.48670  0.11620  Biso   1.000  H
  C64      1.0000 0.92470  0.50068  0.24960  Biso   1.000  C
  H44      1.0000 0.89770  0.53240  0.26210  Biso   1.000  H
  C65      1.0000 0.05240  0.48100  0.32070  Biso   1.000  C
  C66      1.0000 0.08580  0.43352  0.29510  Biso   1.000  C
  H45      1.0000 0.16910  0.41840  0.34060  Biso   1.000  H
  C67      1.0000 0.99530  0.40892  0.20240  Biso   1.000  C
  H46      1.0000 0.02140  0.37740  0.18620  Biso   1.000  H
  C68      1.0000 0.15370  0.50907  0.41620  Biso   1.000  C
  C69      1.0000 0.15020  0.55916  0.41420  Biso   1.000  C
  H47      1.0000 0.08140  0.57530  0.35580  Biso   1.000  H
  C70      1.0000 0.22120  0.66403  0.38930  Biso   1.000  C
  H48      1.0000 0.20470  0.64750  0.31460  Biso   1.000  H
  C71      1.0000 0.21670  0.71390  0.38940  Biso   1.000  C
  H49      1.0000 0.19140  0.73050  0.31520  Biso   1.000  H
  Mo8      1.0000 0.58569  0.85097  0.37405  Biso   1.000  Mo
  O17      1.0000 0.66937  0.31604  0.91340  Biso   1.000  O
  O18      1.0000 0.43090  0.88417  0.40657  Biso   1.000  O
  N10      1.0000 0.37160  0.92768  0.63399  Biso   1.000  N
  C72      1.0000 0.33800  0.97299  0.66040  Biso   1.000  C
  H50      1.0000 0.25140  0.98670  0.61620  Biso   1.000  H
  C73      1.0000 0.42470  0.00068  0.74960  Biso   1.000  C
  H51      1.0000 0.39770  0.03240  0.76210  Biso   1.000  H
  C74      1.0000 0.55240  0.98100  0.82070  Biso   1.000  C
  C75      1.0000 0.58580  0.93352  0.79510  Biso   1.000  C
  H52      1.0000 0.66910  0.91840  0.84060  Biso   1.000  H
  C76      1.0000 0.49530  0.90892  0.70240  Biso   1.000  C
  H53      1.0000 0.52140  0.87740  0.68620  Biso   1.000  H
  C77      1.0000 0.65370  0.00907  0.91620  Biso   1.000  C
  C78      1.0000 0.65020  0.05916  0.91420  Biso   1.000  C
  H54      1.0000 0.58140  0.07530  0.85580  Biso   1.000  H
  C79      1.0000 0.72120  0.16403  0.88930  Biso   1.000  C
  H55      1.0000 0.70470  0.14750  0.81460  Biso   1.000  H
  C80      1.0000 0.71670  0.21390  0.88940  Biso   1.000  C
  H56      1.0000 0.69140  0.23050  0.81520  Biso   1.000  H
  Ni3      1.0000 0.75000  0.38278  0.00000  Biso   1.000  Ni
  Ni4      1.0000 0.25000  0.88278  0.50000  Biso   1.000  Ni
  O19      1.0000 0.25000  0.36201  0.00000  Biso   1.000  O
  O20      1.0000 0.75000  0.86201  0.50000  Biso   1.000  O
  N11      1.0000 0.25000  0.48410  0.50000  Biso   1.000  N
  C81      1.0000 0.25000  0.58501  0.50000  Biso   1.000  C
  C82      1.0000 0.25000  0.63839  0.50000  Biso   1.000  C
  C83      1.0000 0.25000  0.73930  0.50000  Biso   1.000  C
  C84      1.0000 0.25000  0.79331  0.50000  Biso   1.000  C
  N12      1.0000 0.75000  0.98410  0.00000  Biso   1.000  N
  C85      1.0000 0.75000  0.08501  0.00000  Biso   1.000  C
  C86      1.0000 0.75000  0.13839  0.00000  Biso   1.000  C
  C87      1.0000 0.75000  0.23930  0.00000  Biso   1.000  C
  C88      1.0000 0.75000  0.29331  0.00000  Biso   1.000  C
