data_INIQUR_clean
_audit_creation_date              2014-07-02
_audit_creation_method            'Materials Studio'
_symmetry_space_group_name_H-M    'P1'
_symmetry_Int_Tables_number       1
_symmetry_cell_setting            triclinic
loop_
_symmetry_equiv_pos_as_xyz
  x,y,z
_cell_length_a                    14.0216
_cell_length_b                    14.0216
_cell_length_c                    16.6810
_cell_angle_alpha                 80.9310
_cell_angle_beta                  80.9310
_cell_angle_gamma                 61.5274
loop_
_atom_site_label
_atom_site_type_symbol
_atom_site_fract_x
_atom_site_fract_y
_atom_site_fract_z
_atom_site_U_iso_or_equiv
_atom_site_adp_type
_atom_site_occupancy
Fe1    Fe    0.83852   0.78084   0.41854   0.01267  Uiso   1.00
Fe2    Fe    0.21916   0.16148   0.08146   0.01267  Uiso   1.00
Fe3    Fe    0.16148   0.21916   0.58146   0.01267  Uiso   1.00
Fe4    Fe    0.78084   0.83852   0.91854   0.01267  Uiso   1.00
Ni1    Ni    0.95421   0.59069   0.69327   0.01267  Uiso   1.00
Ni2    Ni    0.40931   0.04579   0.80673   0.01267  Uiso   1.00
Ni3    Ni    0.04579   0.40931   0.30673   0.01267  Uiso   1.00
Ni4    Ni    0.59069   0.95421   0.19327   0.01267  Uiso   1.00
Ni5    Ni    0.10595   0.89405   0.25000   0.01267  Uiso   1.00
Ni6    Ni    0.89405   0.10595   0.75000   0.01267  Uiso   1.00
H1     H     0.07630   0.66950   0.71790   0.01267  Uiso   1.00
H2     H     0.13470   0.59430   0.64800   0.01267  Uiso   1.00
H3     H     0.21970   0.54570   0.77360   0.01267  Uiso   1.00
H4     H     0.22500   0.45340   0.72980   0.01267  Uiso   1.00
H5     H     0.19520   0.42980   0.86060   0.01267  Uiso   1.00
H6     H     0.09070   0.54130   0.85960   0.01267  Uiso   1.00
H7     H     0.05550   0.40570   0.89580   0.01267  Uiso   1.00
H8     H     0.10920   0.35940   0.81260   0.01267  Uiso   1.00
H9     H     0.92260   0.52160   0.85770   0.01267  Uiso   1.00
H10    H     0.89590   0.43330   0.88250   0.01267  Uiso   1.00
H11    H     0.94690   0.37030   0.80550   0.01267  Uiso   1.00
H12    H     0.75850   0.52810   0.83890   0.01267  Uiso   1.00
H13    H     0.79330   0.41550   0.80960   0.01267  Uiso   1.00
H14    H     0.68400   0.57940   0.72970   0.01267  Uiso   1.00
H15    H     0.77120   0.47840   0.68680   0.01267  Uiso   1.00
H16    H     0.75370   0.67430   0.67550   0.01267  Uiso   1.00
H17    H     0.81650   0.58470   0.61590   0.01267  Uiso   1.00
H18    H     0.22180   0.93100   0.32970   0.01267  Uiso   1.00
H19    H     0.17500   0.86220   0.38770   0.01267  Uiso   1.00
H20    H     0.14060   0.04440   0.39490   0.01267  Uiso   1.00
H21    H     0.08470   0.97970   0.44700   0.01267  Uiso   1.00
H22    H     0.00780   0.15620   0.36980   0.01267  Uiso   1.00
H23    H     0.95160   0.09420   0.42560   0.01267  Uiso   1.00
H24    H     0.86360   0.11620   0.34100   0.01267  Uiso   1.00
H25    H     0.91750   0.18090   0.28610   0.01267  Uiso   1.00
H26    H     0.33050   0.92370   0.78210   0.01267  Uiso   1.00
H27    H     0.40570   0.86530   0.85200   0.01267  Uiso   1.00
H28    H     0.45430   0.78030   0.72640   0.01267  Uiso   1.00
H29    H     0.54660   0.77500   0.77020   0.01267  Uiso   1.00
H30    H     0.57020   0.80480   0.63940   0.01267  Uiso   1.00
H31    H     0.45870   0.90930   0.64040   0.01267  Uiso   1.00
H32    H     0.59430   0.94450   0.60420   0.01267  Uiso   1.00
H33    H     0.64060   0.89080   0.68740   0.01267  Uiso   1.00
H34    H     0.47840   0.07740   0.64230   0.01267  Uiso   1.00
H35    H     0.56670   0.10410   0.61750   0.01267  Uiso   1.00
H36    H     0.62970   0.05310   0.69450   0.01267  Uiso   1.00
H37    H     0.47190   0.24150   0.66110   0.01267  Uiso   1.00
H38    H     0.58450   0.20670   0.69040   0.01267  Uiso   1.00
H39    H     0.42060   0.31600   0.77030   0.01267  Uiso   1.00
H40    H     0.52160   0.22880   0.81320   0.01267  Uiso   1.00
H41    H     0.32570   0.24630   0.82450   0.01267  Uiso   1.00
H42    H     0.41530   0.18350   0.88410   0.01267  Uiso   1.00
H43    H     0.06900   0.77820   0.17030   0.01267  Uiso   1.00
H44    H     0.13780   0.82500   0.11230   0.01267  Uiso   1.00
H45    H     0.95560   0.85940   0.10510   0.01267  Uiso   1.00
H46    H     0.02030   0.91530   0.05300   0.01267  Uiso   1.00
H47    H     0.84380   0.99220   0.13020   0.01267  Uiso   1.00
H48    H     0.90580   0.04840   0.07440   0.01267  Uiso   1.00
H49    H     0.88380   0.13640   0.15900   0.01267  Uiso   1.00
H50    H     0.81910   0.08250   0.21390   0.01267  Uiso   1.00
H51    H     0.92370   0.33050   0.28210   0.01267  Uiso   1.00
H52    H     0.86530   0.40570   0.35200   0.01267  Uiso   1.00
H53    H     0.78030   0.45430   0.22640   0.01267  Uiso   1.00
H54    H     0.77500   0.54660   0.27020   0.01267  Uiso   1.00
H55    H     0.80480   0.57020   0.13940   0.01267  Uiso   1.00
H56    H     0.90930   0.45870   0.14040   0.01267  Uiso   1.00
H57    H     0.94450   0.59430   0.10420   0.01267  Uiso   1.00
H58    H     0.89080   0.64060   0.18740   0.01267  Uiso   1.00
H59    H     0.07740   0.47840   0.14230   0.01267  Uiso   1.00
H60    H     0.10410   0.56670   0.11750   0.01267  Uiso   1.00
H61    H     0.05310   0.62970   0.19450   0.01267  Uiso   1.00
H62    H     0.24150   0.47190   0.16110   0.01267  Uiso   1.00
H63    H     0.20670   0.58450   0.19040   0.01267  Uiso   1.00
H64    H     0.31600   0.42060   0.27030   0.01267  Uiso   1.00
H65    H     0.22880   0.52160   0.31320   0.01267  Uiso   1.00
H66    H     0.24630   0.32570   0.32450   0.01267  Uiso   1.00
H67    H     0.18350   0.41530   0.38410   0.01267  Uiso   1.00
H68    H     0.77820   0.06900   0.67030   0.01267  Uiso   1.00
H69    H     0.82500   0.13780   0.61230   0.01267  Uiso   1.00
H70    H     0.85940   0.95560   0.60510   0.01267  Uiso   1.00
H71    H     0.91530   0.02030   0.55300   0.01267  Uiso   1.00
H72    H     0.99220   0.84380   0.63020   0.01267  Uiso   1.00
H73    H     0.04840   0.90580   0.57440   0.01267  Uiso   1.00
H74    H     0.13640   0.88380   0.65900   0.01267  Uiso   1.00
H75    H     0.08250   0.81910   0.71390   0.01267  Uiso   1.00
H76    H     0.66950   0.07630   0.21790   0.01267  Uiso   1.00
H77    H     0.59430   0.13470   0.14800   0.01267  Uiso   1.00
H78    H     0.54570   0.21970   0.27360   0.01267  Uiso   1.00
H79    H     0.45340   0.22500   0.22980   0.01267  Uiso   1.00
H80    H     0.42980   0.19520   0.36060   0.01267  Uiso   1.00
H81    H     0.54130   0.09070   0.35960   0.01267  Uiso   1.00
H82    H     0.40570   0.05550   0.39580   0.01267  Uiso   1.00
H83    H     0.35940   0.10920   0.31260   0.01267  Uiso   1.00
H84    H     0.52160   0.92260   0.35770   0.01267  Uiso   1.00
H85    H     0.43330   0.89590   0.38250   0.01267  Uiso   1.00
H86    H     0.37030   0.94690   0.30550   0.01267  Uiso   1.00
H87    H     0.52810   0.75850   0.33890   0.01267  Uiso   1.00
H88    H     0.41550   0.79330   0.30960   0.01267  Uiso   1.00
H89    H     0.57940   0.68400   0.22970   0.01267  Uiso   1.00
H90    H     0.47840   0.77120   0.18680   0.01267  Uiso   1.00
H91    H     0.67430   0.75370   0.17550   0.01267  Uiso   1.00
H92    H     0.58470   0.81650   0.11590   0.01267  Uiso   1.00
H93    H     0.93100   0.22180   0.82970   0.01267  Uiso   1.00
H94    H     0.86220   0.17500   0.88770   0.01267  Uiso   1.00
H95    H     0.04440   0.14060   0.89490   0.01267  Uiso   1.00
H96    H     0.97970   0.08470   0.94700   0.01267  Uiso   1.00
H97    H     0.15620   0.00780   0.86980   0.01267  Uiso   1.00
H98    H     0.09420   0.95160   0.92560   0.01267  Uiso   1.00
H99    H     0.11620   0.86360   0.84100   0.01267  Uiso   1.00
H100   H     0.18090   0.91750   0.78610   0.01267  Uiso   1.00
C1     C     0.90140   0.72880   0.52120   0.01267  Uiso   1.00
C2     C     0.95850   0.80230   0.36560   0.01267  Uiso   1.00
C3     C     0.91480   0.63440   0.38720   0.01267  Uiso   1.00
C4     C     0.76520   0.93040   0.44550   0.01267  Uiso   1.00
C5     C     0.71660   0.75500   0.46510   0.01267  Uiso   1.00
C6     C     0.77150   0.83290   0.31830   0.01267  Uiso   1.00
C7     C     0.17500   0.51500   0.75800   0.01267  Uiso   1.00
C8     C     0.14100   0.48100   0.82700   0.01267  Uiso   1.00
C9     C     0.07200   0.43200   0.83900   0.01267  Uiso   1.00
C10    C     0.89530   0.44330   0.81800   0.01267  Uiso   1.00
C11    C     0.79400   0.48600   0.79900   0.01267  Uiso   1.00
C12    C     0.76160   0.53560   0.72200   0.01267  Uiso   1.00
C13    C     0.08860   0.01860   0.39100   0.01267  Uiso   1.00
C14    C     0.99270   0.09470   0.37430   0.01267  Uiso   1.00
C15    C     0.93630   0.10870   0.31010   0.01267  Uiso   1.00
C16    C     0.27120   0.09860   0.97880   0.01267  Uiso   1.00
C17    C     0.19770   0.04150   0.13440   0.01267  Uiso   1.00
C18    C     0.36560   0.08520   0.11280   0.01267  Uiso   1.00
C19    C     0.06960   0.23480   0.05450   0.01267  Uiso   1.00
C20    C     0.24500   0.28340   0.03490   0.01267  Uiso   1.00
C21    C     0.16710   0.22850   0.18170   0.01267  Uiso   1.00
C22    C     0.48500   0.82500   0.74200   0.01267  Uiso   1.00
C23    C     0.51900   0.85900   0.67300   0.01267  Uiso   1.00
C24    C     0.56800   0.92800   0.66100   0.01267  Uiso   1.00
C25    C     0.55670   0.10470   0.68200   0.01267  Uiso   1.00
C26    C     0.51400   0.20600   0.70100   0.01267  Uiso   1.00
C27    C     0.46440   0.23840   0.77800   0.01267  Uiso   1.00
C28    C     0.98140   0.91140   0.10900   0.01267  Uiso   1.00
C29    C     0.90530   0.00730   0.12570   0.01267  Uiso   1.00
C30    C     0.89130   0.06370   0.18990   0.01267  Uiso   1.00
C31    C     0.09860   0.27120   0.47880   0.01267  Uiso   1.00
C32    C     0.04150   0.19770   0.63440   0.01267  Uiso   1.00
C33    C     0.08520   0.36560   0.61280   0.01267  Uiso   1.00
C34    C     0.23480   0.06960   0.55450   0.01267  Uiso   1.00
C35    C     0.28340   0.24500   0.53490   0.01267  Uiso   1.00
C36    C     0.22850   0.16710   0.68170   0.01267  Uiso   1.00
C37    C     0.82500   0.48500   0.24200   0.01267  Uiso   1.00
C38    C     0.85900   0.51900   0.17300   0.01267  Uiso   1.00
C39    C     0.92800   0.56800   0.16100   0.01267  Uiso   1.00
C40    C     0.10470   0.55670   0.18200   0.01267  Uiso   1.00
C41    C     0.20600   0.51400   0.20100   0.01267  Uiso   1.00
C42    C     0.23840   0.46440   0.27800   0.01267  Uiso   1.00
C43    C     0.91140   0.98140   0.60900   0.01267  Uiso   1.00
C44    C     0.00730   0.90530   0.62570   0.01267  Uiso   1.00
C45    C     0.06370   0.89130   0.68990   0.01267  Uiso   1.00
C46    C     0.72880   0.90140   0.02120   0.01267  Uiso   1.00
C47    C     0.80230   0.95850   0.86560   0.01267  Uiso   1.00
C48    C     0.63440   0.91480   0.88720   0.01267  Uiso   1.00
C49    C     0.93040   0.76520   0.94550   0.01267  Uiso   1.00
C50    C     0.75500   0.71660   0.96510   0.01267  Uiso   1.00
C51    C     0.83290   0.77150   0.81830   0.01267  Uiso   1.00
C52    C     0.51500   0.17500   0.25800   0.01267  Uiso   1.00
C53    C     0.48100   0.14100   0.32700   0.01267  Uiso   1.00
C54    C     0.43200   0.07200   0.33900   0.01267  Uiso   1.00
C55    C     0.44330   0.89530   0.31800   0.01267  Uiso   1.00
C56    C     0.48600   0.79400   0.29900   0.01267  Uiso   1.00
C57    C     0.53560   0.76160   0.22200   0.01267  Uiso   1.00
C58    C     0.01860   0.08860   0.89100   0.01267  Uiso   1.00
C59    C     0.09470   0.99270   0.87430   0.01267  Uiso   1.00
C60    C     0.10870   0.93630   0.81010   0.01267  Uiso   1.00
N1     N     0.93620   0.69160   0.58280   0.01267  Uiso   1.00
N2     N     0.02770   0.81890   0.32900   0.01267  Uiso   1.00
N3     N     0.96100   0.54780   0.36660   0.01267  Uiso   1.00
N4     N     0.72370   0.02090   0.45750   0.01267  Uiso   1.00
N5     N     0.64690   0.73350   0.49000   0.01267  Uiso   1.00
N6     N     0.72460   0.86700   0.26060   0.01267  Uiso   1.00
N7     N     0.09840   0.59660   0.70030   0.01267  Uiso   1.00
N8     N     0.96910   0.48830   0.80480   0.01267  Uiso   1.00
N9     N     0.80750   0.59850   0.67240   0.01267  Uiso   1.00
N10    N     0.15600   0.92740   0.34940   0.01267  Uiso   1.00
N11    N     0.30840   0.06380   0.91720   0.01267  Uiso   1.00
N12    N     0.18110   0.97230   0.17100   0.01267  Uiso   1.00
N13    N     0.45220   0.03900   0.13340   0.01267  Uiso   1.00
N14    N     0.97910   0.27630   0.04250   0.01267  Uiso   1.00
N15    N     0.26650   0.35310   0.01000   0.01267  Uiso   1.00
N16    N     0.13300   0.27540   0.23940   0.01267  Uiso   1.00
N17    N     0.40340   0.90160   0.79970   0.01267  Uiso   1.00
N18    N     0.51170   0.03090   0.69520   0.01267  Uiso   1.00
N19    N     0.40150   0.19250   0.82760   0.01267  Uiso   1.00
N20    N     0.07260   0.84400   0.15060   0.01267  Uiso   1.00
N21    N     0.06380   0.30840   0.41720   0.01267  Uiso   1.00
N22    N     0.97230   0.18110   0.67100   0.01267  Uiso   1.00
N23    N     0.03900   0.45220   0.63340   0.01267  Uiso   1.00
N24    N     0.27630   0.97910   0.54250   0.01267  Uiso   1.00
N25    N     0.35310   0.26650   0.51000   0.01267  Uiso   1.00
N26    N     0.27540   0.13300   0.73940   0.01267  Uiso   1.00
N27    N     0.90160   0.40340   0.29970   0.01267  Uiso   1.00
N28    N     0.03090   0.51170   0.19520   0.01267  Uiso   1.00
N29    N     0.19250   0.40150   0.32760   0.01267  Uiso   1.00
N30    N     0.84400   0.07260   0.65060   0.01267  Uiso   1.00
N31    N     0.69160   0.93620   0.08280   0.01267  Uiso   1.00
N32    N     0.81890   0.02770   0.82900   0.01267  Uiso   1.00
N33    N     0.54780   0.96100   0.86660   0.01267  Uiso   1.00
N34    N     0.02090   0.72370   0.95750   0.01267  Uiso   1.00
N35    N     0.73350   0.64690   0.99000   0.01267  Uiso   1.00
N36    N     0.86700   0.72460   0.76060   0.01267  Uiso   1.00
N37    N     0.59660   0.09840   0.20030   0.01267  Uiso   1.00
N38    N     0.48830   0.96910   0.30480   0.01267  Uiso   1.00
N39    N     0.59850   0.80750   0.17240   0.01267  Uiso   1.00
N40    N     0.92740   0.15600   0.84940   0.01267  Uiso   1.00
N41    N     0.95840   0.04160   0.25000   0.01267  Uiso   1.00
N42    N     0.04160   0.95840   0.75000   0.01267  Uiso   1.00
