data_image0
_cell_length_a       9.0008
_cell_length_b       27.8944
_cell_length_c       10.9798
_cell_angle_alpha    90
_cell_angle_beta     98.694
_cell_angle_gamma    90

_symmetry_space_group_name_H-M    "P 1"
_symmetry_int_tables_number       1

loop_
  _symmetry_equiv_pos_as_xyz
  'x, y, z'

loop_
  _atom_site_label
  _atom_site_occupancy
  _atom_site_fract_x
  _atom_site_fract_y
  _atom_site_fract_z
  _atom_site_thermal_displace_type
  _atom_site_B_iso_or_equiv
  _atom_site_type_symbol
  Mo1      1.0000 0.41250  0.35110  0.62619  Biso   1.000  Mo
  C1       1.0000 0.65830  0.47334  0.33740  Biso   1.000  C
  H1       1.0000 0.74350  0.48705  0.38260  Biso   1.000  H
  C2       1.0000 0.57240  0.50131  0.24910  Biso   1.000  C
  H2       1.0000 0.59870  0.53307  0.23770  Biso   1.000  H
  C3       1.0000 0.44630  0.48144  0.17760  Biso   1.000  C
  C4       1.0000 0.41470  0.43385  0.20120  Biso   1.000  C
  H3       1.0000 0.33250  0.41876  0.15540  Biso   1.000  H
  C5       1.0000 0.50490  0.40911  0.29220  Biso   1.000  C
  H4       1.0000 0.48020  0.37744  0.30660  Biso   1.000  H
  C6       1.0000 0.34570  0.50964  0.08330  Biso   1.000  C
  C7       1.0000 0.34950  0.55956  0.08520  Biso   1.000  C
  H5       1.0000 0.41800  0.57559  0.14300  Biso   1.000  H
  C8       1.0000 0.27900  0.66388  0.11090  Biso   1.000  C
  H6       1.0000 0.29550  0.64732  0.18520  Biso   1.000  H
  C9       1.0000 0.28320  0.71342  0.11060  Biso   1.000  C
  H7       1.0000 0.30830  0.72996  0.18440  Biso   1.000  H
  N1       1.0000 0.62640  0.42797  0.36160  Biso   1.000  N
  O1       1.0000 0.16790  0.81507  0.91501  Biso   1.000  O
  O2       1.0000 0.56680  0.38462  0.59370  Biso   1.000  O
  Mo2      1.0000 0.91250  0.85110  0.12619  Biso   1.000  Mo
  C10      1.0000 0.15830  0.97334  0.83740  Biso   1.000  C
  H8       1.0000 0.24350  0.98705  0.88260  Biso   1.000  H
  C11      1.0000 0.07240  0.00131  0.74910  Biso   1.000  C
  H9       1.0000 0.09870  0.03307  0.73770  Biso   1.000  H
  C12      1.0000 0.94630  0.98144  0.67760  Biso   1.000  C
  C13      1.0000 0.91470  0.93385  0.70120  Biso   1.000  C
  H10      1.0000 0.83250  0.91876  0.65540  Biso   1.000  H
  C14      1.0000 0.00490  0.90911  0.79220  Biso   1.000  C
  H11      1.0000 0.98020  0.87744  0.80660  Biso   1.000  H
  C15      1.0000 0.84570  0.00964  0.58330  Biso   1.000  C
  C16      1.0000 0.84950  0.05956  0.58520  Biso   1.000  C
  H12      1.0000 0.91800  0.07559  0.64300  Biso   1.000  H
  C17      1.0000 0.77900  0.16388  0.61090  Biso   1.000  C
  H13      1.0000 0.79550  0.14732  0.68520  Biso   1.000  H
  C18      1.0000 0.78320  0.21342  0.61060  Biso   1.000  C
  H14      1.0000 0.80830  0.22996  0.68440  Biso   1.000  H
  N2       1.0000 0.12640  0.92797  0.86160  Biso   1.000  N
  O3       1.0000 0.66790  0.31507  0.41501  Biso   1.000  O
  O4       1.0000 0.06680  0.88462  0.09370  Biso   1.000  O
  Mo3      1.0000 0.08750  0.35110  0.37381  Biso   1.000  Mo
  C19      1.0000 0.84170  0.47334  0.66260  Biso   1.000  C
  H15      1.0000 0.75650  0.48705  0.61740  Biso   1.000  H
  C20      1.0000 0.92760  0.50131  0.75090  Biso   1.000  C
  H16      1.0000 0.90130  0.53307  0.76230  Biso   1.000  H
  C21      1.0000 0.05370  0.48144  0.82240  Biso   1.000  C
  C22      1.0000 0.08530  0.43385  0.79880  Biso   1.000  C
  H17      1.0000 0.16750  0.41876  0.84460  Biso   1.000  H
  C23      1.0000 0.99510  0.40911  0.70780  Biso   1.000  C
  H18      1.0000 0.01980  0.37744  0.69340  Biso   1.000  H
  C24      1.0000 0.15430  0.50964  0.91670  Biso   1.000  C
  C25      1.0000 0.15050  0.55956  0.91480  Biso   1.000  C
  H19      1.0000 0.08200  0.57559  0.85700  Biso   1.000  H
  C26      1.0000 0.22100  0.66388  0.88910  Biso   1.000  C
  H20      1.0000 0.20450  0.64732  0.81480  Biso   1.000  H
  C27      1.0000 0.21680  0.71342  0.88940  Biso   1.000  C
  H21      1.0000 0.19170  0.72996  0.81560  Biso   1.000  H
  N3       1.0000 0.87360  0.42797  0.63840  Biso   1.000  N
  O5       1.0000 0.33210  0.81507  0.08499  Biso   1.000  O
  O6       1.0000 0.93320  0.38462  0.40630  Biso   1.000  O
  Mo4      1.0000 0.58750  0.85110  0.87381  Biso   1.000  Mo
  C28      1.0000 0.34170  0.97334  0.16260  Biso   1.000  C
  H22      1.0000 0.25650  0.98705  0.11740  Biso   1.000  H
  C29      1.0000 0.42760  0.00131  0.25090  Biso   1.000  C
  H23      1.0000 0.40130  0.03307  0.26230  Biso   1.000  H
  C30      1.0000 0.55370  0.98144  0.32240  Biso   1.000  C
  C31      1.0000 0.58530  0.93385  0.29880  Biso   1.000  C
  H24      1.0000 0.66750  0.91876  0.34460  Biso   1.000  H
  C32      1.0000 0.49510  0.90911  0.20780  Biso   1.000  C
  H25      1.0000 0.51980  0.87744  0.19340  Biso   1.000  H
  C33      1.0000 0.65430  0.00964  0.41670  Biso   1.000  C
  C34      1.0000 0.65050  0.05956  0.41480  Biso   1.000  C
  H26      1.0000 0.58200  0.07559  0.35700  Biso   1.000  H
  C35      1.0000 0.72100  0.16388  0.38910  Biso   1.000  C
  H27      1.0000 0.70450  0.14732  0.31480  Biso   1.000  H
  C36      1.0000 0.71680  0.21342  0.38940  Biso   1.000  C
  H28      1.0000 0.69170  0.22996  0.31560  Biso   1.000  H
  N4       1.0000 0.37360  0.92797  0.13840  Biso   1.000  N
  O7       1.0000 0.83210  0.31507  0.58499  Biso   1.000  O
  O8       1.0000 0.43320  0.88462  0.90630  Biso   1.000  O
  Co1      1.0000 0.75000  0.38332  0.50000  Biso   1.000  Co
  Co2      1.0000 0.25000  0.88332  0.00000  Biso   1.000  Co
  C37      1.0000 0.25000  0.58532  0.00000  Biso   1.000  C
  C38      1.0000 0.25000  0.63855  0.00000  Biso   1.000  C
  C39      1.0000 0.25000  0.73880  0.00000  Biso   1.000  C
  C40      1.0000 0.25000  0.79274  0.00000  Biso   1.000  C
  N5       1.0000 0.25000  0.48461  0.00000  Biso   1.000  N
  C41      1.0000 0.75000  0.08532  0.50000  Biso   1.000  C
  C42      1.0000 0.75000  0.13855  0.50000  Biso   1.000  C
  C43      1.0000 0.75000  0.23880  0.50000  Biso   1.000  C
  C44      1.0000 0.75000  0.29274  0.50000  Biso   1.000  C
  N6       1.0000 0.75000  0.98461  0.50000  Biso   1.000  N
  O9       1.0000 0.25000  0.36112  0.50000  Biso   1.000  O
  O10      1.0000 0.75000  0.86112  0.00000  Biso   1.000  O
  Mo5      1.0000 0.58750  0.64890  0.37381  Biso   1.000  Mo
  C45      1.0000 0.34170  0.52666  0.66260  Biso   1.000  C
  H29      1.0000 0.25650  0.51295  0.61740  Biso   1.000  H
  C46      1.0000 0.42760  0.49869  0.75090  Biso   1.000  C
  H30      1.0000 0.40130  0.46693  0.76230  Biso   1.000  H
  C47      1.0000 0.55370  0.51856  0.82240  Biso   1.000  C
  C48      1.0000 0.58530  0.56615  0.79880  Biso   1.000  C
  H31      1.0000 0.66750  0.58124  0.84460  Biso   1.000  H
  C49      1.0000 0.49510  0.59089  0.70780  Biso   1.000  C
  H32      1.0000 0.51980  0.62256  0.69340  Biso   1.000  H
  C50      1.0000 0.65430  0.49036  0.91670  Biso   1.000  C
  C51      1.0000 0.65050  0.44044  0.91480  Biso   1.000  C
  H33      1.0000 0.58200  0.42441  0.85700  Biso   1.000  H
  C52      1.0000 0.72100  0.33612  0.88910  Biso   1.000  C
  H34      1.0000 0.70450  0.35268  0.81480  Biso   1.000  H
  C53      1.0000 0.71680  0.28658  0.88940  Biso   1.000  C
  H35      1.0000 0.69170  0.27004  0.81560  Biso   1.000  H
  N7       1.0000 0.37360  0.57203  0.63840  Biso   1.000  N
  O11      1.0000 0.83210  0.18493  0.08499  Biso   1.000  O
  O12      1.0000 0.43320  0.61538  0.40630  Biso   1.000  O
  Mo6      1.0000 0.08750  0.14890  0.87381  Biso   1.000  Mo
  C54      1.0000 0.84170  0.02666  0.16260  Biso   1.000  C
  H36      1.0000 0.75650  0.01295  0.11740  Biso   1.000  H
  C55      1.0000 0.92760  0.99869  0.25090  Biso   1.000  C
  H37      1.0000 0.90130  0.96693  0.26230  Biso   1.000  H
  C56      1.0000 0.05370  0.01856  0.32240  Biso   1.000  C
  C57      1.0000 0.08530  0.06615  0.29880  Biso   1.000  C
  H38      1.0000 0.16750  0.08124  0.34460  Biso   1.000  H
  C58      1.0000 0.99510  0.09089  0.20780  Biso   1.000  C
  H39      1.0000 0.01980  0.12256  0.19340  Biso   1.000  H
  C59      1.0000 0.15430  0.99036  0.41670  Biso   1.000  C
  C60      1.0000 0.15050  0.94044  0.41480  Biso   1.000  C
  H40      1.0000 0.08200  0.92441  0.35700  Biso   1.000  H
  C61      1.0000 0.22100  0.83612  0.38910  Biso   1.000  C
  H41      1.0000 0.20450  0.85268  0.31480  Biso   1.000  H
  C62      1.0000 0.21680  0.78658  0.38940  Biso   1.000  C
  H42      1.0000 0.19170  0.77004  0.31560  Biso   1.000  H
  N8       1.0000 0.87360  0.07203  0.13840  Biso   1.000  N
  O13      1.0000 0.33210  0.68493  0.58499  Biso   1.000  O
  O14      1.0000 0.93320  0.11538  0.90630  Biso   1.000  O
  Mo7      1.0000 0.91250  0.64890  0.62619  Biso   1.000  Mo
  C63      1.0000 0.15830  0.52666  0.33740  Biso   1.000  C
  H43      1.0000 0.24350  0.51295  0.38260  Biso   1.000  H
  C64      1.0000 0.07240  0.49869  0.24910  Biso   1.000  C
  H44      1.0000 0.09870  0.46693  0.23770  Biso   1.000  H
  C65      1.0000 0.94630  0.51856  0.17760  Biso   1.000  C
  C66      1.0000 0.91470  0.56615  0.20120  Biso   1.000  C
  H45      1.0000 0.83250  0.58124  0.15540  Biso   1.000  H
  C67      1.0000 0.00490  0.59089  0.29220  Biso   1.000  C
  H46      1.0000 0.98020  0.62256  0.30660  Biso   1.000  H
  C68      1.0000 0.84570  0.49036  0.08330  Biso   1.000  C
  C69      1.0000 0.84950  0.44044  0.08520  Biso   1.000  C
  H47      1.0000 0.91800  0.42441  0.14300  Biso   1.000  H
  C70      1.0000 0.77900  0.33612  0.11090  Biso   1.000  C
  H48      1.0000 0.79550  0.35268  0.18520  Biso   1.000  H
  C71      1.0000 0.78320  0.28658  0.11060  Biso   1.000  C
  H49      1.0000 0.80830  0.27004  0.18440  Biso   1.000  H
  N9       1.0000 0.12640  0.57203  0.36160  Biso   1.000  N
  O15      1.0000 0.66790  0.18493  0.91501  Biso   1.000  O
  O16      1.0000 0.06680  0.61538  0.59370  Biso   1.000  O
  Mo8      1.0000 0.41250  0.14890  0.12619  Biso   1.000  Mo
  C72      1.0000 0.65830  0.02666  0.83740  Biso   1.000  C
  H50      1.0000 0.74350  0.01295  0.88260  Biso   1.000  H
  C73      1.0000 0.57240  0.99869  0.74910  Biso   1.000  C
  H51      1.0000 0.59870  0.96693  0.73770  Biso   1.000  H
  C74      1.0000 0.44630  0.01856  0.67760  Biso   1.000  C
  C75      1.0000 0.41470  0.06615  0.70120  Biso   1.000  C
  H52      1.0000 0.33250  0.08124  0.65540  Biso   1.000  H
  C76      1.0000 0.50490  0.09089  0.79220  Biso   1.000  C
  H53      1.0000 0.48020  0.12256  0.80660  Biso   1.000  H
  C77      1.0000 0.34570  0.99036  0.58330  Biso   1.000  C
  C78      1.0000 0.34950  0.94044  0.58520  Biso   1.000  C
  H54      1.0000 0.41800  0.92441  0.64300  Biso   1.000  H
  C79      1.0000 0.27900  0.83612  0.61090  Biso   1.000  C
  H55      1.0000 0.29550  0.85268  0.68520  Biso   1.000  H
  C80      1.0000 0.28320  0.78658  0.61060  Biso   1.000  C
  H56      1.0000 0.30830  0.77004  0.68440  Biso   1.000  H
  N10      1.0000 0.62640  0.07203  0.86160  Biso   1.000  N
  O17      1.0000 0.16790  0.68493  0.41501  Biso   1.000  O
  O18      1.0000 0.56680  0.11538  0.09370  Biso   1.000  O
  Co3      1.0000 0.25000  0.61668  0.50000  Biso   1.000  Co
  Co4      1.0000 0.75000  0.11668  0.00000  Biso   1.000  Co
  C81      1.0000 0.75000  0.41468  0.00000  Biso   1.000  C
  C82      1.0000 0.75000  0.36145  0.00000  Biso   1.000  C
  C83      1.0000 0.75000  0.26120  0.00000  Biso   1.000  C
  C84      1.0000 0.75000  0.20726  0.00000  Biso   1.000  C
  N11      1.0000 0.75000  0.51539  0.00000  Biso   1.000  N
  C85      1.0000 0.25000  0.91468  0.50000  Biso   1.000  C
  C86      1.0000 0.25000  0.86145  0.50000  Biso   1.000  C
  C87      1.0000 0.25000  0.76120  0.50000  Biso   1.000  C
  C88      1.0000 0.25000  0.70726  0.50000  Biso   1.000  C
  N12      1.0000 0.25000  0.01539  0.50000  Biso   1.000  N
  O19      1.0000 0.75000  0.63888  0.50000  Biso   1.000  O
  O20      1.0000 0.25000  0.13888  0.00000  Biso   1.000  O
