data_INIRAY01_clean
_audit_creation_date              2014-07-02
_audit_creation_method            'Materials Studio'
_symmetry_space_group_name_H-M    'P1'
_symmetry_Int_Tables_number       1
_symmetry_cell_setting            triclinic
loop_
_symmetry_equiv_pos_as_xyz
  x,y,z
_cell_length_a                    13.9337
_cell_length_b                    13.9337
_cell_length_c                    16.5990
_cell_angle_alpha                 80.8041
_cell_angle_beta                  80.8041
_cell_angle_gamma                 61.2540
loop_
_atom_site_label
_atom_site_type_symbol
_atom_site_fract_x
_atom_site_fract_y
_atom_site_fract_z
_atom_site_U_iso_or_equiv
_atom_site_adp_type
_atom_site_occupancy
Co1    Co    0.83751   0.78155   0.41769   0.01267  Uiso   1.00
Co2    Co    0.21845   0.16249   0.08231   0.01267  Uiso   1.00
Co3    Co    0.16249   0.21845   0.58231   0.01267  Uiso   1.00
Co4    Co    0.78155   0.83751   0.91769   0.01267  Uiso   1.00
Ni1    Ni    0.95573   0.59163   0.69169   0.01267  Uiso   1.00
Ni2    Ni    0.40837   0.04427   0.80831   0.01267  Uiso   1.00
Ni3    Ni    0.04427   0.40837   0.30831   0.01267  Uiso   1.00
Ni4    Ni    0.59163   0.95573   0.19169   0.01267  Uiso   1.00
Ni5    Ni    0.10820   0.89180   0.25000   0.01267  Uiso   1.00
Ni6    Ni    0.89180   0.10820   0.75000   0.01267  Uiso   1.00
H1     H     0.13660   0.59180   0.64580   0.01267  Uiso   1.00
H2     H     0.07760   0.66960   0.71490   0.01267  Uiso   1.00
H3     H     0.22840   0.45380   0.72840   0.01267  Uiso   1.00
H4     H     0.22170   0.54910   0.77020   0.01267  Uiso   1.00
H5     H     0.19560   0.43300   0.86150   0.01267  Uiso   1.00
H6     H     0.09050   0.54590   0.85890   0.01267  Uiso   1.00
H7     H     0.10920   0.36400   0.80900   0.01267  Uiso   1.00
H8     H     0.05650   0.40650   0.89420   0.01267  Uiso   1.00
H9     H     0.93120   0.54820   0.84290   0.01267  Uiso   1.00
H10    H     0.94520   0.37300   0.79850   0.01267  Uiso   1.00
H11    H     0.90130   0.42350   0.88180   0.01267  Uiso   1.00
H12    H     0.75480   0.54180   0.83790   0.01267  Uiso   1.00
H13    H     0.77760   0.42680   0.81890   0.01267  Uiso   1.00
H14    H     0.68330   0.57490   0.72350   0.01267  Uiso   1.00
H15    H     0.78070   0.47190   0.68710   0.01267  Uiso   1.00
H16    H     0.81530   0.58710   0.61650   0.01267  Uiso   1.00
H17    H     0.75310   0.67370   0.67940   0.01267  Uiso   1.00
H18    H     0.17440   0.86000   0.38920   0.01267  Uiso   1.00
H19    H     0.22540   0.92580   0.33100   0.01267  Uiso   1.00
H20    H     0.08420   0.98340   0.44690   0.01267  Uiso   1.00
H21    H     0.13880   0.04760   0.39100   0.01267  Uiso   1.00
H22    H     0.94760   0.09520   0.42370   0.01267  Uiso   1.00
H23    H     0.00230   0.15930   0.36760   0.01267  Uiso   1.00
H24    H     0.86280   0.11280   0.33860   0.01267  Uiso   1.00
H25    H     0.91520   0.17960   0.28330   0.01267  Uiso   1.00
H26    H     0.40820   0.86340   0.85420   0.01267  Uiso   1.00
H27    H     0.33040   0.92240   0.78510   0.01267  Uiso   1.00
H28    H     0.54620   0.77160   0.77160   0.01267  Uiso   1.00
H29    H     0.45090   0.77830   0.72980   0.01267  Uiso   1.00
H30    H     0.56700   0.80440   0.63850   0.01267  Uiso   1.00
H31    H     0.45410   0.90950   0.64110   0.01267  Uiso   1.00
H32    H     0.63600   0.89080   0.69100   0.01267  Uiso   1.00
H33    H     0.59350   0.94350   0.60580   0.01267  Uiso   1.00
H34    H     0.45180   0.06880   0.65710   0.01267  Uiso   1.00
H35    H     0.62700   0.05480   0.70150   0.01267  Uiso   1.00
H36    H     0.57650   0.09870   0.61820   0.01267  Uiso   1.00
H37    H     0.45820   0.24520   0.66210   0.01267  Uiso   1.00
H38    H     0.57320   0.22240   0.68110   0.01267  Uiso   1.00
H39    H     0.42510   0.31670   0.77650   0.01267  Uiso   1.00
H40    H     0.52810   0.21930   0.81290   0.01267  Uiso   1.00
H41    H     0.41290   0.18470   0.88350   0.01267  Uiso   1.00
H42    H     0.32630   0.24690   0.82060   0.01267  Uiso   1.00
H43    H     0.14000   0.82560   0.11080   0.01267  Uiso   1.00
H44    H     0.07420   0.77460   0.16900   0.01267  Uiso   1.00
H45    H     0.01660   0.91580   0.05310   0.01267  Uiso   1.00
H46    H     0.95240   0.86120   0.10900   0.01267  Uiso   1.00
H47    H     0.90480   0.05240   0.07630   0.01267  Uiso   1.00
H48    H     0.84070   0.99770   0.13240   0.01267  Uiso   1.00
H49    H     0.88720   0.13720   0.16140   0.01267  Uiso   1.00
H50    H     0.82040   0.08480   0.21670   0.01267  Uiso   1.00
H51    H     0.86340   0.40820   0.35420   0.01267  Uiso   1.00
H52    H     0.92240   0.33040   0.28510   0.01267  Uiso   1.00
H53    H     0.77160   0.54620   0.27160   0.01267  Uiso   1.00
H54    H     0.77830   0.45090   0.22980   0.01267  Uiso   1.00
H55    H     0.80440   0.56700   0.13850   0.01267  Uiso   1.00
H56    H     0.90950   0.45410   0.14110   0.01267  Uiso   1.00
H57    H     0.89080   0.63600   0.19100   0.01267  Uiso   1.00
H58    H     0.94350   0.59350   0.10580   0.01267  Uiso   1.00
H59    H     0.06880   0.45180   0.15710   0.01267  Uiso   1.00
H60    H     0.05480   0.62700   0.20150   0.01267  Uiso   1.00
H61    H     0.09870   0.57650   0.11820   0.01267  Uiso   1.00
H62    H     0.24520   0.45820   0.16210   0.01267  Uiso   1.00
H63    H     0.22240   0.57320   0.18110   0.01267  Uiso   1.00
H64    H     0.31670   0.42510   0.27650   0.01267  Uiso   1.00
H65    H     0.21930   0.52810   0.31290   0.01267  Uiso   1.00
H66    H     0.18470   0.41290   0.38350   0.01267  Uiso   1.00
H67    H     0.24690   0.32630   0.32060   0.01267  Uiso   1.00
H68    H     0.82560   0.14000   0.61080   0.01267  Uiso   1.00
H69    H     0.77460   0.07420   0.66900   0.01267  Uiso   1.00
H70    H     0.91580   0.01660   0.55310   0.01267  Uiso   1.00
H71    H     0.86120   0.95240   0.60900   0.01267  Uiso   1.00
H72    H     0.05240   0.90480   0.57630   0.01267  Uiso   1.00
H73    H     0.99770   0.84070   0.63240   0.01267  Uiso   1.00
H74    H     0.13720   0.88720   0.66140   0.01267  Uiso   1.00
H75    H     0.08480   0.82040   0.71670   0.01267  Uiso   1.00
H76    H     0.59180   0.13660   0.14580   0.01267  Uiso   1.00
H77    H     0.66960   0.07760   0.21490   0.01267  Uiso   1.00
H78    H     0.45380   0.22840   0.22840   0.01267  Uiso   1.00
H79    H     0.54910   0.22170   0.27020   0.01267  Uiso   1.00
H80    H     0.43300   0.19560   0.36150   0.01267  Uiso   1.00
H81    H     0.54590   0.09050   0.35890   0.01267  Uiso   1.00
H82    H     0.36400   0.10920   0.30900   0.01267  Uiso   1.00
H83    H     0.40650   0.05650   0.39420   0.01267  Uiso   1.00
H84    H     0.54820   0.93120   0.34290   0.01267  Uiso   1.00
H85    H     0.37300   0.94520   0.29850   0.01267  Uiso   1.00
H86    H     0.42350   0.90130   0.38180   0.01267  Uiso   1.00
H87    H     0.54180   0.75480   0.33790   0.01267  Uiso   1.00
H88    H     0.42680   0.77760   0.31890   0.01267  Uiso   1.00
H89    H     0.57490   0.68330   0.22350   0.01267  Uiso   1.00
H90    H     0.47190   0.78070   0.18710   0.01267  Uiso   1.00
H91    H     0.58710   0.81530   0.11650   0.01267  Uiso   1.00
H92    H     0.67370   0.75310   0.17940   0.01267  Uiso   1.00
H93    H     0.86000   0.17440   0.88920   0.01267  Uiso   1.00
H94    H     0.92580   0.22540   0.83100   0.01267  Uiso   1.00
H95    H     0.98340   0.08420   0.94690   0.01267  Uiso   1.00
H96    H     0.04760   0.13880   0.89100   0.01267  Uiso   1.00
H97    H     0.09520   0.94760   0.92370   0.01267  Uiso   1.00
H98    H     0.15930   0.00230   0.86760   0.01267  Uiso   1.00
H99    H     0.11280   0.86280   0.83860   0.01267  Uiso   1.00
H100   H     0.17960   0.91520   0.78330   0.01267  Uiso   1.00
C1     C     0.89890   0.73090   0.51910   0.01267  Uiso   1.00
C2     C     0.95750   0.80130   0.36640   0.01267  Uiso   1.00
C3     C     0.91190   0.63610   0.38780   0.01267  Uiso   1.00
C4     C     0.76470   0.93070   0.44450   0.01267  Uiso   1.00
C5     C     0.71620   0.75680   0.46380   0.01267  Uiso   1.00
C6     C     0.77250   0.83290   0.31800   0.01267  Uiso   1.00
C7     C     0.18300   0.51500   0.75600   0.01267  Uiso   1.00
C8     C     0.13800   0.48000   0.83100   0.01267  Uiso   1.00
C9     C     0.07400   0.42600   0.83700   0.01267  Uiso   1.00
C10    C     0.90000   0.44000   0.82200   0.01267  Uiso   1.00
C11    C     0.79100   0.49100   0.80100   0.01267  Uiso   1.00
C12    C     0.75560   0.53560   0.71200   0.01267  Uiso   1.00
C13    C     0.09500   0.01300   0.39100   0.01267  Uiso   1.00
C14    C     0.99300   0.09300   0.37400   0.01267  Uiso   1.00
C15    C     0.93290   0.11090   0.30900   0.01267  Uiso   1.00
C16    C     0.26910   0.10110   0.98090   0.01267  Uiso   1.00
C17    C     0.19870   0.04250   0.13360   0.01267  Uiso   1.00
C18    C     0.36390   0.08810   0.11220   0.01267  Uiso   1.00
C19    C     0.06930   0.23530   0.05550   0.01267  Uiso   1.00
C20    C     0.24320   0.28380   0.03620   0.01267  Uiso   1.00
C21    C     0.16710   0.22750   0.18200   0.01267  Uiso   1.00
C22    C     0.48500   0.81700   0.74400   0.01267  Uiso   1.00
C23    C     0.52000   0.86200   0.66900   0.01267  Uiso   1.00
C24    C     0.57400   0.92600   0.66300   0.01267  Uiso   1.00
C25    C     0.56000   0.10000   0.67800   0.01267  Uiso   1.00
C26    C     0.50900   0.20900   0.69900   0.01267  Uiso   1.00
C27    C     0.46440   0.24440   0.78800   0.01267  Uiso   1.00
C28    C     0.98700   0.90500   0.10900   0.01267  Uiso   1.00
C29    C     0.90700   0.00700   0.12600   0.01267  Uiso   1.00
C30    C     0.88910   0.06710   0.19100   0.01267  Uiso   1.00
C31    C     0.10110   0.26910   0.48090   0.01267  Uiso   1.00
C32    C     0.04250   0.19870   0.63360   0.01267  Uiso   1.00
C33    C     0.08810   0.36390   0.61220   0.01267  Uiso   1.00
C34    C     0.23530   0.06930   0.55550   0.01267  Uiso   1.00
C35    C     0.28380   0.24320   0.53620   0.01267  Uiso   1.00
C36    C     0.22750   0.16710   0.68200   0.01267  Uiso   1.00
C37    C     0.81700   0.48500   0.24400   0.01267  Uiso   1.00
C38    C     0.86200   0.52000   0.16900   0.01267  Uiso   1.00
C39    C     0.92600   0.57400   0.16300   0.01267  Uiso   1.00
C40    C     0.10000   0.56000   0.17800   0.01267  Uiso   1.00
C41    C     0.20900   0.50900   0.19900   0.01267  Uiso   1.00
C42    C     0.24440   0.46440   0.28800   0.01267  Uiso   1.00
C43    C     0.90500   0.98700   0.60900   0.01267  Uiso   1.00
C44    C     0.00700   0.90700   0.62600   0.01267  Uiso   1.00
C45    C     0.06710   0.88910   0.69100   0.01267  Uiso   1.00
C46    C     0.73090   0.89890   0.01910   0.01267  Uiso   1.00
C47    C     0.80130   0.95750   0.86640   0.01267  Uiso   1.00
C48    C     0.63610   0.91190   0.88780   0.01267  Uiso   1.00
C49    C     0.93070   0.76470   0.94450   0.01267  Uiso   1.00
C50    C     0.75680   0.71620   0.96380   0.01267  Uiso   1.00
C51    C     0.83290   0.77250   0.81800   0.01267  Uiso   1.00
C52    C     0.51500   0.18300   0.25600   0.01267  Uiso   1.00
C53    C     0.48000   0.13800   0.33100   0.01267  Uiso   1.00
C54    C     0.42600   0.07400   0.33700   0.01267  Uiso   1.00
C55    C     0.44000   0.90000   0.32200   0.01267  Uiso   1.00
C56    C     0.49100   0.79100   0.30100   0.01267  Uiso   1.00
C57    C     0.53560   0.75560   0.21200   0.01267  Uiso   1.00
C58    C     0.01300   0.09500   0.89100   0.01267  Uiso   1.00
C59    C     0.09300   0.99300   0.87400   0.01267  Uiso   1.00
C60    C     0.11090   0.93290   0.80900   0.01267  Uiso   1.00
N1     N     0.93440   0.69440   0.58050   0.01267  Uiso   1.00
N2     N     0.02860   0.81740   0.32950   0.01267  Uiso   1.00
N3     N     0.95730   0.55050   0.36700   0.01267  Uiso   1.00
N4     N     0.72180   0.02200   0.45690   0.01267  Uiso   1.00
N5     N     0.64390   0.73510   0.48940   0.01267  Uiso   1.00
N6     N     0.72670   0.86810   0.25990   0.01267  Uiso   1.00
N7     N     0.10070   0.59870   0.69770   0.01267  Uiso   1.00
N8     N     0.96770   0.49170   0.80440   0.01267  Uiso   1.00
N9     N     0.80620   0.60080   0.67160   0.01267  Uiso   1.00
N10    N     0.15970   0.92170   0.34950   0.01267  Uiso   1.00
N11    N     0.30560   0.06560   0.91950   0.01267  Uiso   1.00
N12    N     0.18260   0.97140   0.17050   0.01267  Uiso   1.00
N13    N     0.44950   0.04270   0.13300   0.01267  Uiso   1.00
N14    N     0.97800   0.27820   0.04310   0.01267  Uiso   1.00
N15    N     0.26490   0.35610   0.01060   0.01267  Uiso   1.00
N16    N     0.13190   0.27330   0.24010   0.01267  Uiso   1.00
N17    N     0.40130   0.89930   0.80230   0.01267  Uiso   1.00
N18    N     0.50830   0.03230   0.69560   0.01267  Uiso   1.00
N19    N     0.39920   0.19380   0.82840   0.01267  Uiso   1.00
N20    N     0.07830   0.84030   0.15050   0.01267  Uiso   1.00
N21    N     0.06560   0.30560   0.41950   0.01267  Uiso   1.00
N22    N     0.97140   0.18260   0.67050   0.01267  Uiso   1.00
N23    N     0.04270   0.44950   0.63300   0.01267  Uiso   1.00
N24    N     0.27820   0.97800   0.54310   0.01267  Uiso   1.00
N25    N     0.35610   0.26490   0.51060   0.01267  Uiso   1.00
N26    N     0.27330   0.13190   0.74010   0.01267  Uiso   1.00
N27    N     0.89930   0.40130   0.30230   0.01267  Uiso   1.00
N28    N     0.03230   0.50830   0.19560   0.01267  Uiso   1.00
N29    N     0.19380   0.39920   0.32840   0.01267  Uiso   1.00
N30    N     0.84030   0.07830   0.65050   0.01267  Uiso   1.00
N31    N     0.69440   0.93440   0.08050   0.01267  Uiso   1.00
N32    N     0.81740   0.02860   0.82950   0.01267  Uiso   1.00
N33    N     0.55050   0.95730   0.86700   0.01267  Uiso   1.00
N34    N     0.02200   0.72180   0.95690   0.01267  Uiso   1.00
N35    N     0.73510   0.64390   0.98940   0.01267  Uiso   1.00
N36    N     0.86810   0.72670   0.75990   0.01267  Uiso   1.00
N37    N     0.59870   0.10070   0.19770   0.01267  Uiso   1.00
N38    N     0.49170   0.96770   0.30440   0.01267  Uiso   1.00
N39    N     0.60080   0.80620   0.17160   0.01267  Uiso   1.00
N40    N     0.92170   0.15970   0.84950   0.01267  Uiso   1.00
N41    N     0.95870   0.04130   0.25000   0.01267  Uiso   1.00
N42    N     0.04130   0.95870   0.75000   0.01267  Uiso   1.00
