data_image0
_cell_length_a       9.4462
_cell_length_b       9.4462
_cell_length_c       15.759
_cell_angle_alpha    90
_cell_angle_beta     90
_cell_angle_gamma    120

_symmetry_space_group_name_H-M    "P 1"
_symmetry_int_tables_number       1

loop_
  _symmetry_equiv_pos_as_xyz
  'x, y, z'

loop_
  _atom_site_label
  _atom_site_occupancy
  _atom_site_fract_x
  _atom_site_fract_y
  _atom_site_fract_z
  _atom_site_thermal_displace_type
  _atom_site_B_iso_or_equiv
  _atom_site_type_symbol
  P1       1.0000 0.16996  0.38704  0.91915  Biso   1.000  P
  O1       1.0000 0.02190  0.21190  0.93447  Biso   1.000  O
  O2       1.0000 0.18020  0.41550  0.82087  Biso   1.000  O
  O3       1.0000 0.13990  0.51450  0.95844  Biso   1.000  O
  O4       1.0000 0.31830  0.38390  0.95154  Biso   1.000  O
  P2       1.0000 0.61296  0.78292  0.25248  Biso   1.000  P
  O5       1.0000 0.78810  0.81000  0.26780  Biso   1.000  O
  O6       1.0000 0.58450  0.76470  0.15420  Biso   1.000  O
  O7       1.0000 0.48550  0.62540  0.29177  Biso   1.000  O
  O8       1.0000 0.61610  0.93440  0.28487  Biso   1.000  O
  P3       1.0000 0.21708  0.83004  0.58582  Biso   1.000  P
  O9       1.0000 0.19000  0.97810  0.60114  Biso   1.000  O
  O10      1.0000 0.23530  0.81980  0.48754  Biso   1.000  O
  O11      1.0000 0.37460  0.86010  0.62511  Biso   1.000  O
  O12      1.0000 0.06560  0.68170  0.61821  Biso   1.000  O
  P4       1.0000 0.83004  0.61296  0.41915  Biso   1.000  P
  O13      1.0000 0.97810  0.78810  0.43447  Biso   1.000  O
  O14      1.0000 0.81980  0.58450  0.32087  Biso   1.000  O
  O15      1.0000 0.86010  0.48550  0.45844  Biso   1.000  O
  O16      1.0000 0.68170  0.61610  0.45154  Biso   1.000  O
  P5       1.0000 0.38704  0.21708  0.75248  Biso   1.000  P
  O17      1.0000 0.21190  0.19000  0.76780  Biso   1.000  O
  O18      1.0000 0.41550  0.23530  0.65420  Biso   1.000  O
  O19      1.0000 0.51450  0.37460  0.79177  Biso   1.000  O
  O20      1.0000 0.38390  0.06560  0.78487  Biso   1.000  O
  P6       1.0000 0.78292  0.16996  0.08582  Biso   1.000  P
  O21      1.0000 0.81000  0.02190  0.10114  Biso   1.000  O
  O22      1.0000 0.76470  0.18020  0.98754  Biso   1.000  O
  O23      1.0000 0.62540  0.13990  0.12511  Biso   1.000  O
  O24      1.0000 0.93440  0.31830  0.11821  Biso   1.000  O
  P7       1.0000 0.38704  0.16996  0.41418  Biso   1.000  P
  O25      1.0000 0.21190  0.02190  0.39886  Biso   1.000  O
  O26      1.0000 0.41550  0.18020  0.51246  Biso   1.000  O
  O27      1.0000 0.51450  0.13990  0.37489  Biso   1.000  O
  O28      1.0000 0.38390  0.31830  0.38179  Biso   1.000  O
  P8       1.0000 0.78292  0.61296  0.08085  Biso   1.000  P
  O29      1.0000 0.81000  0.78810  0.06553  Biso   1.000  O
  O30      1.0000 0.76470  0.58450  0.17913  Biso   1.000  O
  O31      1.0000 0.62540  0.48550  0.04156  Biso   1.000  O
  O32      1.0000 0.93440  0.61610  0.04846  Biso   1.000  O
  P9       1.0000 0.83004  0.21708  0.74752  Biso   1.000  P
  O33      1.0000 0.97810  0.19000  0.73220  Biso   1.000  O
  O34      1.0000 0.81980  0.23530  0.84580  Biso   1.000  O
  O35      1.0000 0.86010  0.37460  0.70823  Biso   1.000  O
  O36      1.0000 0.68170  0.06560  0.71513  Biso   1.000  O
  P10      1.0000 0.61296  0.83004  0.91418  Biso   1.000  P
  O37      1.0000 0.78810  0.97810  0.89886  Biso   1.000  O
  O38      1.0000 0.58450  0.81980  0.01246  Biso   1.000  O
  O39      1.0000 0.48550  0.86010  0.87489  Biso   1.000  O
  O40      1.0000 0.61610  0.68170  0.88179  Biso   1.000  O
  P11      1.0000 0.21708  0.38704  0.58085  Biso   1.000  P
  O41      1.0000 0.19000  0.21190  0.56553  Biso   1.000  O
  O42      1.0000 0.23530  0.41550  0.67913  Biso   1.000  O
  O43      1.0000 0.37460  0.51450  0.54156  Biso   1.000  O
  O44      1.0000 0.06560  0.38390  0.54846  Biso   1.000  O
  P12      1.0000 0.16996  0.78292  0.24752  Biso   1.000  P
  O45      1.0000 0.02190  0.81000  0.23220  Biso   1.000  O
  O46      1.0000 0.18020  0.76470  0.34580  Biso   1.000  O
  O47      1.0000 0.13990  0.62540  0.20823  Biso   1.000  O
  O48      1.0000 0.31830  0.93440  0.21513  Biso   1.000  O
  Mg1      1.0000 0.55164  0.44836  0.91667  Biso   1.000  Mg
  Mg2      1.0000 0.55164  0.10329  0.25000  Biso   1.000  Mg
  Mg3      1.0000 0.89671  0.44836  0.58333  Biso   1.000  Mg
  Mg4      1.0000 0.44836  0.55164  0.41667  Biso   1.000  Mg
  Mg5      1.0000 0.44836  0.89671  0.75000  Biso   1.000  Mg
  Mg6      1.0000 0.10329  0.55164  0.08333  Biso   1.000  Mg
  B1       1.0000 0.15100  0.30200  0.75000  Biso   1.000  B
  B2       1.0000 0.69800  0.84900  0.08333  Biso   1.000  B
  B3       1.0000 0.15100  0.84900  0.41667  Biso   1.000  B
  B4       1.0000 0.84900  0.69800  0.25000  Biso   1.000  B
  B5       1.0000 0.30200  0.15100  0.58333  Biso   1.000  B
  B6       1.0000 0.84900  0.15100  0.91667  Biso   1.000  B
