data_image0
_cell_length_a       6.5771
_cell_length_b       11.1226
_cell_length_c       18.033
_cell_angle_alpha    90
_cell_angle_beta     97.602
_cell_angle_gamma    90

_symmetry_space_group_name_H-M    "P 1"
_symmetry_int_tables_number       1

loop_
  _symmetry_equiv_pos_as_xyz
  'x, y, z'

loop_
  _atom_site_label
  _atom_site_occupancy
  _atom_site_fract_x
  _atom_site_fract_y
  _atom_site_fract_z
  _atom_site_thermal_displace_type
  _atom_site_B_iso_or_equiv
  _atom_site_type_symbol
  Ca1      1.0000 0.25266  0.90663  0.47691  Biso   1.000  Ca
  S1       1.0000 0.11732  0.19898  0.71174  Biso   1.000  S
  O1       1.0000 0.09550  0.09620  0.55836  Biso   1.000  O
  O2       1.0000 0.42470  0.05675  0.56162  Biso   1.000  O
  O3       1.0000 0.32440  0.32180  0.91011  Biso   1.000  O
  O4       1.0000 0.00590  0.29400  0.85249  Biso   1.000  O
  C1       1.0000 0.19460  0.28590  0.85670  Biso   1.000  C
  C2       1.0000 0.27550  0.09530  0.59173  Biso   1.000  C
  C3       1.0000 0.31340  0.13740  0.66982  Biso   1.000  C
  C4       1.0000 0.49290  0.13720  0.71702  Biso   1.000  C
  H1       1.0000 0.61500  0.10610  0.70440  Biso   1.000  H
  C5       1.0000 0.47410  0.18910  0.78708  Biso   1.000  C
  H2       1.0000 0.58240  0.19600  0.82560  Biso   1.000  H
  C6       1.0000 0.27920  0.22820  0.79229  Biso   1.000  C
  Ca2      1.0000 0.24734  0.40663  0.02309  Biso   1.000  Ca
  S2       1.0000 0.38268  0.69898  0.78826  Biso   1.000  S
  O5       1.0000 0.40450  0.59620  0.94164  Biso   1.000  O
  O6       1.0000 0.07530  0.55675  0.93838  Biso   1.000  O
  O7       1.0000 0.17560  0.82180  0.58989  Biso   1.000  O
  O8       1.0000 0.49410  0.79400  0.64751  Biso   1.000  O
  C7       1.0000 0.30540  0.78590  0.64330  Biso   1.000  C
  C8       1.0000 0.22450  0.59530  0.90827  Biso   1.000  C
  C9       1.0000 0.18660  0.63740  0.83018  Biso   1.000  C
  C10      1.0000 0.00710  0.63720  0.78298  Biso   1.000  C
  H3       1.0000 0.88500  0.60610  0.79560  Biso   1.000  H
  C11      1.0000 0.02590  0.68910  0.71292  Biso   1.000  C
  H4       1.0000 0.91760  0.69600  0.67440  Biso   1.000  H
  C12      1.0000 0.22080  0.72820  0.70771  Biso   1.000  C
  Ca3      1.0000 0.74734  0.09337  0.52309  Biso   1.000  Ca
  S3       1.0000 0.88268  0.80102  0.28826  Biso   1.000  S
  O9       1.0000 0.90450  0.90380  0.44164  Biso   1.000  O
  O10      1.0000 0.57530  0.94325  0.43838  Biso   1.000  O
  O11      1.0000 0.67560  0.67820  0.08989  Biso   1.000  O
  O12      1.0000 0.99410  0.70600  0.14751  Biso   1.000  O
  C13      1.0000 0.80540  0.71410  0.14330  Biso   1.000  C
  C14      1.0000 0.72450  0.90470  0.40827  Biso   1.000  C
  C15      1.0000 0.68660  0.86260  0.33018  Biso   1.000  C
  C16      1.0000 0.50710  0.86280  0.28298  Biso   1.000  C
  H5       1.0000 0.38500  0.89390  0.29560  Biso   1.000  H
  C17      1.0000 0.52590  0.81090  0.21292  Biso   1.000  C
  H6       1.0000 0.41760  0.80400  0.17440  Biso   1.000  H
  C18      1.0000 0.72080  0.77180  0.20771  Biso   1.000  C
  Ca4      1.0000 0.75266  0.59337  0.97691  Biso   1.000  Ca
  S4       1.0000 0.61732  0.30102  0.21174  Biso   1.000  S
  O13      1.0000 0.59550  0.40380  0.05836  Biso   1.000  O
  O14      1.0000 0.92470  0.44325  0.06162  Biso   1.000  O
  O15      1.0000 0.82440  0.17820  0.41011  Biso   1.000  O
  O16      1.0000 0.50590  0.20600  0.35249  Biso   1.000  O
  C19      1.0000 0.69460  0.21410  0.35670  Biso   1.000  C
  C20      1.0000 0.77550  0.40470  0.09173  Biso   1.000  C
  C21      1.0000 0.81340  0.36260  0.16982  Biso   1.000  C
  C22      1.0000 0.99290  0.36280  0.21702  Biso   1.000  C
  H7       1.0000 0.11500  0.39390  0.20440  Biso   1.000  H
  C23      1.0000 0.97410  0.31090  0.28708  Biso   1.000  C
  H8       1.0000 0.08240  0.30400  0.32560  Biso   1.000  H
  C24      1.0000 0.77920  0.27180  0.29229  Biso   1.000  C
