data_image0
_cell_length_a       22.6505
_cell_length_b       11.2352
_cell_length_c       12.7961
_cell_angle_alpha    90
_cell_angle_beta     90
_cell_angle_gamma    90

_symmetry_space_group_name_H-M    "P 1"
_symmetry_int_tables_number       1

loop_
  _symmetry_equiv_pos_as_xyz
  'x, y, z'

loop_
  _atom_site_label
  _atom_site_occupancy
  _atom_site_fract_x
  _atom_site_fract_y
  _atom_site_fract_z
  _atom_site_thermal_displace_type
  _atom_site_B_iso_or_equiv
  _atom_site_type_symbol
  Ca1      1.0000 0.43405  0.62210  0.07690  Biso   1.000  Ca
  Ca2      1.0000 0.50857  0.49376  0.31274  Biso   1.000  Ca
  S1       1.0000 0.50879  0.03255  0.22685  Biso   1.000  S
  S2       1.0000 0.27489  0.48743  0.40768  Biso   1.000  S
  C1       1.0000 0.28300  0.49970  0.20790  Biso   1.000  C
  H1       1.0000 0.29850  0.50280  0.13890  Biso   1.000  H
  C2       1.0000 0.22239  0.50950  0.23170  Biso   1.000  C
  H2       1.0000 0.19250  0.51790  0.18010  Biso   1.000  H
  O1       1.0000 0.48510  0.44930  0.99200  Biso   1.000  O
  O2       1.0000 0.41051  0.49610  0.21700  Biso   1.000  O
  C3       1.0000 0.49555  0.78620  0.23570  Biso   1.000  C
  C4       1.0000 0.38205  0.47350  0.29950  Biso   1.000  C
  O3       1.0000 0.50929  0.29070  0.25280  Biso   1.000  O
  O4       1.0000 0.49504  0.78990  0.13690  Biso   1.000  O
  O5       1.0000 0.48640  0.69480  0.28930  Biso   1.000  O
  O6       1.0000 0.53030  0.52320  0.12960  Biso   1.000  O
  C5       1.0000 0.31680  0.48510  0.29530  Biso   1.000  C
  O7       1.0000 0.40658  0.44330  0.38320  Biso   1.000  O
  O8       1.0000 0.52925  0.29870  0.42280  Biso   1.000  O
  O9       1.0000 0.10931  0.49480  0.32660  Biso   1.000  O
  O10      1.0000 0.14891  0.54850  0.48030  Biso   1.000  O
  C6       1.0000 0.50683  0.89930  0.29300  Biso   1.000  C
  C7       1.0000 0.21089  0.50590  0.33670  Biso   1.000  C
  C8       1.0000 0.52090  0.10960  0.34130  Biso   1.000  C
  C9       1.0000 0.15150  0.51740  0.38610  Biso   1.000  C
  C10      1.0000 0.52340  0.03490  0.42610  Biso   1.000  C
  H3       1.0000 0.53010  0.06120  0.49570  Biso   1.000  H
  C11      1.0000 0.52070  0.24150  0.33810  Biso   1.000  C
  C12      1.0000 0.51480  0.91450  0.39850  Biso   1.000  C
  H4       1.0000 0.51460  0.85100  0.44750  Biso   1.000  H
  C13      1.0000 0.52744  0.44740  0.05660  Biso   1.000  C
  C14      1.0000 0.57420  0.35290  0.04650  Biso   1.000  C
  H5       1.0000 0.61270  0.38640  0.06560  Biso   1.000  H
  H6       1.0000 0.57550  0.32440  0.97410  Biso   1.000  H
  H7       1.0000 0.56480  0.28640  0.09310  Biso   1.000  H
  Ca3      1.0000 0.56595  0.37790  0.57690  Biso   1.000  Ca
  Ca4      1.0000 0.49143  0.50624  0.81274  Biso   1.000  Ca
  S3       1.0000 0.49121  0.96745  0.72685  Biso   1.000  S
  S4       1.0000 0.72511  0.51257  0.90768  Biso   1.000  S
  C15      1.0000 0.71700  0.50030  0.70790  Biso   1.000  C
  H8       1.0000 0.70150  0.49720  0.63890  Biso   1.000  H
  C16      1.0000 0.77761  0.49050  0.73170  Biso   1.000  C
  H9       1.0000 0.80750  0.48210  0.68010  Biso   1.000  H
  O11      1.0000 0.51490  0.55070  0.49200  Biso   1.000  O
  O12      1.0000 0.58949  0.50390  0.71700  Biso   1.000  O
  C17      1.0000 0.50445  0.21380  0.73570  Biso   1.000  C
  C18      1.0000 0.61795  0.52650  0.79950  Biso   1.000  C
  O13      1.0000 0.49071  0.70930  0.75280  Biso   1.000  O
  O14      1.0000 0.50496  0.21010  0.63690  Biso   1.000  O
  O15      1.0000 0.51360  0.30520  0.78930  Biso   1.000  O
  O16      1.0000 0.46970  0.47680  0.62960  Biso   1.000  O
  C19      1.0000 0.68320  0.51490  0.79530  Biso   1.000  C
  O17      1.0000 0.59342  0.55670  0.88320  Biso   1.000  O
  O18      1.0000 0.47075  0.70130  0.92280  Biso   1.000  O
  O19      1.0000 0.89069  0.50520  0.82660  Biso   1.000  O
  O20      1.0000 0.85109  0.45150  0.98030  Biso   1.000  O
  C20      1.0000 0.49317  0.10070  0.79300  Biso   1.000  C
  C21      1.0000 0.78911  0.49410  0.83670  Biso   1.000  C
  C22      1.0000 0.47910  0.89040  0.84130  Biso   1.000  C
  C23      1.0000 0.84850  0.48260  0.88610  Biso   1.000  C
  C24      1.0000 0.47660  0.96510  0.92610  Biso   1.000  C
  H10      1.0000 0.46990  0.93880  0.99570  Biso   1.000  H
  C25      1.0000 0.47930  0.75850  0.83810  Biso   1.000  C
  C26      1.0000 0.48520  0.08550  0.89850  Biso   1.000  C
  H11      1.0000 0.48540  0.14900  0.94750  Biso   1.000  H
  C27      1.0000 0.47256  0.55260  0.55660  Biso   1.000  C
  C28      1.0000 0.42580  0.64710  0.54650  Biso   1.000  C
  H12      1.0000 0.38730  0.61360  0.56560  Biso   1.000  H
  H13      1.0000 0.42450  0.67560  0.47410  Biso   1.000  H
  H14      1.0000 0.43520  0.71360  0.59310  Biso   1.000  H
  Ca5      1.0000 0.93405  0.37790  0.07690  Biso   1.000  Ca
  Ca6      1.0000 0.00857  0.50624  0.31274  Biso   1.000  Ca
  S5       1.0000 0.00879  0.96745  0.22685  Biso   1.000  S
  S6       1.0000 0.77489  0.51257  0.40768  Biso   1.000  S
  C29      1.0000 0.78300  0.50030  0.20790  Biso   1.000  C
  H15      1.0000 0.79850  0.49720  0.13890  Biso   1.000  H
  C30      1.0000 0.72239  0.49050  0.23170  Biso   1.000  C
  H16      1.0000 0.69250  0.48210  0.18010  Biso   1.000  H
  O21      1.0000 0.98510  0.55070  0.99200  Biso   1.000  O
  O22      1.0000 0.91051  0.50390  0.21700  Biso   1.000  O
  C31      1.0000 0.99555  0.21380  0.23570  Biso   1.000  C
  C32      1.0000 0.88205  0.52650  0.29950  Biso   1.000  C
  O23      1.0000 0.00929  0.70930  0.25280  Biso   1.000  O
  O24      1.0000 0.99504  0.21010  0.13690  Biso   1.000  O
  O25      1.0000 0.98640  0.30520  0.28930  Biso   1.000  O
  O26      1.0000 0.03030  0.47680  0.12960  Biso   1.000  O
  C33      1.0000 0.81680  0.51490  0.29530  Biso   1.000  C
  O27      1.0000 0.90658  0.55670  0.38320  Biso   1.000  O
  O28      1.0000 0.02925  0.70130  0.42280  Biso   1.000  O
  O29      1.0000 0.60931  0.50520  0.32660  Biso   1.000  O
  O30      1.0000 0.64891  0.45150  0.48030  Biso   1.000  O
  C34      1.0000 0.00683  0.10070  0.29300  Biso   1.000  C
  C35      1.0000 0.71089  0.49410  0.33670  Biso   1.000  C
  C36      1.0000 0.02090  0.89040  0.34130  Biso   1.000  C
  C37      1.0000 0.65150  0.48260  0.38610  Biso   1.000  C
  C38      1.0000 0.02340  0.96510  0.42610  Biso   1.000  C
  H17      1.0000 0.03010  0.93880  0.49570  Biso   1.000  H
  C39      1.0000 0.02070  0.75850  0.33810  Biso   1.000  C
  C40      1.0000 0.01480  0.08550  0.39850  Biso   1.000  C
  H18      1.0000 0.01460  0.14900  0.44750  Biso   1.000  H
  C41      1.0000 0.02744  0.55260  0.05660  Biso   1.000  C
  C42      1.0000 0.07420  0.64710  0.04650  Biso   1.000  C
  H19      1.0000 0.11270  0.61360  0.06560  Biso   1.000  H
  H20      1.0000 0.07550  0.67560  0.97410  Biso   1.000  H
  H21      1.0000 0.06480  0.71360  0.09310  Biso   1.000  H
  Ca7      1.0000 0.06595  0.62210  0.57690  Biso   1.000  Ca
  Ca8      1.0000 0.99143  0.49376  0.81274  Biso   1.000  Ca
  S7       1.0000 0.99121  0.03255  0.72685  Biso   1.000  S
  S8       1.0000 0.22511  0.48743  0.90768  Biso   1.000  S
  C43      1.0000 0.21700  0.49970  0.70790  Biso   1.000  C
  H22      1.0000 0.20150  0.50280  0.63890  Biso   1.000  H
  C44      1.0000 0.27761  0.50950  0.73170  Biso   1.000  C
  H23      1.0000 0.30750  0.51790  0.68010  Biso   1.000  H
  O31      1.0000 0.01490  0.44930  0.49200  Biso   1.000  O
  O32      1.0000 0.08949  0.49610  0.71700  Biso   1.000  O
  C45      1.0000 0.00445  0.78620  0.73570  Biso   1.000  C
  C46      1.0000 0.11795  0.47350  0.79950  Biso   1.000  C
  O33      1.0000 0.99071  0.29070  0.75280  Biso   1.000  O
  O34      1.0000 0.00496  0.78990  0.63690  Biso   1.000  O
  O35      1.0000 0.01360  0.69480  0.78930  Biso   1.000  O
  O36      1.0000 0.96970  0.52320  0.62960  Biso   1.000  O
  C47      1.0000 0.18320  0.48510  0.79530  Biso   1.000  C
  O37      1.0000 0.09342  0.44330  0.88320  Biso   1.000  O
  O38      1.0000 0.97075  0.29870  0.92280  Biso   1.000  O
  O39      1.0000 0.39069  0.49480  0.82660  Biso   1.000  O
  O40      1.0000 0.35109  0.54850  0.98030  Biso   1.000  O
  C48      1.0000 0.99317  0.89930  0.79300  Biso   1.000  C
  C49      1.0000 0.28911  0.50590  0.83670  Biso   1.000  C
  C50      1.0000 0.97910  0.10960  0.84130  Biso   1.000  C
  C51      1.0000 0.34850  0.51740  0.88610  Biso   1.000  C
  C52      1.0000 0.97660  0.03490  0.92610  Biso   1.000  C
  H24      1.0000 0.96990  0.06120  0.99570  Biso   1.000  H
  C53      1.0000 0.97930  0.24150  0.83810  Biso   1.000  C
  C54      1.0000 0.98520  0.91450  0.89850  Biso   1.000  C
  H25      1.0000 0.98540  0.85100  0.94750  Biso   1.000  H
  C55      1.0000 0.97256  0.44740  0.55660  Biso   1.000  C
  C56      1.0000 0.92580  0.35290  0.54650  Biso   1.000  C
  H26      1.0000 0.88730  0.38640  0.56560  Biso   1.000  H
  H27      1.0000 0.92450  0.32440  0.47410  Biso   1.000  H
  H28      1.0000 0.93520  0.28640  0.59310  Biso   1.000  H
