data_INOVEN_clean
_audit_creation_date              2014-07-02
_audit_creation_method            'Materials Studio'
_symmetry_space_group_name_H-M    'P1'
_symmetry_Int_Tables_number       1
_symmetry_cell_setting            triclinic
loop_
_symmetry_equiv_pos_as_xyz
  x,y,z
_cell_length_a                    13.6159
_cell_length_b                    14.4797
_cell_length_c                    16.0372
_cell_angle_alpha                 116.8360
_cell_angle_beta                  96.2340
_cell_angle_gamma                 90.0000
loop_
_atom_site_label
_atom_site_type_symbol
_atom_site_fract_x
_atom_site_fract_y
_atom_site_fract_z
_atom_site_U_iso_or_equiv
_atom_site_adp_type
_atom_site_occupancy
Gd1    Gd    0.46562   0.39205   0.36620   0.01267  Uiso   1.00
Gd2    Gd    0.03438   0.02585   0.63380   0.01267  Uiso   1.00
Gd3    Gd    0.53438   0.60795   0.63380   0.01267  Uiso   1.00
Gd4    Gd    0.96562   0.97415   0.36620   0.01267  Uiso   1.00
H1     H     0.90640   0.12650   0.93880   0.01267  Uiso   1.00
H2     H     0.95570   0.36800   0.88900   0.01267  Uiso   1.00
H3     H     0.92600   0.70270   0.31720   0.01267  Uiso   1.00
H4     H     0.78300   0.73350   0.53320   0.01267  Uiso   1.00
H5     H     0.90340   0.47910   0.03020   0.01267  Uiso   1.00
H6     H     0.73020   0.48120   0.28540   0.01267  Uiso   1.00
H7     H     0.85180   0.24000   0.08040   0.01267  Uiso   1.00
H8     H     0.59360   0.18770   0.06120   0.01267  Uiso   1.00
H9     H     0.54430   0.47900   0.11100   0.01267  Uiso   1.00
H10    H     0.57400   0.38550   0.68280   0.01267  Uiso   1.00
H11    H     0.71700   0.20030   0.46680   0.01267  Uiso   1.00
H12    H     0.59660   0.44890   0.96980   0.01267  Uiso   1.00
H13    H     0.76980   0.19580   0.71460   0.01267  Uiso   1.00
H14    H     0.64820   0.15960   0.91960   0.01267  Uiso   1.00
H15    H     0.09360   0.87350   0.06120   0.01267  Uiso   1.00
H16    H     0.04430   0.63200   0.11100   0.01267  Uiso   1.00
H17    H     0.07400   0.29730   0.68280   0.01267  Uiso   1.00
H18    H     0.21700   0.26650   0.46680   0.01267  Uiso   1.00
H19    H     0.09660   0.52090   0.96980   0.01267  Uiso   1.00
H20    H     0.26980   0.51880   0.71460   0.01267  Uiso   1.00
H21    H     0.14820   0.76000   0.91960   0.01267  Uiso   1.00
H22    H     0.40640   0.81230   0.93880   0.01267  Uiso   1.00
H23    H     0.45570   0.52100   0.88900   0.01267  Uiso   1.00
H24    H     0.42600   0.61450   0.31720   0.01267  Uiso   1.00
H25    H     0.28300   0.79970   0.53320   0.01267  Uiso   1.00
H26    H     0.40340   0.55110   0.03020   0.01267  Uiso   1.00
H27    H     0.23020   0.80420   0.28540   0.01267  Uiso   1.00
H28    H     0.35180   0.84040   0.08040   0.01267  Uiso   1.00
C1     C     0.66610   0.56080   0.45200   0.01267  Uiso   1.00
C2     C     0.97310   0.16480   0.80740   0.01267  Uiso   1.00
C3     C     0.93590   0.23810   0.89860   0.01267  Uiso   1.00
C4     C     0.90540   0.19710   0.95660   0.01267  Uiso   1.00
C5     C     0.93480   0.34140   0.92760   0.01267  Uiso   1.00
C6     C     0.91690   0.83790   0.49520   0.01267  Uiso   1.00
C7     C     0.86190   0.73530   0.43360   0.01267  Uiso   1.00
C8     C     0.88100   0.67720   0.34240   0.01267  Uiso   1.00
C9     C     0.79410   0.69600   0.47060   0.01267  Uiso   1.00
C10    C     0.74340   0.60150   0.41440   0.01267  Uiso   1.00
C11    C     0.83360   0.58180   0.28880   0.01267  Uiso   1.00
C12    C     0.87400   0.36950   0.06860   0.01267  Uiso   1.00
C13    C     0.90390   0.40830   0.01200   0.01267  Uiso   1.00
C14    C     0.76380   0.54490   0.32360   0.01267  Uiso   1.00
C15    C     0.87370   0.26560   0.04140   0.01267  Uiso   1.00
C16    C     0.83390   0.10880   0.54800   0.01267  Uiso   1.00
C17    C     0.52690   0.35740   0.19260   0.01267  Uiso   1.00
C18    C     0.56410   0.33950   0.10140   0.01267  Uiso   1.00
C19    C     0.59460   0.24050   0.04340   0.01267  Uiso   1.00
C20    C     0.56520   0.41380   0.07240   0.01267  Uiso   1.00
C21    C     0.58310   0.34270   0.50480   0.01267  Uiso   1.00
C22    C     0.63810   0.30170   0.56640   0.01267  Uiso   1.00
C23    C     0.61900   0.33480   0.65760   0.01267  Uiso   1.00
C24    C     0.70590   0.22540   0.52940   0.01267  Uiso   1.00
C25    C     0.75660   0.18710   0.58560   0.01267  Uiso   1.00
C26    C     0.66640   0.29300   0.71120   0.01267  Uiso   1.00
C27    C     0.62600   0.30090   0.93140   0.01267  Uiso   1.00
C28    C     0.59610   0.39630   0.98800   0.01267  Uiso   1.00
C29    C     0.73620   0.22130   0.67640   0.01267  Uiso   1.00
C30    C     0.62630   0.22420   0.95860   0.01267  Uiso   1.00
C31    C     0.33390   0.43920   0.54800   0.01267  Uiso   1.00
C32    C     0.02690   0.83520   0.19260   0.01267  Uiso   1.00
C33    C     0.06410   0.76190   0.10140   0.01267  Uiso   1.00
C34    C     0.09460   0.80290   0.04340   0.01267  Uiso   1.00
C35    C     0.06520   0.65860   0.07240   0.01267  Uiso   1.00
C36    C     0.08310   0.16210   0.50480   0.01267  Uiso   1.00
C37    C     0.13810   0.26470   0.56640   0.01267  Uiso   1.00
C38    C     0.11900   0.32280   0.65760   0.01267  Uiso   1.00
C39    C     0.20590   0.30400   0.52940   0.01267  Uiso   1.00
C40    C     0.25660   0.39850   0.58560   0.01267  Uiso   1.00
C41    C     0.16640   0.41820   0.71120   0.01267  Uiso   1.00
C42    C     0.12600   0.63050   0.93140   0.01267  Uiso   1.00
C43    C     0.09610   0.59170   0.98800   0.01267  Uiso   1.00
C44    C     0.23620   0.45510   0.67640   0.01267  Uiso   1.00
C45    C     0.12630   0.73440   0.95860   0.01267  Uiso   1.00
C46    C     0.16610   0.89120   0.45200   0.01267  Uiso   1.00
C47    C     0.47310   0.64260   0.80740   0.01267  Uiso   1.00
C48    C     0.43590   0.66050   0.89860   0.01267  Uiso   1.00
C49    C     0.40540   0.75950   0.95660   0.01267  Uiso   1.00
C50    C     0.43480   0.58620   0.92760   0.01267  Uiso   1.00
C51    C     0.41690   0.65730   0.49520   0.01267  Uiso   1.00
C52    C     0.36190   0.69830   0.43360   0.01267  Uiso   1.00
C53    C     0.38100   0.66520   0.34240   0.01267  Uiso   1.00
C54    C     0.29410   0.77460   0.47060   0.01267  Uiso   1.00
C55    C     0.24340   0.81290   0.41440   0.01267  Uiso   1.00
C56    C     0.33360   0.70700   0.28880   0.01267  Uiso   1.00
C57    C     0.37400   0.69910   0.06860   0.01267  Uiso   1.00
C58    C     0.40390   0.60370   0.01200   0.01267  Uiso   1.00
C59    C     0.26380   0.77870   0.32360   0.01267  Uiso   1.00
C60    C     0.37370   0.77580   0.04140   0.01267  Uiso   1.00
N1     N     0.86280   0.52460   0.19500   0.01267  Uiso   1.00
N2     N     0.84420   0.43040   0.16180   0.01267  Uiso   1.00
N3     N     0.63720   0.32960   0.80500   0.01267  Uiso   1.00
N4     N     0.65580   0.26860   0.83820   0.01267  Uiso   1.00
N5     N     0.13720   0.47540   0.80500   0.01267  Uiso   1.00
N6     N     0.15580   0.56960   0.83820   0.01267  Uiso   1.00
N7     N     0.36280   0.67040   0.19500   0.01267  Uiso   1.00
N8     N     0.34420   0.73140   0.16180   0.01267  Uiso   1.00
O1     O     0.62630   0.47370   0.39900   0.01267  Uiso   1.00
O2     O     0.64850   0.61671   0.53362   0.01267  Uiso   1.00
O3     O     0.96400   0.06940   0.78040   0.01267  Uiso   1.00
O4     O     0.01240   0.20310   0.76220   0.01267  Uiso   1.00
O5     O     0.93000   0.86871   0.58262   0.01267  Uiso   1.00
O6     O     0.95030   0.89010   0.45860   0.01267  Uiso   1.00
O7     O     0.87370   0.07470   0.60100   0.01267  Uiso   1.00
O8     O     0.85150   0.08309   0.46638   0.01267  Uiso   1.00
O9     O     0.53600   0.28900   0.21960   0.01267  Uiso   1.00
O10    O     0.48760   0.44090   0.23780   0.01267  Uiso   1.00
O11    O     0.57000   0.28609   0.41738   0.01267  Uiso   1.00
O12    O     0.54970   0.43150   0.54140   0.01267  Uiso   1.00
O13    O     0.37370   0.52630   0.60100   0.01267  Uiso   1.00
O14    O     0.35150   0.38329   0.46638   0.01267  Uiso   1.00
O15    O     0.03600   0.93060   0.21960   0.01267  Uiso   1.00
O16    O     0.98760   0.79690   0.23780   0.01267  Uiso   1.00
O17    O     0.07000   0.13129   0.41738   0.01267  Uiso   1.00
O18    O     0.04970   0.10990   0.54140   0.01267  Uiso   1.00
O19    O     0.12630   0.92530   0.39900   0.01267  Uiso   1.00
O20    O     0.14850   0.91691   0.53362   0.01267  Uiso   1.00
O21    O     0.46400   0.71100   0.78040   0.01267  Uiso   1.00
O22    O     0.51240   0.55910   0.76220   0.01267  Uiso   1.00
O23    O     0.43000   0.71391   0.58262   0.01267  Uiso   1.00
O24    O     0.45030   0.56850   0.45860   0.01267  Uiso   1.00
