data_IPIFAP_clean
_audit_creation_date              2014-07-02
_audit_creation_method            'Materials Studio'
_symmetry_space_group_name_H-M    'P1'
_symmetry_Int_Tables_number       1
_symmetry_cell_setting            triclinic
loop_
_symmetry_equiv_pos_as_xyz
  x,y,z
_cell_length_a                    11.3460
_cell_length_b                    11.7590
_cell_length_c                    11.9630
_cell_angle_alpha                 119.4370
_cell_angle_beta                  90.0000
_cell_angle_gamma                 90.0000
loop_
_atom_site_label
_atom_site_type_symbol
_atom_site_fract_x
_atom_site_fract_y
_atom_site_fract_z
_atom_site_U_iso_or_equiv
_atom_site_adp_type
_atom_site_occupancy
Ag1    Ag    0.52492   0.14113   0.49262   0.01267  Uiso   1.00
Ag2    Ag    0.02492   0.85887   0.50738   0.01267  Uiso   1.00
Ag3    Ag    0.02492   0.35149   0.49262   0.01267  Uiso   1.00
Ag4    Ag    0.52492   0.64851   0.50738   0.01267  Uiso   1.00
Ag5    Ag    0.70176   0.17392   0.00000   0.01267  Uiso   1.00
Ag6    Ag    0.20176   0.82608   1.00000   0.01267  Uiso   1.00
H1     H     0.81880   0.08680   0.57140   0.01267  Uiso   1.00
H2     H     0.77510   0.95780   0.45180   0.01267  Uiso   1.00
H3     H     0.58120   0.87090   0.45720   0.01267  Uiso   1.00
H4     H     0.50250   0.94510   0.58020   0.01267  Uiso   1.00
H5     H     0.57120   0.14210   0.76020   0.01267  Uiso   1.00
H6     H     0.69560   0.19850   0.75660   0.01267  Uiso   1.00
H7     H     0.66640   0.87120   0.78100   0.01267  Uiso   1.00
H8     H     0.55350   0.94520   0.77480   0.01267  Uiso   1.00
H9     H     0.86200   0.95780   0.77500   0.01267  Uiso   1.00
H10    H     0.87260   0.08640   0.76660   0.01267  Uiso   1.00
H11    H     0.79250   0.75930   0.59280   0.01267  Uiso   1.00
H12    H     0.75840   0.75820   0.46520   0.01267  Uiso   1.00
H13    H     0.31880   0.91320   0.42860   0.01267  Uiso   1.00
H14    H     0.27510   0.04220   0.54820   0.01267  Uiso   1.00
H15    H     0.08120   0.12910   0.54280   0.01267  Uiso   1.00
H16    H     0.00250   0.05490   0.41980   0.01267  Uiso   1.00
H17    H     0.07120   0.85790   0.23980   0.01267  Uiso   1.00
H18    H     0.19560   0.80150   0.24340   0.01267  Uiso   1.00
H19    H     0.16640   0.12880   0.21900   0.01267  Uiso   1.00
H20    H     0.05350   0.05480   0.22520   0.01267  Uiso   1.00
H21    H     0.36200   0.04220   0.22500   0.01267  Uiso   1.00
H22    H     0.37260   0.91360   0.23340   0.01267  Uiso   1.00
H23    H     0.29250   0.24070   0.40720   0.01267  Uiso   1.00
H24    H     0.25840   0.24180   0.53480   0.01267  Uiso   1.00
H25    H     0.31880   0.48460   0.57140   0.01267  Uiso   1.00
H26    H     0.27510   0.49400   0.45180   0.01267  Uiso   1.00
H27    H     0.08120   0.58630   0.45720   0.01267  Uiso   1.00
H28    H     0.00250   0.63510   0.58020   0.01267  Uiso   1.00
H29    H     0.07120   0.61810   0.76020   0.01267  Uiso   1.00
H30    H     0.19560   0.55810   0.75660   0.01267  Uiso   1.00
H31    H     0.16640   0.90980   0.78100   0.01267  Uiso   1.00
H32    H     0.05350   0.82960   0.77480   0.01267  Uiso   1.00
H33    H     0.36200   0.81720   0.77500   0.01267  Uiso   1.00
H34    H     0.37260   0.68020   0.76660   0.01267  Uiso   1.00
H35    H     0.29250   0.83350   0.59280   0.01267  Uiso   1.00
H36    H     0.25840   0.70700   0.46520   0.01267  Uiso   1.00
H37    H     0.81880   0.51540   0.42860   0.01267  Uiso   1.00
H38    H     0.77510   0.50600   0.54820   0.01267  Uiso   1.00
H39    H     0.58120   0.41370   0.54280   0.01267  Uiso   1.00
H40    H     0.50250   0.36490   0.41980   0.01267  Uiso   1.00
H41    H     0.57120   0.38190   0.23980   0.01267  Uiso   1.00
H42    H     0.69560   0.44190   0.24340   0.01267  Uiso   1.00
H43    H     0.66640   0.09020   0.21900   0.01267  Uiso   1.00
H44    H     0.55350   0.17040   0.22520   0.01267  Uiso   1.00
H45    H     0.86200   0.18280   0.22500   0.01267  Uiso   1.00
H46    H     0.87260   0.31980   0.23340   0.01267  Uiso   1.00
H47    H     0.79250   0.16650   0.40720   0.01267  Uiso   1.00
H48    H     0.75840   0.29300   0.53480   0.01267  Uiso   1.00
C1     C     0.77360   0.00760   0.54480   0.01267  Uiso   1.00
C2     C     0.58300   0.92231   0.55022   0.01267  Uiso   1.00
C3     C     0.65140   0.11854   0.72948   0.01267  Uiso   1.00
C4     C     0.63390   0.92197   0.74434   0.01267  Uiso   1.00
C5     C     0.82640   0.00768   0.73896   0.01267  Uiso   1.00
C6     C     0.75760   0.81058   0.55796   0.01267  Uiso   1.00
C7     C     0.27360   0.99240   0.45520   0.01267  Uiso   1.00
C8     C     0.08300   0.07769   0.44978   0.01267  Uiso   1.00
C9     C     0.15140   0.88146   0.27052   0.01267  Uiso   1.00
C10    C     0.13390   0.07803   0.25566   0.01267  Uiso   1.00
C11    C     0.32640   0.99232   0.26104   0.01267  Uiso   1.00
C12    C     0.25760   0.18942   0.44204   0.01267  Uiso   1.00
C13    C     0.27360   0.53720   0.54480   0.01267  Uiso   1.00
C14    C     0.08300   0.62791   0.55022   0.01267  Uiso   1.00
C15    C     0.15140   0.61094   0.72948   0.01267  Uiso   1.00
C16    C     0.13390   0.82237   0.74434   0.01267  Uiso   1.00
C17    C     0.32640   0.73128   0.73896   0.01267  Uiso   1.00
C18    C     0.25760   0.74738   0.55796   0.01267  Uiso   1.00
C19    C     0.77360   0.46280   0.45520   0.01267  Uiso   1.00
C20    C     0.58300   0.37209   0.44978   0.01267  Uiso   1.00
C21    C     0.65140   0.38906   0.27052   0.01267  Uiso   1.00
C22    C     0.63390   0.17763   0.25566   0.01267  Uiso   1.00
C23    C     0.82640   0.26872   0.26104   0.01267  Uiso   1.00
C24    C     0.75760   0.25262   0.44204   0.01267  Uiso   1.00
N1     N     0.65090   0.04232   0.58844   0.01267  Uiso   1.00
N2     N     0.70510   0.04338   0.78760   0.01267  Uiso   1.00
N3     N     0.63420   0.84260   0.60300   0.01267  Uiso   1.00
N4     N     0.82920   0.92975   0.59750   0.01267  Uiso   1.00
N5     N     0.15090   0.95768   0.41156   0.01267  Uiso   1.00
N6     N     0.20510   0.95662   0.21240   0.01267  Uiso   1.00
N7     N     0.13420   0.15740   0.39700   0.01267  Uiso   1.00
N8     N     0.32920   0.07025   0.40250   0.01267  Uiso   1.00
N9     N     0.15090   0.54612   0.58844   0.01267  Uiso   1.00
N10    N     0.20510   0.74422   0.78760   0.01267  Uiso   1.00
N11    N     0.13420   0.76040   0.60300   0.01267  Uiso   1.00
N12    N     0.32920   0.66775   0.59750   0.01267  Uiso   1.00
N13    N     0.65090   0.45388   0.41156   0.01267  Uiso   1.00
N14    N     0.70510   0.25578   0.21240   0.01267  Uiso   1.00
N15    N     0.63420   0.23960   0.39700   0.01267  Uiso   1.00
N16    N     0.82920   0.33225   0.40250   0.01267  Uiso   1.00
