data_image0
_cell_length_a       27.108
_cell_length_b       10.673
_cell_length_c       16.641
_cell_angle_alpha    90
_cell_angle_beta     104.241
_cell_angle_gamma    90

_symmetry_space_group_name_H-M    "P 1"
_symmetry_int_tables_number       1

loop_
  _symmetry_equiv_pos_as_xyz
  'x, y, z'

loop_
  _atom_site_label
  _atom_site_occupancy
  _atom_site_fract_x
  _atom_site_fract_y
  _atom_site_fract_z
  _atom_site_thermal_displace_type
  _atom_site_B_iso_or_equiv
  _atom_site_type_symbol
  Cd1      1.0000 0.28708  0.79005  0.16713  Biso   1.000  Cd
  O1       1.0000 0.22950  0.41360  0.45750  Biso   1.000  O
  O2       1.0000 0.21830  0.50920  0.33810  Biso   1.000  O
  O3       1.0000 0.27070  0.79000  0.29430  Biso   1.000  O
  O4       1.0000 0.31860  0.62830  0.35180  Biso   1.000  O
  N1       1.0000 0.12270  0.71680  0.06070  Biso   1.000  N
  N2       1.0000 0.12970  0.63820  0.12750  Biso   1.000  N
  N3       1.0000 0.20190  0.74010  0.12730  Biso   1.000  N
  N4       1.0000 0.93420  0.69380  0.83900  Biso   1.000  N
  N5       1.0000 0.94720  0.78790  0.79460  Biso   1.000  N
  N6       1.0000 0.87230  0.71090  0.72890  Biso   1.000  N
  C1       1.0000 0.06140  0.60770  0.94830  Biso   1.000  C
  C2       1.0000 0.01110  0.57700  0.90990  Biso   1.000  C
  C3       1.0000 0.00170  0.46720  0.86540  Biso   1.000  C
  H1       1.0000 0.96820  0.44510  0.84080  Biso   1.000  H
  C4       1.0000 0.04050  0.38860  0.85610  Biso   1.000  C
  H2       1.0000 0.03310  0.31490  0.82570  Biso   1.000  H
  C5       1.0000 0.09010  0.42040  0.89220  Biso   1.000  C
  H3       1.0000 0.11660  0.36910  0.88590  Biso   1.000  H
  C6       1.0000 0.10020  0.52990  0.93830  Biso   1.000  C
  H4       1.0000 0.13380  0.55140  0.96290  Biso   1.000  H
  C7       1.0000 0.07360  0.72220  0.00170  Biso   1.000  C
  H5       1.0000 0.07290  0.79470  0.96630  Biso   1.000  H
  H6       1.0000 0.04750  0.73350  0.03160  Biso   1.000  H
  C8       1.0000 0.96700  0.65720  0.92020  Biso   1.000  C
  H7       1.0000 0.94700  0.61110  0.95120  Biso   1.000  H
  H8       1.0000 0.98010  0.73190  0.95150  Biso   1.000  H
  C9       1.0000 0.17810  0.65810  0.16410  Biso   1.000  C
  H9       1.0000 0.19440  0.61710  0.21270  Biso   1.000  H
  C10      1.0000 0.16580  0.77350  0.06280  Biso   1.000  C
  H10      1.0000 0.17030  0.83080  0.02310  Biso   1.000  H
  C11      1.0000 0.90860  0.79520  0.72800  Biso   1.000  C
  H11      1.0000 0.90700  0.85260  0.68540  Biso   1.000  H
  C12      1.0000 0.88980  0.65000  0.79970  Biso   1.000  C
  H12      1.0000 0.87280  0.58510  0.81880  Biso   1.000  H
  C13      1.0000 0.24150  0.63420  0.45900  Biso   1.000  C
  C14      1.0000 0.26640  0.73050  0.42750  Biso   1.000  C
  C15      1.0000 0.27360  0.84280  0.46860  Biso   1.000  C
  H13      1.0000 0.28950  0.90710  0.44680  Biso   1.000  H
  C16      1.0000 0.22910  0.51260  0.41510  Biso   1.000  C
  C17      1.0000 0.28670  0.71140  0.35190  Biso   1.000  C
  Cd2      1.0000 0.78708  0.29005  0.16713  Biso   1.000  Cd
  O5       1.0000 0.72950  0.91360  0.45750  Biso   1.000  O
  O6       1.0000 0.71830  0.00920  0.33810  Biso   1.000  O
  O7       1.0000 0.77070  0.29000  0.29430  Biso   1.000  O
  O8       1.0000 0.81860  0.12830  0.35180  Biso   1.000  O
  N7       1.0000 0.62270  0.21680  0.06070  Biso   1.000  N
  N8       1.0000 0.62970  0.13820  0.12750  Biso   1.000  N
  N9       1.0000 0.70190  0.24010  0.12730  Biso   1.000  N
  N10      1.0000 0.43420  0.19380  0.83900  Biso   1.000  N
  N11      1.0000 0.44720  0.28790  0.79460  Biso   1.000  N
  N12      1.0000 0.37230  0.21090  0.72890  Biso   1.000  N
  C18      1.0000 0.56140  0.10770  0.94830  Biso   1.000  C
  C19      1.0000 0.51110  0.07700  0.90990  Biso   1.000  C
  C20      1.0000 0.50170  0.96720  0.86540  Biso   1.000  C
  H14      1.0000 0.46820  0.94510  0.84080  Biso   1.000  H
  C21      1.0000 0.54050  0.88860  0.85610  Biso   1.000  C
  H15      1.0000 0.53310  0.81490  0.82570  Biso   1.000  H
  C22      1.0000 0.59010  0.92040  0.89220  Biso   1.000  C
  H16      1.0000 0.61660  0.86910  0.88590  Biso   1.000  H
  C23      1.0000 0.60020  0.02990  0.93830  Biso   1.000  C
  H17      1.0000 0.63380  0.05140  0.96290  Biso   1.000  H
  C24      1.0000 0.57360  0.22220  0.00170  Biso   1.000  C
  H18      1.0000 0.57290  0.29470  0.96630  Biso   1.000  H
  H19      1.0000 0.54750  0.23350  0.03160  Biso   1.000  H
  C25      1.0000 0.46700  0.15720  0.92020  Biso   1.000  C
  H20      1.0000 0.44700  0.11110  0.95120  Biso   1.000  H
  H21      1.0000 0.48010  0.23190  0.95150  Biso   1.000  H
  C26      1.0000 0.67810  0.15810  0.16410  Biso   1.000  C
  H22      1.0000 0.69440  0.11710  0.21270  Biso   1.000  H
  C27      1.0000 0.66580  0.27350  0.06280  Biso   1.000  C
  H23      1.0000 0.67030  0.33080  0.02310  Biso   1.000  H
  C28      1.0000 0.40860  0.29520  0.72800  Biso   1.000  C
  H24      1.0000 0.40700  0.35260  0.68540  Biso   1.000  H
  C29      1.0000 0.38980  0.15000  0.79970  Biso   1.000  C
  H25      1.0000 0.37280  0.08510  0.81880  Biso   1.000  H
  C30      1.0000 0.74150  0.13420  0.45900  Biso   1.000  C
  C31      1.0000 0.76640  0.23050  0.42750  Biso   1.000  C
  C32      1.0000 0.77360  0.34280  0.46860  Biso   1.000  C
  H26      1.0000 0.78950  0.40710  0.44680  Biso   1.000  H
  C33      1.0000 0.72910  0.01260  0.41510  Biso   1.000  C
  C34      1.0000 0.78670  0.21140  0.35190  Biso   1.000  C
  Cd3      1.0000 0.71292  0.79005  0.33287  Biso   1.000  Cd
  O9       1.0000 0.77050  0.41360  0.04250  Biso   1.000  O
  O10      1.0000 0.78170  0.50920  0.16190  Biso   1.000  O
  O11      1.0000 0.72930  0.79000  0.20570  Biso   1.000  O
  O12      1.0000 0.68140  0.62830  0.14820  Biso   1.000  O
  N13      1.0000 0.87730  0.71680  0.43930  Biso   1.000  N
  N14      1.0000 0.87030  0.63820  0.37250  Biso   1.000  N
  N15      1.0000 0.79810  0.74010  0.37270  Biso   1.000  N
  N16      1.0000 0.06580  0.69380  0.66100  Biso   1.000  N
  N17      1.0000 0.05280  0.78790  0.70540  Biso   1.000  N
  N18      1.0000 0.12770  0.71090  0.77110  Biso   1.000  N
  C35      1.0000 0.93860  0.60770  0.55170  Biso   1.000  C
  C36      1.0000 0.98890  0.57700  0.59010  Biso   1.000  C
  C37      1.0000 0.99830  0.46720  0.63460  Biso   1.000  C
  H27      1.0000 0.03180  0.44510  0.65920  Biso   1.000  H
  C38      1.0000 0.95950  0.38860  0.64390  Biso   1.000  C
  H28      1.0000 0.96690  0.31490  0.67430  Biso   1.000  H
  C39      1.0000 0.90990  0.42040  0.60780  Biso   1.000  C
  H29      1.0000 0.88340  0.36910  0.61410  Biso   1.000  H
  C40      1.0000 0.89980  0.52990  0.56170  Biso   1.000  C
  H30      1.0000 0.86620  0.55140  0.53710  Biso   1.000  H
  C41      1.0000 0.92640  0.72220  0.49830  Biso   1.000  C
  H31      1.0000 0.92710  0.79470  0.53370  Biso   1.000  H
  H32      1.0000 0.95250  0.73350  0.46840  Biso   1.000  H
  C42      1.0000 0.03300  0.65720  0.57980  Biso   1.000  C
  H33      1.0000 0.05300  0.61110  0.54880  Biso   1.000  H
  H34      1.0000 0.01990  0.73190  0.54850  Biso   1.000  H
  C43      1.0000 0.82190  0.65810  0.33590  Biso   1.000  C
  H35      1.0000 0.80560  0.61710  0.28730  Biso   1.000  H
  C44      1.0000 0.83420  0.77350  0.43720  Biso   1.000  C
  H36      1.0000 0.82970  0.83080  0.47690  Biso   1.000  H
  C45      1.0000 0.09140  0.79520  0.77200  Biso   1.000  C
  H37      1.0000 0.09300  0.85260  0.81460  Biso   1.000  H
  C46      1.0000 0.11020  0.65000  0.70030  Biso   1.000  C
  H38      1.0000 0.12720  0.58510  0.68120  Biso   1.000  H
  C47      1.0000 0.75850  0.63420  0.04100  Biso   1.000  C
  C48      1.0000 0.73360  0.73050  0.07250  Biso   1.000  C
  C49      1.0000 0.72640  0.84280  0.03140  Biso   1.000  C
  H39      1.0000 0.71050  0.90710  0.05320  Biso   1.000  H
  C50      1.0000 0.77090  0.51260  0.08490  Biso   1.000  C
  C51      1.0000 0.71330  0.71140  0.14810  Biso   1.000  C
  Cd4      1.0000 0.21292  0.29005  0.33287  Biso   1.000  Cd
  O13      1.0000 0.27050  0.91360  0.04250  Biso   1.000  O
  O14      1.0000 0.28170  0.00920  0.16190  Biso   1.000  O
  O15      1.0000 0.22930  0.29000  0.20570  Biso   1.000  O
  O16      1.0000 0.18140  0.12830  0.14820  Biso   1.000  O
  N19      1.0000 0.37730  0.21680  0.43930  Biso   1.000  N
  N20      1.0000 0.37030  0.13820  0.37250  Biso   1.000  N
  N21      1.0000 0.29810  0.24010  0.37270  Biso   1.000  N
  N22      1.0000 0.56580  0.19380  0.66100  Biso   1.000  N
  N23      1.0000 0.55280  0.28790  0.70540  Biso   1.000  N
  N24      1.0000 0.62770  0.21090  0.77110  Biso   1.000  N
  C52      1.0000 0.43860  0.10770  0.55170  Biso   1.000  C
  C53      1.0000 0.48890  0.07700  0.59010  Biso   1.000  C
  C54      1.0000 0.49830  0.96720  0.63460  Biso   1.000  C
  H40      1.0000 0.53180  0.94510  0.65920  Biso   1.000  H
  C55      1.0000 0.45950  0.88860  0.64390  Biso   1.000  C
  H41      1.0000 0.46690  0.81490  0.67430  Biso   1.000  H
  C56      1.0000 0.40990  0.92040  0.60780  Biso   1.000  C
  H42      1.0000 0.38340  0.86910  0.61410  Biso   1.000  H
  C57      1.0000 0.39980  0.02990  0.56170  Biso   1.000  C
  H43      1.0000 0.36620  0.05140  0.53710  Biso   1.000  H
  C58      1.0000 0.42640  0.22220  0.49830  Biso   1.000  C
  H44      1.0000 0.42710  0.29470  0.53370  Biso   1.000  H
  H45      1.0000 0.45250  0.23350  0.46840  Biso   1.000  H
  C59      1.0000 0.53300  0.15720  0.57980  Biso   1.000  C
  H46      1.0000 0.55300  0.11110  0.54880  Biso   1.000  H
  H47      1.0000 0.51990  0.23190  0.54850  Biso   1.000  H
  C60      1.0000 0.32190  0.15810  0.33590  Biso   1.000  C
  H48      1.0000 0.30560  0.11710  0.28730  Biso   1.000  H
  C61      1.0000 0.33420  0.27350  0.43720  Biso   1.000  C
  H49      1.0000 0.32970  0.33080  0.47690  Biso   1.000  H
  C62      1.0000 0.59140  0.29520  0.77200  Biso   1.000  C
  H50      1.0000 0.59300  0.35260  0.81460  Biso   1.000  H
  C63      1.0000 0.61020  0.15000  0.70030  Biso   1.000  C
  H51      1.0000 0.62720  0.08510  0.68120  Biso   1.000  H
  C64      1.0000 0.25850  0.13420  0.04100  Biso   1.000  C
  C65      1.0000 0.23360  0.23050  0.07250  Biso   1.000  C
  C66      1.0000 0.22640  0.34280  0.03140  Biso   1.000  C
  H52      1.0000 0.21050  0.40710  0.05320  Biso   1.000  H
  C67      1.0000 0.27090  0.01260  0.08490  Biso   1.000  C
  C68      1.0000 0.21330  0.21140  0.14810  Biso   1.000  C
  Cd5      1.0000 0.71292  0.20995  0.83287  Biso   1.000  Cd
  O17      1.0000 0.77050  0.58640  0.54250  Biso   1.000  O
  O18      1.0000 0.78170  0.49080  0.66190  Biso   1.000  O
  O19      1.0000 0.72930  0.21000  0.70570  Biso   1.000  O
  O20      1.0000 0.68140  0.37170  0.64820  Biso   1.000  O
  N25      1.0000 0.87730  0.28320  0.93930  Biso   1.000  N
  N26      1.0000 0.87030  0.36180  0.87250  Biso   1.000  N
  N27      1.0000 0.79810  0.25990  0.87270  Biso   1.000  N
  N28      1.0000 0.06580  0.30620  0.16100  Biso   1.000  N
  N29      1.0000 0.05280  0.21210  0.20540  Biso   1.000  N
  N30      1.0000 0.12770  0.28910  0.27110  Biso   1.000  N
  C69      1.0000 0.93860  0.39230  0.05170  Biso   1.000  C
  C70      1.0000 0.98890  0.42300  0.09010  Biso   1.000  C
  C71      1.0000 0.99830  0.53280  0.13460  Biso   1.000  C
  H53      1.0000 0.03180  0.55490  0.15920  Biso   1.000  H
  C72      1.0000 0.95950  0.61140  0.14390  Biso   1.000  C
  H54      1.0000 0.96690  0.68510  0.17430  Biso   1.000  H
  C73      1.0000 0.90990  0.57960  0.10780  Biso   1.000  C
  H55      1.0000 0.88340  0.63090  0.11410  Biso   1.000  H
  C74      1.0000 0.89980  0.47010  0.06170  Biso   1.000  C
  H56      1.0000 0.86620  0.44860  0.03710  Biso   1.000  H
  C75      1.0000 0.92640  0.27780  0.99830  Biso   1.000  C
  H57      1.0000 0.92710  0.20530  0.03370  Biso   1.000  H
  H58      1.0000 0.95250  0.26650  0.96840  Biso   1.000  H
  C76      1.0000 0.03300  0.34280  0.07980  Biso   1.000  C
  H59      1.0000 0.05300  0.38890  0.04880  Biso   1.000  H
  H60      1.0000 0.01990  0.26810  0.04850  Biso   1.000  H
  C77      1.0000 0.82190  0.34190  0.83590  Biso   1.000  C
  H61      1.0000 0.80560  0.38290  0.78730  Biso   1.000  H
  C78      1.0000 0.83420  0.22650  0.93720  Biso   1.000  C
  H62      1.0000 0.82970  0.16920  0.97690  Biso   1.000  H
  C79      1.0000 0.09140  0.20480  0.27200  Biso   1.000  C
  H63      1.0000 0.09300  0.14740  0.31460  Biso   1.000  H
  C80      1.0000 0.11020  0.35000  0.20030  Biso   1.000  C
  H64      1.0000 0.12720  0.41490  0.18120  Biso   1.000  H
  C81      1.0000 0.75850  0.36580  0.54100  Biso   1.000  C
  C82      1.0000 0.73360  0.26950  0.57250  Biso   1.000  C
  C83      1.0000 0.72640  0.15720  0.53140  Biso   1.000  C
  H65      1.0000 0.71050  0.09290  0.55320  Biso   1.000  H
  C84      1.0000 0.77090  0.48740  0.58490  Biso   1.000  C
  C85      1.0000 0.71330  0.28860  0.64810  Biso   1.000  C
  Cd6      1.0000 0.21292  0.70995  0.83287  Biso   1.000  Cd
  O21      1.0000 0.27050  0.08640  0.54250  Biso   1.000  O
  O22      1.0000 0.28170  0.99080  0.66190  Biso   1.000  O
  O23      1.0000 0.22930  0.71000  0.70570  Biso   1.000  O
  O24      1.0000 0.18140  0.87170  0.64820  Biso   1.000  O
  N31      1.0000 0.37730  0.78320  0.93930  Biso   1.000  N
  N32      1.0000 0.37030  0.86180  0.87250  Biso   1.000  N
  N33      1.0000 0.29810  0.75990  0.87270  Biso   1.000  N
  N34      1.0000 0.56580  0.80620  0.16100  Biso   1.000  N
  N35      1.0000 0.55280  0.71210  0.20540  Biso   1.000  N
  N36      1.0000 0.62770  0.78910  0.27110  Biso   1.000  N
  C86      1.0000 0.43860  0.89230  0.05170  Biso   1.000  C
  C87      1.0000 0.48890  0.92300  0.09010  Biso   1.000  C
  C88      1.0000 0.49830  0.03280  0.13460  Biso   1.000  C
  H66      1.0000 0.53180  0.05490  0.15920  Biso   1.000  H
  C89      1.0000 0.45950  0.11140  0.14390  Biso   1.000  C
  H67      1.0000 0.46690  0.18510  0.17430  Biso   1.000  H
  C90      1.0000 0.40990  0.07960  0.10780  Biso   1.000  C
  H68      1.0000 0.38340  0.13090  0.11410  Biso   1.000  H
  C91      1.0000 0.39980  0.97010  0.06170  Biso   1.000  C
  H69      1.0000 0.36620  0.94860  0.03710  Biso   1.000  H
  C92      1.0000 0.42640  0.77780  0.99830  Biso   1.000  C
  H70      1.0000 0.42710  0.70530  0.03370  Biso   1.000  H
  H71      1.0000 0.45250  0.76650  0.96840  Biso   1.000  H
  C93      1.0000 0.53300  0.84280  0.07980  Biso   1.000  C
  H72      1.0000 0.55300  0.88890  0.04880  Biso   1.000  H
  H73      1.0000 0.51990  0.76810  0.04850  Biso   1.000  H
  C94      1.0000 0.32190  0.84190  0.83590  Biso   1.000  C
  H74      1.0000 0.30560  0.88290  0.78730  Biso   1.000  H
  C95      1.0000 0.33420  0.72650  0.93720  Biso   1.000  C
  H75      1.0000 0.32970  0.66920  0.97690  Biso   1.000  H
  C96      1.0000 0.59140  0.70480  0.27200  Biso   1.000  C
  H76      1.0000 0.59300  0.64740  0.31460  Biso   1.000  H
  C97      1.0000 0.61020  0.85000  0.20030  Biso   1.000  C
  H77      1.0000 0.62720  0.91490  0.18120  Biso   1.000  H
  C98      1.0000 0.25850  0.86580  0.54100  Biso   1.000  C
  C99      1.0000 0.23360  0.76950  0.57250  Biso   1.000  C
  C100     1.0000 0.22640  0.65720  0.53140  Biso   1.000  C
  H78      1.0000 0.21050  0.59290  0.55320  Biso   1.000  H
  C101     1.0000 0.27090  0.98740  0.58490  Biso   1.000  C
  C102     1.0000 0.21330  0.78860  0.64810  Biso   1.000  C
  Cd7      1.0000 0.28708  0.20995  0.66713  Biso   1.000  Cd
  O25      1.0000 0.22950  0.58640  0.95750  Biso   1.000  O
  O26      1.0000 0.21830  0.49080  0.83810  Biso   1.000  O
  O27      1.0000 0.27070  0.21000  0.79430  Biso   1.000  O
  O28      1.0000 0.31860  0.37170  0.85180  Biso   1.000  O
  N37      1.0000 0.12270  0.28320  0.56070  Biso   1.000  N
  N38      1.0000 0.12970  0.36180  0.62750  Biso   1.000  N
  N39      1.0000 0.20190  0.25990  0.62730  Biso   1.000  N
  N40      1.0000 0.93420  0.30620  0.33900  Biso   1.000  N
  N41      1.0000 0.94720  0.21210  0.29460  Biso   1.000  N
  N42      1.0000 0.87230  0.28910  0.22890  Biso   1.000  N
  C103     1.0000 0.06140  0.39230  0.44830  Biso   1.000  C
  C104     1.0000 0.01110  0.42300  0.40990  Biso   1.000  C
  C105     1.0000 0.00170  0.53280  0.36540  Biso   1.000  C
  H79      1.0000 0.96820  0.55490  0.34080  Biso   1.000  H
  C106     1.0000 0.04050  0.61140  0.35610  Biso   1.000  C
  H80      1.0000 0.03310  0.68510  0.32570  Biso   1.000  H
  C107     1.0000 0.09010  0.57960  0.39220  Biso   1.000  C
  H81      1.0000 0.11660  0.63090  0.38590  Biso   1.000  H
  C108     1.0000 0.10020  0.47010  0.43830  Biso   1.000  C
  H82      1.0000 0.13380  0.44860  0.46290  Biso   1.000  H
  C109     1.0000 0.07360  0.27780  0.50170  Biso   1.000  C
  H83      1.0000 0.07290  0.20530  0.46630  Biso   1.000  H
  H84      1.0000 0.04750  0.26650  0.53160  Biso   1.000  H
  C110     1.0000 0.96700  0.34280  0.42020  Biso   1.000  C
  H85      1.0000 0.94700  0.38890  0.45120  Biso   1.000  H
  H86      1.0000 0.98010  0.26810  0.45150  Biso   1.000  H
  C111     1.0000 0.17810  0.34190  0.66410  Biso   1.000  C
  H87      1.0000 0.19440  0.38290  0.71270  Biso   1.000  H
  C112     1.0000 0.16580  0.22650  0.56280  Biso   1.000  C
  H88      1.0000 0.17030  0.16920  0.52310  Biso   1.000  H
  C113     1.0000 0.90860  0.20480  0.22800  Biso   1.000  C
  H89      1.0000 0.90700  0.14740  0.18540  Biso   1.000  H
  C114     1.0000 0.88980  0.35000  0.29970  Biso   1.000  C
  H90      1.0000 0.87280  0.41490  0.31880  Biso   1.000  H
  C115     1.0000 0.24150  0.36580  0.95900  Biso   1.000  C
  C116     1.0000 0.26640  0.26950  0.92750  Biso   1.000  C
  C117     1.0000 0.27360  0.15720  0.96860  Biso   1.000  C
  H91      1.0000 0.28950  0.09290  0.94680  Biso   1.000  H
  C118     1.0000 0.22910  0.48740  0.91510  Biso   1.000  C
  C119     1.0000 0.28670  0.28860  0.85190  Biso   1.000  C
  Cd8      1.0000 0.78708  0.70995  0.66713  Biso   1.000  Cd
  O29      1.0000 0.72950  0.08640  0.95750  Biso   1.000  O
  O30      1.0000 0.71830  0.99080  0.83810  Biso   1.000  O
  O31      1.0000 0.77070  0.71000  0.79430  Biso   1.000  O
  O32      1.0000 0.81860  0.87170  0.85180  Biso   1.000  O
  N43      1.0000 0.62270  0.78320  0.56070  Biso   1.000  N
  N44      1.0000 0.62970  0.86180  0.62750  Biso   1.000  N
  N45      1.0000 0.70190  0.75990  0.62730  Biso   1.000  N
  N46      1.0000 0.43420  0.80620  0.33900  Biso   1.000  N
  N47      1.0000 0.44720  0.71210  0.29460  Biso   1.000  N
  N48      1.0000 0.37230  0.78910  0.22890  Biso   1.000  N
  C120     1.0000 0.56140  0.89230  0.44830  Biso   1.000  C
  C121     1.0000 0.51110  0.92300  0.40990  Biso   1.000  C
  C122     1.0000 0.50170  0.03280  0.36540  Biso   1.000  C
  H92      1.0000 0.46820  0.05490  0.34080  Biso   1.000  H
  C123     1.0000 0.54050  0.11140  0.35610  Biso   1.000  C
  H93      1.0000 0.53310  0.18510  0.32570  Biso   1.000  H
  C124     1.0000 0.59010  0.07960  0.39220  Biso   1.000  C
  H94      1.0000 0.61660  0.13090  0.38590  Biso   1.000  H
  C125     1.0000 0.60020  0.97010  0.43830  Biso   1.000  C
  H95      1.0000 0.63380  0.94860  0.46290  Biso   1.000  H
  C126     1.0000 0.57360  0.77780  0.50170  Biso   1.000  C
  H96      1.0000 0.57290  0.70530  0.46630  Biso   1.000  H
  H97      1.0000 0.54750  0.76650  0.53160  Biso   1.000  H
  C127     1.0000 0.46700  0.84280  0.42020  Biso   1.000  C
  H98      1.0000 0.44700  0.88890  0.45120  Biso   1.000  H
  H99      1.0000 0.48010  0.76810  0.45150  Biso   1.000  H
  C128     1.0000 0.67810  0.84190  0.66410  Biso   1.000  C
  H100     1.0000 0.69440  0.88290  0.71270  Biso   1.000  H
  C129     1.0000 0.66580  0.72650  0.56280  Biso   1.000  C
  H101     1.0000 0.67030  0.66920  0.52310  Biso   1.000  H
  C130     1.0000 0.40860  0.70480  0.22800  Biso   1.000  C
  H102     1.0000 0.40700  0.64740  0.18540  Biso   1.000  H
  C131     1.0000 0.38980  0.85000  0.29970  Biso   1.000  C
  H103     1.0000 0.37280  0.91490  0.31880  Biso   1.000  H
  C132     1.0000 0.74150  0.86580  0.95900  Biso   1.000  C
  C133     1.0000 0.76640  0.76950  0.92750  Biso   1.000  C
  C134     1.0000 0.77360  0.65720  0.96860  Biso   1.000  C
  H104     1.0000 0.78950  0.59290  0.94680  Biso   1.000  H
  C135     1.0000 0.72910  0.98740  0.91510  Biso   1.000  C
  C136     1.0000 0.78670  0.78860  0.85190  Biso   1.000  C
