data_image0
_cell_length_a       18.58
_cell_length_b       9.962
_cell_length_c       32.732
_cell_angle_alpha    90
_cell_angle_beta     90
_cell_angle_gamma    90

_symmetry_space_group_name_H-M    "P 1"
_symmetry_int_tables_number       1

loop_
  _symmetry_equiv_pos_as_xyz
  'x, y, z'

loop_
  _atom_site_label
  _atom_site_occupancy
  _atom_site_fract_x
  _atom_site_fract_y
  _atom_site_fract_z
  _atom_site_thermal_displace_type
  _atom_site_B_iso_or_equiv
  _atom_site_type_symbol
  Zn1      1.0000 0.08070  0.27461  0.05860  Biso   1.000  Zn
  Zn2      1.0000 0.06430  0.02828  0.21891  Biso   1.000  Zn
  O1       1.0000 0.15914  0.00156  0.24001  Biso   1.000  O
  O2       1.0000 0.17325  0.82400  0.20044  Biso   1.000  O
  O3       1.0000 0.93818  0.61195  0.02699  Biso   1.000  O
  O4       1.0000 0.95547  0.79946  0.99288  Biso   1.000  O
  N1       1.0000 0.14542  0.40300  0.09246  Biso   1.000  N
  N2       1.0000 0.19015  0.22250  0.03979  Biso   1.000  N
  N3       1.0000 0.05760  0.12564  0.09857  Biso   1.000  N
  N4       1.0000 0.07054  0.14159  0.13808  Biso   1.000  N
  N5       1.0000 0.05257  0.03129  0.15851  Biso   1.000  N
  N6       1.0000 0.44534  0.72338  0.23467  Biso   1.000  N
  N7       1.0000 0.50436  0.78284  0.24718  Biso   1.000  N
  N8       1.0000 0.49020  0.90833  0.25846  Biso   1.000  N
  C1       1.0000 0.20860  0.12890  0.01243  Biso   1.000  C
  H1       1.0000 0.17250  0.08070  0.99930  Biso   1.000  H
  C2       1.0000 0.27930  0.10150  0.00306  Biso   1.000  C
  H2       1.0000 0.29070  0.03570  0.98400  Biso   1.000  H
  C3       1.0000 0.33180  0.17180  0.02205  Biso   1.000  C
  H3       1.0000 0.38000  0.15540  0.01600  Biso   1.000  H
  C4       1.0000 0.31360  0.26670  0.05004  Biso   1.000  C
  H4       1.0000 0.34930  0.31530  0.06340  Biso   1.000  H
  C5       1.0000 0.24212  0.29100  0.05865  Biso   1.000  C
  C6       1.0000 0.21660  0.39130  0.08866  Biso   1.000  C
  C7       1.0000 0.26300  0.46840  0.11187  Biso   1.000  C
  H5       1.0000 0.31260  0.45820  0.10930  Biso   1.000  H
  C8       1.0000 0.23530  0.55920  0.13847  Biso   1.000  C
  H6       1.0000 0.26600  0.61360  0.15360  Biso   1.000  H
  C9       1.0000 0.16340  0.57080  0.14301  Biso   1.000  C
  H7       1.0000 0.14390  0.63140  0.16160  Biso   1.000  H
  C10      1.0000 0.11940  0.49010  0.11933  Biso   1.000  C
  H8       1.0000 0.06980  0.49730  0.12240  Biso   1.000  H
  C11      1.0000 0.02949  0.99990  0.09312  Biso   1.000  C
  C12      1.0000 0.00680  0.93320  0.05807  Biso   1.000  C
  H9       1.0000 0.00850  0.97430  0.03260  Biso   1.000  H
  C13      1.0000 0.98187  0.80470  0.06252  Biso   1.000  C
  C14      1.0000 0.95691  0.73020  0.02500  Biso   1.000  C
  C15      1.0000 0.97957  0.74360  0.10121  Biso   1.000  C
  H10      1.0000 0.96260  0.65610  0.10330  Biso   1.000  H
  C16      1.0000 0.00147  0.80830  0.13587  Biso   1.000  C
  H11      1.0000 0.99960  0.76700  0.16130  Biso   1.000  H
  C17      1.0000 0.02683  0.93980  0.13121  Biso   1.000  C
  C18      1.0000 0.19630  0.90870  0.22382  Biso   1.000  C
  C19      1.0000 0.27520  0.91200  0.23485  Biso   1.000  C
  C20      1.0000 0.30405  0.02990  0.25218  Biso   1.000  C
  H12      1.0000 0.27340  0.10110  0.25800  Biso   1.000  H
  C21      1.0000 0.37572  0.04250  0.26062  Biso   1.000  C
  H13      1.0000 0.39500  0.12170  0.27100  Biso   1.000  H
  C22      1.0000 0.41850  0.93030  0.25292  Biso   1.000  C
  C23      1.0000 0.38985  0.81260  0.23717  Biso   1.000  C
  C24      1.0000 0.31716  0.80390  0.22659  Biso   1.000  C
  H14      1.0000 0.29830  0.72730  0.21440  Biso   1.000  H
  Zn3      1.0000 0.41930  0.72539  0.55860  Biso   1.000  Zn
  Zn4      1.0000 0.43570  0.97172  0.71891  Biso   1.000  Zn
  O5       1.0000 0.34086  0.99844  0.74001  Biso   1.000  O
  O6       1.0000 0.32675  0.17600  0.70044  Biso   1.000  O
  O7       1.0000 0.56182  0.38805  0.52699  Biso   1.000  O
  O8       1.0000 0.54453  0.20054  0.49288  Biso   1.000  O
  N9       1.0000 0.35458  0.59700  0.59246  Biso   1.000  N
  N10      1.0000 0.30985  0.77750  0.53979  Biso   1.000  N
  N11      1.0000 0.44240  0.87436  0.59857  Biso   1.000  N
  N12      1.0000 0.42946  0.85841  0.63808  Biso   1.000  N
  N13      1.0000 0.44743  0.96871  0.65851  Biso   1.000  N
  N14      1.0000 0.05466  0.27662  0.73467  Biso   1.000  N
  N15      1.0000 0.99564  0.21716  0.74718  Biso   1.000  N
  N16      1.0000 0.00980  0.09167  0.75846  Biso   1.000  N
  C25      1.0000 0.29140  0.87110  0.51243  Biso   1.000  C
  H15      1.0000 0.32750  0.91930  0.49930  Biso   1.000  H
  C26      1.0000 0.22070  0.89850  0.50306  Biso   1.000  C
  H16      1.0000 0.20930  0.96430  0.48400  Biso   1.000  H
  C27      1.0000 0.16820  0.82820  0.52205  Biso   1.000  C
  H17      1.0000 0.12000  0.84460  0.51600  Biso   1.000  H
  C28      1.0000 0.18640  0.73330  0.55004  Biso   1.000  C
  H18      1.0000 0.15070  0.68470  0.56340  Biso   1.000  H
  C29      1.0000 0.25788  0.70900  0.55865  Biso   1.000  C
  C30      1.0000 0.28340  0.60870  0.58866  Biso   1.000  C
  C31      1.0000 0.23700  0.53160  0.61187  Biso   1.000  C
  H19      1.0000 0.18740  0.54180  0.60930  Biso   1.000  H
  C32      1.0000 0.26470  0.44080  0.63847  Biso   1.000  C
  H20      1.0000 0.23400  0.38640  0.65360  Biso   1.000  H
  C33      1.0000 0.33660  0.42920  0.64301  Biso   1.000  C
  H21      1.0000 0.35610  0.36860  0.66160  Biso   1.000  H
  C34      1.0000 0.38060  0.50990  0.61933  Biso   1.000  C
  H22      1.0000 0.43020  0.50270  0.62240  Biso   1.000  H
  C35      1.0000 0.47051  0.00010  0.59312  Biso   1.000  C
  C36      1.0000 0.49320  0.06680  0.55807  Biso   1.000  C
  H23      1.0000 0.49150  0.02570  0.53260  Biso   1.000  H
  C37      1.0000 0.51813  0.19530  0.56252  Biso   1.000  C
  C38      1.0000 0.54309  0.26980  0.52500  Biso   1.000  C
  C39      1.0000 0.52043  0.25640  0.60121  Biso   1.000  C
  H24      1.0000 0.53740  0.34390  0.60330  Biso   1.000  H
  C40      1.0000 0.49853  0.19170  0.63587  Biso   1.000  C
  H25      1.0000 0.50040  0.23300  0.66130  Biso   1.000  H
  C41      1.0000 0.47317  0.06020  0.63121  Biso   1.000  C
  C42      1.0000 0.30370  0.09130  0.72382  Biso   1.000  C
  C43      1.0000 0.22480  0.08800  0.73485  Biso   1.000  C
  C44      1.0000 0.19595  0.97010  0.75218  Biso   1.000  C
  H26      1.0000 0.22660  0.89890  0.75800  Biso   1.000  H
  C45      1.0000 0.12428  0.95750  0.76062  Biso   1.000  C
  H27      1.0000 0.10500  0.87830  0.77100  Biso   1.000  H
  C46      1.0000 0.08150  0.06970  0.75292  Biso   1.000  C
  C47      1.0000 0.11015  0.18740  0.73717  Biso   1.000  C
  C48      1.0000 0.18284  0.19610  0.72659  Biso   1.000  C
  H28      1.0000 0.20170  0.27270  0.71440  Biso   1.000  H
  Zn5      1.0000 0.91930  0.77461  0.44140  Biso   1.000  Zn
  Zn6      1.0000 0.93570  0.52828  0.28109  Biso   1.000  Zn
  O9       1.0000 0.84086  0.50156  0.25999  Biso   1.000  O
  O10      1.0000 0.82675  0.32400  0.29956  Biso   1.000  O
  O11      1.0000 0.06182  0.11195  0.47301  Biso   1.000  O
  O12      1.0000 0.04453  0.29946  0.50712  Biso   1.000  O
  N17      1.0000 0.85458  0.90300  0.40754  Biso   1.000  N
  N18      1.0000 0.80985  0.72250  0.46021  Biso   1.000  N
  N19      1.0000 0.94240  0.62564  0.40143  Biso   1.000  N
  N20      1.0000 0.92946  0.64159  0.36192  Biso   1.000  N
  N21      1.0000 0.94743  0.53129  0.34149  Biso   1.000  N
  N22      1.0000 0.55466  0.22338  0.26533  Biso   1.000  N
  N23      1.0000 0.49564  0.28284  0.25282  Biso   1.000  N
  N24      1.0000 0.50980  0.40833  0.24154  Biso   1.000  N
  C49      1.0000 0.79140  0.62890  0.48757  Biso   1.000  C
  H29      1.0000 0.82750  0.58070  0.50070  Biso   1.000  H
  C50      1.0000 0.72070  0.60150  0.49694  Biso   1.000  C
  H30      1.0000 0.70930  0.53570  0.51600  Biso   1.000  H
  C51      1.0000 0.66820  0.67180  0.47795  Biso   1.000  C
  H31      1.0000 0.62000  0.65540  0.48400  Biso   1.000  H
  C52      1.0000 0.68640  0.76670  0.44996  Biso   1.000  C
  H32      1.0000 0.65070  0.81530  0.43660  Biso   1.000  H
  C53      1.0000 0.75788  0.79100  0.44135  Biso   1.000  C
  C54      1.0000 0.78340  0.89130  0.41134  Biso   1.000  C
  C55      1.0000 0.73700  0.96840  0.38813  Biso   1.000  C
  H33      1.0000 0.68740  0.95820  0.39070  Biso   1.000  H
  C56      1.0000 0.76470  0.05920  0.36153  Biso   1.000  C
  H34      1.0000 0.73400  0.11360  0.34640  Biso   1.000  H
  C57      1.0000 0.83660  0.07080  0.35699  Biso   1.000  C
  H35      1.0000 0.85610  0.13140  0.33840  Biso   1.000  H
  C58      1.0000 0.88060  0.99010  0.38067  Biso   1.000  C
  H36      1.0000 0.93020  0.99730  0.37760  Biso   1.000  H
  C59      1.0000 0.97051  0.49990  0.40688  Biso   1.000  C
  C60      1.0000 0.99320  0.43320  0.44193  Biso   1.000  C
  H37      1.0000 0.99150  0.47430  0.46740  Biso   1.000  H
  C61      1.0000 0.01813  0.30470  0.43748  Biso   1.000  C
  C62      1.0000 0.04309  0.23020  0.47500  Biso   1.000  C
  C63      1.0000 0.02043  0.24360  0.39879  Biso   1.000  C
  H38      1.0000 0.03740  0.15610  0.39670  Biso   1.000  H
  C64      1.0000 0.99853  0.30830  0.36413  Biso   1.000  C
  H39      1.0000 0.00040  0.26700  0.33870  Biso   1.000  H
  C65      1.0000 0.97317  0.43980  0.36879  Biso   1.000  C
  C66      1.0000 0.80370  0.40870  0.27618  Biso   1.000  C
  C67      1.0000 0.72480  0.41200  0.26515  Biso   1.000  C
  C68      1.0000 0.69595  0.52990  0.24782  Biso   1.000  C
  H40      1.0000 0.72660  0.60110  0.24200  Biso   1.000  H
  C69      1.0000 0.62428  0.54250  0.23938  Biso   1.000  C
  H41      1.0000 0.60500  0.62170  0.22900  Biso   1.000  H
  C70      1.0000 0.58150  0.43030  0.24708  Biso   1.000  C
  C71      1.0000 0.61015  0.31260  0.26283  Biso   1.000  C
  C72      1.0000 0.68284  0.30390  0.27341  Biso   1.000  C
  H42      1.0000 0.70170  0.22730  0.28560  Biso   1.000  H
  Zn7      1.0000 0.58070  0.22539  0.94140  Biso   1.000  Zn
  Zn8      1.0000 0.56430  0.47172  0.78109  Biso   1.000  Zn
  O13      1.0000 0.65914  0.49844  0.75999  Biso   1.000  O
  O14      1.0000 0.67325  0.67600  0.79956  Biso   1.000  O
  O15      1.0000 0.43818  0.88805  0.97301  Biso   1.000  O
  O16      1.0000 0.45547  0.70054  0.00712  Biso   1.000  O
  N25      1.0000 0.64542  0.09700  0.90754  Biso   1.000  N
  N26      1.0000 0.69015  0.27750  0.96021  Biso   1.000  N
  N27      1.0000 0.55760  0.37436  0.90143  Biso   1.000  N
  N28      1.0000 0.57054  0.35841  0.86192  Biso   1.000  N
  N29      1.0000 0.55257  0.46871  0.84149  Biso   1.000  N
  N30      1.0000 0.94534  0.77662  0.76533  Biso   1.000  N
  N31      1.0000 0.00436  0.71716  0.75282  Biso   1.000  N
  N32      1.0000 0.99020  0.59167  0.74154  Biso   1.000  N
  C73      1.0000 0.70860  0.37110  0.98757  Biso   1.000  C
  H43      1.0000 0.67250  0.41930  0.00070  Biso   1.000  H
  C74      1.0000 0.77930  0.39850  0.99694  Biso   1.000  C
  H44      1.0000 0.79070  0.46430  0.01600  Biso   1.000  H
  C75      1.0000 0.83180  0.32820  0.97795  Biso   1.000  C
  H45      1.0000 0.88000  0.34460  0.98400  Biso   1.000  H
  C76      1.0000 0.81360  0.23330  0.94996  Biso   1.000  C
  H46      1.0000 0.84930  0.18470  0.93660  Biso   1.000  H
  C77      1.0000 0.74212  0.20900  0.94135  Biso   1.000  C
  C78      1.0000 0.71660  0.10870  0.91134  Biso   1.000  C
  C79      1.0000 0.76300  0.03160  0.88813  Biso   1.000  C
  H47      1.0000 0.81260  0.04180  0.89070  Biso   1.000  H
  C80      1.0000 0.73530  0.94080  0.86153  Biso   1.000  C
  H48      1.0000 0.76600  0.88640  0.84640  Biso   1.000  H
  C81      1.0000 0.66340  0.92920  0.85699  Biso   1.000  C
  H49      1.0000 0.64390  0.86860  0.83840  Biso   1.000  H
  C82      1.0000 0.61940  0.00990  0.88067  Biso   1.000  C
  H50      1.0000 0.56980  0.00270  0.87760  Biso   1.000  H
  C83      1.0000 0.52949  0.50010  0.90688  Biso   1.000  C
  C84      1.0000 0.50680  0.56680  0.94193  Biso   1.000  C
  H51      1.0000 0.50850  0.52570  0.96740  Biso   1.000  H
  C85      1.0000 0.48187  0.69530  0.93748  Biso   1.000  C
  C86      1.0000 0.45691  0.76980  0.97500  Biso   1.000  C
  C87      1.0000 0.47957  0.75640  0.89879  Biso   1.000  C
  H52      1.0000 0.46260  0.84390  0.89670  Biso   1.000  H
  C88      1.0000 0.50147  0.69170  0.86413  Biso   1.000  C
  H53      1.0000 0.49960  0.73300  0.83870  Biso   1.000  H
  C89      1.0000 0.52683  0.56020  0.86879  Biso   1.000  C
  C90      1.0000 0.69630  0.59130  0.77618  Biso   1.000  C
  C91      1.0000 0.77520  0.58800  0.76515  Biso   1.000  C
  C92      1.0000 0.80405  0.47010  0.74782  Biso   1.000  C
  H54      1.0000 0.77340  0.39890  0.74200  Biso   1.000  H
  C93      1.0000 0.87572  0.45750  0.73938  Biso   1.000  C
  H55      1.0000 0.89500  0.37830  0.72900  Biso   1.000  H
  C94      1.0000 0.91850  0.56970  0.74708  Biso   1.000  C
  C95      1.0000 0.88985  0.68740  0.76283  Biso   1.000  C
  C96      1.0000 0.81716  0.69610  0.77341  Biso   1.000  C
  H56      1.0000 0.79830  0.77270  0.78560  Biso   1.000  H
  Zn9      1.0000 0.91930  0.72539  0.94140  Biso   1.000  Zn
  Zn10     1.0000 0.93570  0.97172  0.78109  Biso   1.000  Zn
  O17      1.0000 0.84086  0.99844  0.75999  Biso   1.000  O
  O18      1.0000 0.82675  0.17600  0.79956  Biso   1.000  O
  O19      1.0000 0.06182  0.38805  0.97301  Biso   1.000  O
  O20      1.0000 0.04453  0.20054  0.00712  Biso   1.000  O
  N33      1.0000 0.85458  0.59700  0.90754  Biso   1.000  N
  N34      1.0000 0.80985  0.77750  0.96021  Biso   1.000  N
  N35      1.0000 0.94240  0.87436  0.90143  Biso   1.000  N
  N36      1.0000 0.92946  0.85841  0.86192  Biso   1.000  N
  N37      1.0000 0.94743  0.96871  0.84149  Biso   1.000  N
  N38      1.0000 0.55466  0.27662  0.76533  Biso   1.000  N
  N39      1.0000 0.49564  0.21716  0.75282  Biso   1.000  N
  N40      1.0000 0.50980  0.09167  0.74154  Biso   1.000  N
  C97      1.0000 0.79140  0.87110  0.98757  Biso   1.000  C
  H57      1.0000 0.82750  0.91930  0.00070  Biso   1.000  H
  C98      1.0000 0.72070  0.89850  0.99694  Biso   1.000  C
  H58      1.0000 0.70930  0.96430  0.01600  Biso   1.000  H
  C99      1.0000 0.66820  0.82820  0.97795  Biso   1.000  C
  H59      1.0000 0.62000  0.84460  0.98400  Biso   1.000  H
  C100     1.0000 0.68640  0.73330  0.94996  Biso   1.000  C
  H60      1.0000 0.65070  0.68470  0.93660  Biso   1.000  H
  C101     1.0000 0.75788  0.70900  0.94135  Biso   1.000  C
  C102     1.0000 0.78340  0.60870  0.91134  Biso   1.000  C
  C103     1.0000 0.73700  0.53160  0.88813  Biso   1.000  C
  H61      1.0000 0.68740  0.54180  0.89070  Biso   1.000  H
  C104     1.0000 0.76470  0.44080  0.86153  Biso   1.000  C
  H62      1.0000 0.73400  0.38640  0.84640  Biso   1.000  H
  C105     1.0000 0.83660  0.42920  0.85699  Biso   1.000  C
  H63      1.0000 0.85610  0.36860  0.83840  Biso   1.000  H
  C106     1.0000 0.88060  0.50990  0.88067  Biso   1.000  C
  H64      1.0000 0.93020  0.50270  0.87760  Biso   1.000  H
  C107     1.0000 0.97051  0.00010  0.90688  Biso   1.000  C
  C108     1.0000 0.99320  0.06680  0.94193  Biso   1.000  C
  H65      1.0000 0.99150  0.02570  0.96740  Biso   1.000  H
  C109     1.0000 0.01813  0.19530  0.93748  Biso   1.000  C
  C110     1.0000 0.04309  0.26980  0.97500  Biso   1.000  C
  C111     1.0000 0.02043  0.25640  0.89879  Biso   1.000  C
  H66      1.0000 0.03740  0.34390  0.89670  Biso   1.000  H
  C112     1.0000 0.99853  0.19170  0.86413  Biso   1.000  C
  H67      1.0000 0.00040  0.23300  0.83870  Biso   1.000  H
  C113     1.0000 0.97317  0.06020  0.86879  Biso   1.000  C
  C114     1.0000 0.80370  0.09130  0.77618  Biso   1.000  C
  C115     1.0000 0.72480  0.08800  0.76515  Biso   1.000  C
  C116     1.0000 0.69595  0.97010  0.74782  Biso   1.000  C
  H68      1.0000 0.72660  0.89890  0.74200  Biso   1.000  H
  C117     1.0000 0.62428  0.95750  0.73938  Biso   1.000  C
  H69      1.0000 0.60500  0.87830  0.72900  Biso   1.000  H
  C118     1.0000 0.58150  0.06970  0.74708  Biso   1.000  C
  C119     1.0000 0.61015  0.18740  0.76283  Biso   1.000  C
  C120     1.0000 0.68284  0.19610  0.77341  Biso   1.000  C
  H70      1.0000 0.70170  0.27270  0.78560  Biso   1.000  H
  Zn11     1.0000 0.58070  0.27461  0.44140  Biso   1.000  Zn
  Zn12     1.0000 0.56430  0.02828  0.28109  Biso   1.000  Zn
  O21      1.0000 0.65914  0.00156  0.25999  Biso   1.000  O
  O22      1.0000 0.67325  0.82400  0.29956  Biso   1.000  O
  O23      1.0000 0.43818  0.61195  0.47301  Biso   1.000  O
  O24      1.0000 0.45547  0.79946  0.50712  Biso   1.000  O
  N41      1.0000 0.64542  0.40300  0.40754  Biso   1.000  N
  N42      1.0000 0.69015  0.22250  0.46021  Biso   1.000  N
  N43      1.0000 0.55760  0.12564  0.40143  Biso   1.000  N
  N44      1.0000 0.57054  0.14159  0.36192  Biso   1.000  N
  N45      1.0000 0.55257  0.03129  0.34149  Biso   1.000  N
  N46      1.0000 0.94534  0.72338  0.26533  Biso   1.000  N
  N47      1.0000 0.00436  0.78284  0.25282  Biso   1.000  N
  N48      1.0000 0.99020  0.90833  0.24154  Biso   1.000  N
  C121     1.0000 0.70860  0.12890  0.48757  Biso   1.000  C
  H71      1.0000 0.67250  0.08070  0.50070  Biso   1.000  H
  C122     1.0000 0.77930  0.10150  0.49694  Biso   1.000  C
  H72      1.0000 0.79070  0.03570  0.51600  Biso   1.000  H
  C123     1.0000 0.83180  0.17180  0.47795  Biso   1.000  C
  H73      1.0000 0.88000  0.15540  0.48400  Biso   1.000  H
  C124     1.0000 0.81360  0.26670  0.44996  Biso   1.000  C
  H74      1.0000 0.84930  0.31530  0.43660  Biso   1.000  H
  C125     1.0000 0.74212  0.29100  0.44135  Biso   1.000  C
  C126     1.0000 0.71660  0.39130  0.41134  Biso   1.000  C
  C127     1.0000 0.76300  0.46840  0.38813  Biso   1.000  C
  H75      1.0000 0.81260  0.45820  0.39070  Biso   1.000  H
  C128     1.0000 0.73530  0.55920  0.36153  Biso   1.000  C
  H76      1.0000 0.76600  0.61360  0.34640  Biso   1.000  H
  C129     1.0000 0.66340  0.57080  0.35699  Biso   1.000  C
  H77      1.0000 0.64390  0.63140  0.33840  Biso   1.000  H
  C130     1.0000 0.61940  0.49010  0.38067  Biso   1.000  C
  H78      1.0000 0.56980  0.49730  0.37760  Biso   1.000  H
  C131     1.0000 0.52949  0.99990  0.40688  Biso   1.000  C
  C132     1.0000 0.50680  0.93320  0.44193  Biso   1.000  C
  H79      1.0000 0.50850  0.97430  0.46740  Biso   1.000  H
  C133     1.0000 0.48187  0.80470  0.43748  Biso   1.000  C
  C134     1.0000 0.45691  0.73020  0.47500  Biso   1.000  C
  C135     1.0000 0.47957  0.74360  0.39879  Biso   1.000  C
  H80      1.0000 0.46260  0.65610  0.39670  Biso   1.000  H
  C136     1.0000 0.50147  0.80830  0.36413  Biso   1.000  C
  H81      1.0000 0.49960  0.76700  0.33870  Biso   1.000  H
  C137     1.0000 0.52683  0.93980  0.36879  Biso   1.000  C
  C138     1.0000 0.69630  0.90870  0.27618  Biso   1.000  C
  C139     1.0000 0.77520  0.91200  0.26515  Biso   1.000  C
  C140     1.0000 0.80405  0.02990  0.24782  Biso   1.000  C
  H82      1.0000 0.77340  0.10110  0.24200  Biso   1.000  H
  C141     1.0000 0.87572  0.04250  0.23938  Biso   1.000  C
  H83      1.0000 0.89500  0.12170  0.22900  Biso   1.000  H
  C142     1.0000 0.91850  0.93030  0.24708  Biso   1.000  C
  C143     1.0000 0.88985  0.81260  0.26283  Biso   1.000  C
  C144     1.0000 0.81716  0.80390  0.27341  Biso   1.000  C
  H84      1.0000 0.79830  0.72730  0.28560  Biso   1.000  H
  Zn13     1.0000 0.08070  0.22539  0.55860  Biso   1.000  Zn
  Zn14     1.0000 0.06430  0.47172  0.71891  Biso   1.000  Zn
  O25      1.0000 0.15914  0.49844  0.74001  Biso   1.000  O
  O26      1.0000 0.17325  0.67600  0.70044  Biso   1.000  O
  O27      1.0000 0.93818  0.88805  0.52699  Biso   1.000  O
  O28      1.0000 0.95547  0.70054  0.49288  Biso   1.000  O
  N49      1.0000 0.14542  0.09700  0.59246  Biso   1.000  N
  N50      1.0000 0.19015  0.27750  0.53979  Biso   1.000  N
  N51      1.0000 0.05760  0.37436  0.59857  Biso   1.000  N
  N52      1.0000 0.07054  0.35841  0.63808  Biso   1.000  N
  N53      1.0000 0.05257  0.46871  0.65851  Biso   1.000  N
  N54      1.0000 0.44534  0.77662  0.73467  Biso   1.000  N
  N55      1.0000 0.50436  0.71716  0.74718  Biso   1.000  N
  N56      1.0000 0.49020  0.59167  0.75846  Biso   1.000  N
  C145     1.0000 0.20860  0.37110  0.51243  Biso   1.000  C
  H85      1.0000 0.17250  0.41930  0.49930  Biso   1.000  H
  C146     1.0000 0.27930  0.39850  0.50306  Biso   1.000  C
  H86      1.0000 0.29070  0.46430  0.48400  Biso   1.000  H
  C147     1.0000 0.33180  0.32820  0.52205  Biso   1.000  C
  H87      1.0000 0.38000  0.34460  0.51600  Biso   1.000  H
  C148     1.0000 0.31360  0.23330  0.55004  Biso   1.000  C
  H88      1.0000 0.34930  0.18470  0.56340  Biso   1.000  H
  C149     1.0000 0.24212  0.20900  0.55865  Biso   1.000  C
  C150     1.0000 0.21660  0.10870  0.58866  Biso   1.000  C
  C151     1.0000 0.26300  0.03160  0.61187  Biso   1.000  C
  H89      1.0000 0.31260  0.04180  0.60930  Biso   1.000  H
  C152     1.0000 0.23530  0.94080  0.63847  Biso   1.000  C
  H90      1.0000 0.26600  0.88640  0.65360  Biso   1.000  H
  C153     1.0000 0.16340  0.92920  0.64301  Biso   1.000  C
  H91      1.0000 0.14390  0.86860  0.66160  Biso   1.000  H
  C154     1.0000 0.11940  0.00990  0.61933  Biso   1.000  C
  H92      1.0000 0.06980  0.00270  0.62240  Biso   1.000  H
  C155     1.0000 0.02949  0.50010  0.59312  Biso   1.000  C
  C156     1.0000 0.00680  0.56680  0.55807  Biso   1.000  C
  H93      1.0000 0.00850  0.52570  0.53260  Biso   1.000  H
  C157     1.0000 0.98187  0.69530  0.56252  Biso   1.000  C
  C158     1.0000 0.95691  0.76980  0.52500  Biso   1.000  C
  C159     1.0000 0.97957  0.75640  0.60121  Biso   1.000  C
  H94      1.0000 0.96260  0.84390  0.60330  Biso   1.000  H
  C160     1.0000 0.00147  0.69170  0.63587  Biso   1.000  C
  H95      1.0000 0.99960  0.73300  0.66130  Biso   1.000  H
  C161     1.0000 0.02683  0.56020  0.63121  Biso   1.000  C
  C162     1.0000 0.19630  0.59130  0.72382  Biso   1.000  C
  C163     1.0000 0.27520  0.58800  0.73485  Biso   1.000  C
  C164     1.0000 0.30405  0.47010  0.75218  Biso   1.000  C
  H96      1.0000 0.27340  0.39890  0.75800  Biso   1.000  H
  C165     1.0000 0.37572  0.45750  0.76062  Biso   1.000  C
  H97      1.0000 0.39500  0.37830  0.77100  Biso   1.000  H
  C166     1.0000 0.41850  0.56970  0.75292  Biso   1.000  C
  C167     1.0000 0.38985  0.68740  0.73717  Biso   1.000  C
  C168     1.0000 0.31716  0.69610  0.72659  Biso   1.000  C
  H98      1.0000 0.29830  0.77270  0.71440  Biso   1.000  H
  Zn15     1.0000 0.41930  0.77461  0.05860  Biso   1.000  Zn
  Zn16     1.0000 0.43570  0.52828  0.21891  Biso   1.000  Zn
  O29      1.0000 0.34086  0.50156  0.24001  Biso   1.000  O
  O30      1.0000 0.32675  0.32400  0.20044  Biso   1.000  O
  O31      1.0000 0.56182  0.11195  0.02699  Biso   1.000  O
  O32      1.0000 0.54453  0.29946  0.99288  Biso   1.000  O
  N57      1.0000 0.35458  0.90300  0.09246  Biso   1.000  N
  N58      1.0000 0.30985  0.72250  0.03979  Biso   1.000  N
  N59      1.0000 0.44240  0.62564  0.09857  Biso   1.000  N
  N60      1.0000 0.42946  0.64159  0.13808  Biso   1.000  N
  N61      1.0000 0.44743  0.53129  0.15851  Biso   1.000  N
  N62      1.0000 0.05466  0.22338  0.23467  Biso   1.000  N
  N63      1.0000 0.99564  0.28284  0.24718  Biso   1.000  N
  N64      1.0000 0.00980  0.40833  0.25846  Biso   1.000  N
  C169     1.0000 0.29140  0.62890  0.01243  Biso   1.000  C
  H99      1.0000 0.32750  0.58070  0.99930  Biso   1.000  H
  C170     1.0000 0.22070  0.60150  0.00306  Biso   1.000  C
  H100     1.0000 0.20930  0.53570  0.98400  Biso   1.000  H
  C171     1.0000 0.16820  0.67180  0.02205  Biso   1.000  C
  H101     1.0000 0.12000  0.65540  0.01600  Biso   1.000  H
  C172     1.0000 0.18640  0.76670  0.05004  Biso   1.000  C
  H102     1.0000 0.15070  0.81530  0.06340  Biso   1.000  H
  C173     1.0000 0.25788  0.79100  0.05865  Biso   1.000  C
  C174     1.0000 0.28340  0.89130  0.08866  Biso   1.000  C
  C175     1.0000 0.23700  0.96840  0.11187  Biso   1.000  C
  H103     1.0000 0.18740  0.95820  0.10930  Biso   1.000  H
  C176     1.0000 0.26470  0.05920  0.13847  Biso   1.000  C
  H104     1.0000 0.23400  0.11360  0.15360  Biso   1.000  H
  C177     1.0000 0.33660  0.07080  0.14301  Biso   1.000  C
  H105     1.0000 0.35610  0.13140  0.16160  Biso   1.000  H
  C178     1.0000 0.38060  0.99010  0.11933  Biso   1.000  C
  H106     1.0000 0.43020  0.99730  0.12240  Biso   1.000  H
  C179     1.0000 0.47051  0.49990  0.09312  Biso   1.000  C
  C180     1.0000 0.49320  0.43320  0.05807  Biso   1.000  C
  H107     1.0000 0.49150  0.47430  0.03260  Biso   1.000  H
  C181     1.0000 0.51813  0.30470  0.06252  Biso   1.000  C
  C182     1.0000 0.54309  0.23020  0.02500  Biso   1.000  C
  C183     1.0000 0.52043  0.24360  0.10121  Biso   1.000  C
  H108     1.0000 0.53740  0.15610  0.10330  Biso   1.000  H
  C184     1.0000 0.49853  0.30830  0.13587  Biso   1.000  C
  H109     1.0000 0.50040  0.26700  0.16130  Biso   1.000  H
  C185     1.0000 0.47317  0.43980  0.13121  Biso   1.000  C
  C186     1.0000 0.30370  0.40870  0.22382  Biso   1.000  C
  C187     1.0000 0.22480  0.41200  0.23485  Biso   1.000  C
  C188     1.0000 0.19595  0.52990  0.25218  Biso   1.000  C
  H110     1.0000 0.22660  0.60110  0.25800  Biso   1.000  H
  C189     1.0000 0.12428  0.54250  0.26062  Biso   1.000  C
  H111     1.0000 0.10500  0.62170  0.27100  Biso   1.000  H
  C190     1.0000 0.08150  0.43030  0.25292  Biso   1.000  C
  C191     1.0000 0.11015  0.31260  0.23717  Biso   1.000  C
  C192     1.0000 0.18284  0.30390  0.22659  Biso   1.000  C
  H112     1.0000 0.20170  0.22730  0.21440  Biso   1.000  H
