data_image0
_cell_length_a       27.657
_cell_length_b       19.775
_cell_length_c       9.508
_cell_angle_alpha    90
_cell_angle_beta     90
_cell_angle_gamma    90

_symmetry_space_group_name_H-M    "P 1"
_symmetry_int_tables_number       1

loop_
  _symmetry_equiv_pos_as_xyz
  'x, y, z'

loop_
  _atom_site_label
  _atom_site_occupancy
  _atom_site_fract_x
  _atom_site_fract_y
  _atom_site_fract_z
  _atom_site_thermal_displace_type
  _atom_site_B_iso_or_equiv
  _atom_site_type_symbol
  La1      1.0000 0.13260  0.36204  0.74817  Biso   1.000  La
  S1       1.0000 0.12997  0.25521  0.48922  Biso   1.000  S
  O1       1.0000 0.21722  0.41869  0.66160  Biso   1.000  O
  O2       1.0000 0.21821  0.33567  0.84000  Biso   1.000  O
  O3       1.0000 0.17151  0.28833  0.55770  Biso   1.000  O
  O4       1.0000 0.04296  0.34980  0.77640  Biso   1.000  O
  O5       1.0000 0.13234  0.26320  0.33560  Biso   1.000  O
  O6       1.0000 0.08711  0.28870  0.54800  Biso   1.000  O
  O7       1.0000 0.13648  0.46150  0.90180  Biso   1.000  O
  O8       1.0000 0.12893  0.18237  0.51510  Biso   1.000  O
  O9       1.0000 0.07591  0.45246  0.07990  Biso   1.000  O
  O10      1.0000 0.88232  0.44830  0.56470  Biso   1.000  O
  O11      1.0000 0.94279  0.46910  0.39330  Biso   1.000  O
  O12      1.0000 0.05551  0.33130  0.22800  Biso   1.000  O
  La2      1.0000 0.63260  0.86204  0.74817  Biso   1.000  La
  S2       1.0000 0.62997  0.75521  0.48922  Biso   1.000  S
  O13      1.0000 0.71722  0.91869  0.66160  Biso   1.000  O
  O14      1.0000 0.71821  0.83567  0.84000  Biso   1.000  O
  O15      1.0000 0.67151  0.78833  0.55770  Biso   1.000  O
  O16      1.0000 0.54296  0.84980  0.77640  Biso   1.000  O
  O17      1.0000 0.63234  0.76320  0.33560  Biso   1.000  O
  O18      1.0000 0.58711  0.78870  0.54800  Biso   1.000  O
  O19      1.0000 0.63648  0.96150  0.90180  Biso   1.000  O
  O20      1.0000 0.62893  0.68237  0.51510  Biso   1.000  O
  O21      1.0000 0.57591  0.95246  0.07990  Biso   1.000  O
  O22      1.0000 0.38232  0.94830  0.56470  Biso   1.000  O
  O23      1.0000 0.44279  0.96910  0.39330  Biso   1.000  O
  O24      1.0000 0.55551  0.83130  0.22800  Biso   1.000  O
  La3      1.0000 0.86740  0.13796  0.24817  Biso   1.000  La
  S3       1.0000 0.87003  0.24479  0.98922  Biso   1.000  S
  O25      1.0000 0.78278  0.08131  0.16160  Biso   1.000  O
  O26      1.0000 0.78179  0.16433  0.34000  Biso   1.000  O
  O27      1.0000 0.82849  0.21167  0.05770  Biso   1.000  O
  O28      1.0000 0.95704  0.15020  0.27640  Biso   1.000  O
  O29      1.0000 0.86766  0.23680  0.83560  Biso   1.000  O
  O30      1.0000 0.91289  0.21130  0.04800  Biso   1.000  O
  O31      1.0000 0.86352  0.03850  0.40180  Biso   1.000  O
  O32      1.0000 0.87107  0.31763  0.01510  Biso   1.000  O
  O33      1.0000 0.92409  0.04754  0.57990  Biso   1.000  O
  O34      1.0000 0.11768  0.05170  0.06470  Biso   1.000  O
  O35      1.0000 0.05721  0.03090  0.89330  Biso   1.000  O
  O36      1.0000 0.94449  0.16870  0.72800  Biso   1.000  O
  La4      1.0000 0.36740  0.63796  0.24817  Biso   1.000  La
  S4       1.0000 0.37003  0.74479  0.98922  Biso   1.000  S
  O37      1.0000 0.28278  0.58131  0.16160  Biso   1.000  O
  O38      1.0000 0.28179  0.66433  0.34000  Biso   1.000  O
  O39      1.0000 0.32849  0.71167  0.05770  Biso   1.000  O
  O40      1.0000 0.45704  0.65020  0.27640  Biso   1.000  O
  O41      1.0000 0.36766  0.73680  0.83560  Biso   1.000  O
  O42      1.0000 0.41289  0.71130  0.04800  Biso   1.000  O
  O43      1.0000 0.36352  0.53850  0.40180  Biso   1.000  O
  O44      1.0000 0.37107  0.81763  0.01510  Biso   1.000  O
  O45      1.0000 0.42409  0.54754  0.57990  Biso   1.000  O
  O46      1.0000 0.61768  0.55170  0.06470  Biso   1.000  O
  O47      1.0000 0.55721  0.53090  0.89330  Biso   1.000  O
  O48      1.0000 0.44449  0.66870  0.72800  Biso   1.000  O
  La5      1.0000 0.86740  0.86204  0.75183  Biso   1.000  La
  S5       1.0000 0.87003  0.75521  0.01078  Biso   1.000  S
  O49      1.0000 0.78278  0.91869  0.83840  Biso   1.000  O
  O50      1.0000 0.78179  0.83567  0.66000  Biso   1.000  O
  O51      1.0000 0.82849  0.78833  0.94230  Biso   1.000  O
  O52      1.0000 0.95704  0.84980  0.72360  Biso   1.000  O
  O53      1.0000 0.86766  0.76320  0.16440  Biso   1.000  O
  O54      1.0000 0.91289  0.78870  0.95200  Biso   1.000  O
  O55      1.0000 0.86352  0.96150  0.59820  Biso   1.000  O
  O56      1.0000 0.87107  0.68237  0.98490  Biso   1.000  O
  O57      1.0000 0.92409  0.95246  0.42010  Biso   1.000  O
  O58      1.0000 0.11768  0.94830  0.93530  Biso   1.000  O
  O59      1.0000 0.05721  0.96910  0.10670  Biso   1.000  O
  O60      1.0000 0.94449  0.83130  0.27200  Biso   1.000  O
  La6      1.0000 0.36740  0.36204  0.75183  Biso   1.000  La
  S6       1.0000 0.37003  0.25521  0.01078  Biso   1.000  S
  O61      1.0000 0.28278  0.41869  0.83840  Biso   1.000  O
  O62      1.0000 0.28179  0.33567  0.66000  Biso   1.000  O
  O63      1.0000 0.32849  0.28833  0.94230  Biso   1.000  O
  O64      1.0000 0.45704  0.34980  0.72360  Biso   1.000  O
  O65      1.0000 0.36766  0.26320  0.16440  Biso   1.000  O
  O66      1.0000 0.41289  0.28870  0.95200  Biso   1.000  O
  O67      1.0000 0.36352  0.46150  0.59820  Biso   1.000  O
  O68      1.0000 0.37107  0.18237  0.98490  Biso   1.000  O
  O69      1.0000 0.42409  0.45246  0.42010  Biso   1.000  O
  O70      1.0000 0.61768  0.44830  0.93530  Biso   1.000  O
  O71      1.0000 0.55721  0.46910  0.10670  Biso   1.000  O
  O72      1.0000 0.44449  0.33130  0.27200  Biso   1.000  O
  La7      1.0000 0.13260  0.63796  0.25183  Biso   1.000  La
  S7       1.0000 0.12997  0.74479  0.51078  Biso   1.000  S
  O73      1.0000 0.21722  0.58131  0.33840  Biso   1.000  O
  O74      1.0000 0.21821  0.66433  0.16000  Biso   1.000  O
  O75      1.0000 0.17151  0.71167  0.44230  Biso   1.000  O
  O76      1.0000 0.04296  0.65020  0.22360  Biso   1.000  O
  O77      1.0000 0.13234  0.73680  0.66440  Biso   1.000  O
  O78      1.0000 0.08711  0.71130  0.45200  Biso   1.000  O
  O79      1.0000 0.13648  0.53850  0.09820  Biso   1.000  O
  O80      1.0000 0.12893  0.81763  0.48490  Biso   1.000  O
  O81      1.0000 0.07591  0.54754  0.92010  Biso   1.000  O
  O82      1.0000 0.88232  0.55170  0.43530  Biso   1.000  O
  O83      1.0000 0.94279  0.53090  0.60670  Biso   1.000  O
  O84      1.0000 0.05551  0.66870  0.77200  Biso   1.000  O
  La8      1.0000 0.63260  0.13796  0.25183  Biso   1.000  La
  S8       1.0000 0.62997  0.24479  0.51078  Biso   1.000  S
  O85      1.0000 0.71722  0.08131  0.33840  Biso   1.000  O
  O86      1.0000 0.71821  0.16433  0.16000  Biso   1.000  O
  O87      1.0000 0.67151  0.21167  0.44230  Biso   1.000  O
  O88      1.0000 0.54296  0.15020  0.22360  Biso   1.000  O
  O89      1.0000 0.63234  0.23680  0.66440  Biso   1.000  O
  O90      1.0000 0.58711  0.21130  0.45200  Biso   1.000  O
  O91      1.0000 0.63648  0.03850  0.09820  Biso   1.000  O
  O92      1.0000 0.62893  0.31763  0.48490  Biso   1.000  O
  O93      1.0000 0.57591  0.04754  0.92010  Biso   1.000  O
  O94      1.0000 0.38232  0.05170  0.43530  Biso   1.000  O
  O95      1.0000 0.44279  0.03090  0.60670  Biso   1.000  O
  O96      1.0000 0.55551  0.16870  0.77200  Biso   1.000  O
  La9      1.0000 0.86740  0.63796  0.25183  Biso   1.000  La
  S9       1.0000 0.87003  0.74479  0.51078  Biso   1.000  S
  O97      1.0000 0.78278  0.58131  0.33840  Biso   1.000  O
  O98      1.0000 0.78179  0.66433  0.16000  Biso   1.000  O
  O99      1.0000 0.82849  0.71167  0.44230  Biso   1.000  O
  O100     1.0000 0.95704  0.65020  0.22360  Biso   1.000  O
  O101     1.0000 0.86766  0.73680  0.66440  Biso   1.000  O
  O102     1.0000 0.91289  0.71130  0.45200  Biso   1.000  O
  O103     1.0000 0.86352  0.53850  0.09820  Biso   1.000  O
  O104     1.0000 0.87107  0.81763  0.48490  Biso   1.000  O
  O105     1.0000 0.92409  0.54754  0.92010  Biso   1.000  O
  O106     1.0000 0.11768  0.55170  0.43530  Biso   1.000  O
  O107     1.0000 0.05721  0.53090  0.60670  Biso   1.000  O
  O108     1.0000 0.94449  0.66870  0.77200  Biso   1.000  O
  La10     1.0000 0.36740  0.13796  0.25183  Biso   1.000  La
  S10      1.0000 0.37003  0.24479  0.51078  Biso   1.000  S
  O109     1.0000 0.28278  0.08131  0.33840  Biso   1.000  O
  O110     1.0000 0.28179  0.16433  0.16000  Biso   1.000  O
  O111     1.0000 0.32849  0.21167  0.44230  Biso   1.000  O
  O112     1.0000 0.45704  0.15020  0.22360  Biso   1.000  O
  O113     1.0000 0.36766  0.23680  0.66440  Biso   1.000  O
  O114     1.0000 0.41289  0.21130  0.45200  Biso   1.000  O
  O115     1.0000 0.36352  0.03850  0.09820  Biso   1.000  O
  O116     1.0000 0.37107  0.31763  0.48490  Biso   1.000  O
  O117     1.0000 0.42409  0.04754  0.92010  Biso   1.000  O
  O118     1.0000 0.61768  0.05170  0.43530  Biso   1.000  O
  O119     1.0000 0.55721  0.03090  0.60670  Biso   1.000  O
  O120     1.0000 0.44449  0.16870  0.77200  Biso   1.000  O
  La11     1.0000 0.13260  0.86204  0.75183  Biso   1.000  La
  S11      1.0000 0.12997  0.75521  0.01078  Biso   1.000  S
  O121     1.0000 0.21722  0.91869  0.83840  Biso   1.000  O
  O122     1.0000 0.21821  0.83567  0.66000  Biso   1.000  O
  O123     1.0000 0.17151  0.78833  0.94230  Biso   1.000  O
  O124     1.0000 0.04296  0.84980  0.72360  Biso   1.000  O
  O125     1.0000 0.13234  0.76320  0.16440  Biso   1.000  O
  O126     1.0000 0.08711  0.78870  0.95200  Biso   1.000  O
  O127     1.0000 0.13648  0.96150  0.59820  Biso   1.000  O
  O128     1.0000 0.12893  0.68237  0.98490  Biso   1.000  O
  O129     1.0000 0.07591  0.95246  0.42010  Biso   1.000  O
  O130     1.0000 0.88232  0.94830  0.93530  Biso   1.000  O
  O131     1.0000 0.94279  0.96910  0.10670  Biso   1.000  O
  O132     1.0000 0.05551  0.83130  0.27200  Biso   1.000  O
  La12     1.0000 0.63260  0.36204  0.75183  Biso   1.000  La
  S12      1.0000 0.62997  0.25521  0.01078  Biso   1.000  S
  O133     1.0000 0.71722  0.41869  0.83840  Biso   1.000  O
  O134     1.0000 0.71821  0.33567  0.66000  Biso   1.000  O
  O135     1.0000 0.67151  0.28833  0.94230  Biso   1.000  O
  O136     1.0000 0.54296  0.34980  0.72360  Biso   1.000  O
  O137     1.0000 0.63234  0.26320  0.16440  Biso   1.000  O
  O138     1.0000 0.58711  0.28870  0.95200  Biso   1.000  O
  O139     1.0000 0.63648  0.46150  0.59820  Biso   1.000  O
  O140     1.0000 0.62893  0.18237  0.98490  Biso   1.000  O
  O141     1.0000 0.57591  0.45246  0.42010  Biso   1.000  O
  O142     1.0000 0.38232  0.44830  0.93530  Biso   1.000  O
  O143     1.0000 0.44279  0.46910  0.10670  Biso   1.000  O
  O144     1.0000 0.55551  0.33130  0.27200  Biso   1.000  O
  La13     1.0000 0.13260  0.13796  0.24817  Biso   1.000  La
  S13      1.0000 0.12997  0.24479  0.98922  Biso   1.000  S
  O145     1.0000 0.21722  0.08131  0.16160  Biso   1.000  O
  O146     1.0000 0.21821  0.16433  0.34000  Biso   1.000  O
  O147     1.0000 0.17151  0.21167  0.05770  Biso   1.000  O
  O148     1.0000 0.04296  0.15020  0.27640  Biso   1.000  O
  O149     1.0000 0.13234  0.23680  0.83560  Biso   1.000  O
  O150     1.0000 0.08711  0.21130  0.04800  Biso   1.000  O
  O151     1.0000 0.13648  0.03850  0.40180  Biso   1.000  O
  O152     1.0000 0.12893  0.31763  0.01510  Biso   1.000  O
  O153     1.0000 0.07591  0.04754  0.57990  Biso   1.000  O
  O154     1.0000 0.88232  0.05170  0.06470  Biso   1.000  O
  O155     1.0000 0.94279  0.03090  0.89330  Biso   1.000  O
  O156     1.0000 0.05551  0.16870  0.72800  Biso   1.000  O
  La14     1.0000 0.63260  0.63796  0.24817  Biso   1.000  La
  S14      1.0000 0.62997  0.74479  0.98922  Biso   1.000  S
  O157     1.0000 0.71722  0.58131  0.16160  Biso   1.000  O
  O158     1.0000 0.71821  0.66433  0.34000  Biso   1.000  O
  O159     1.0000 0.67151  0.71167  0.05770  Biso   1.000  O
  O160     1.0000 0.54296  0.65020  0.27640  Biso   1.000  O
  O161     1.0000 0.63234  0.73680  0.83560  Biso   1.000  O
  O162     1.0000 0.58711  0.71130  0.04800  Biso   1.000  O
  O163     1.0000 0.63648  0.53850  0.40180  Biso   1.000  O
  O164     1.0000 0.62893  0.81763  0.01510  Biso   1.000  O
  O165     1.0000 0.57591  0.54754  0.57990  Biso   1.000  O
  O166     1.0000 0.38232  0.55170  0.06470  Biso   1.000  O
  O167     1.0000 0.44279  0.53090  0.89330  Biso   1.000  O
  O168     1.0000 0.55551  0.66870  0.72800  Biso   1.000  O
  La15     1.0000 0.86740  0.36204  0.74817  Biso   1.000  La
  S15      1.0000 0.87003  0.25521  0.48922  Biso   1.000  S
  O169     1.0000 0.78278  0.41869  0.66160  Biso   1.000  O
  O170     1.0000 0.78179  0.33567  0.84000  Biso   1.000  O
  O171     1.0000 0.82849  0.28833  0.55770  Biso   1.000  O
  O172     1.0000 0.95704  0.34980  0.77640  Biso   1.000  O
  O173     1.0000 0.86766  0.26320  0.33560  Biso   1.000  O
  O174     1.0000 0.91289  0.28870  0.54800  Biso   1.000  O
  O175     1.0000 0.86352  0.46150  0.90180  Biso   1.000  O
  O176     1.0000 0.87107  0.18237  0.51510  Biso   1.000  O
  O177     1.0000 0.92409  0.45246  0.07990  Biso   1.000  O
  O178     1.0000 0.11768  0.44830  0.56470  Biso   1.000  O
  O179     1.0000 0.05721  0.46910  0.39330  Biso   1.000  O
  O180     1.0000 0.94449  0.33130  0.22800  Biso   1.000  O
  La16     1.0000 0.36740  0.86204  0.74817  Biso   1.000  La
  S16      1.0000 0.37003  0.75521  0.48922  Biso   1.000  S
  O181     1.0000 0.28278  0.91869  0.66160  Biso   1.000  O
  O182     1.0000 0.28179  0.83567  0.84000  Biso   1.000  O
  O183     1.0000 0.32849  0.78833  0.55770  Biso   1.000  O
  O184     1.0000 0.45704  0.84980  0.77640  Biso   1.000  O
  O185     1.0000 0.36766  0.76320  0.33560  Biso   1.000  O
  O186     1.0000 0.41289  0.78870  0.54800  Biso   1.000  O
  O187     1.0000 0.36352  0.96150  0.90180  Biso   1.000  O
  O188     1.0000 0.37107  0.68237  0.51510  Biso   1.000  O
  O189     1.0000 0.42409  0.95246  0.07990  Biso   1.000  O
  O190     1.0000 0.61768  0.94830  0.56470  Biso   1.000  O
  O191     1.0000 0.55721  0.96910  0.39330  Biso   1.000  O
  O192     1.0000 0.44449  0.83130  0.22800  Biso   1.000  O
  La17     1.0000 0.00000  0.43257  0.21345  Biso   1.000  La
  S17      1.0000 0.00000  0.37545  0.84880  Biso   1.000  S
  Na1      1.0000 0.00000  0.24225  0.11850  Biso   1.000  Na
  O193     1.0000 0.00000  0.35240  0.99520  Biso   1.000  O
  O194     1.0000 0.00000  0.44820  0.84650  Biso   1.000  O
  O195     1.0000 0.00000  0.36110  0.47000  Biso   1.000  O
  La18     1.0000 0.50000  0.93257  0.21345  Biso   1.000  La
  S18      1.0000 0.50000  0.87545  0.84880  Biso   1.000  S
  Na2      1.0000 0.50000  0.74225  0.11850  Biso   1.000  Na
  O196     1.0000 0.50000  0.85240  0.99520  Biso   1.000  O
  O197     1.0000 0.50000  0.94820  0.84650  Biso   1.000  O
  O198     1.0000 0.50000  0.86110  0.47000  Biso   1.000  O
  La19     1.0000 0.00000  0.06743  0.71345  Biso   1.000  La
  S19      1.0000 0.00000  0.12455  0.34880  Biso   1.000  S
  Na3      1.0000 0.00000  0.25775  0.61850  Biso   1.000  Na
  O199     1.0000 0.00000  0.14760  0.49520  Biso   1.000  O
  O200     1.0000 0.00000  0.05180  0.34650  Biso   1.000  O
  O201     1.0000 0.00000  0.13890  0.97000  Biso   1.000  O
  La20     1.0000 0.50000  0.56743  0.71345  Biso   1.000  La
  S20      1.0000 0.50000  0.62455  0.34880  Biso   1.000  S
  Na4      1.0000 0.50000  0.75775  0.61850  Biso   1.000  Na
  O202     1.0000 0.50000  0.64760  0.49520  Biso   1.000  O
  O203     1.0000 0.50000  0.55180  0.34650  Biso   1.000  O
  O204     1.0000 0.50000  0.63890  0.97000  Biso   1.000  O
  La21     1.0000 0.00000  0.93257  0.28655  Biso   1.000  La
  S21      1.0000 0.00000  0.87545  0.65120  Biso   1.000  S
  Na5      1.0000 0.00000  0.74225  0.38150  Biso   1.000  Na
  O205     1.0000 0.00000  0.85240  0.50480  Biso   1.000  O
  O206     1.0000 0.00000  0.94820  0.65350  Biso   1.000  O
  O207     1.0000 0.00000  0.86110  0.03000  Biso   1.000  O
  La22     1.0000 0.50000  0.43257  0.28655  Biso   1.000  La
  S22      1.0000 0.50000  0.37545  0.65120  Biso   1.000  S
  Na6      1.0000 0.50000  0.24225  0.38150  Biso   1.000  Na
  O208     1.0000 0.50000  0.35240  0.50480  Biso   1.000  O
  O209     1.0000 0.50000  0.44820  0.65350  Biso   1.000  O
  O210     1.0000 0.50000  0.36110  0.03000  Biso   1.000  O
  La23     1.0000 0.00000  0.56743  0.78655  Biso   1.000  La
  S23      1.0000 0.00000  0.62455  0.15120  Biso   1.000  S
  Na7      1.0000 0.00000  0.75775  0.88150  Biso   1.000  Na
  O211     1.0000 0.00000  0.64760  0.00480  Biso   1.000  O
  O212     1.0000 0.00000  0.55180  0.15350  Biso   1.000  O
  O213     1.0000 0.00000  0.63890  0.53000  Biso   1.000  O
  La24     1.0000 0.50000  0.06743  0.78655  Biso   1.000  La
  S24      1.0000 0.50000  0.12455  0.15120  Biso   1.000  S
  Na8      1.0000 0.50000  0.25775  0.88150  Biso   1.000  Na
  O214     1.0000 0.50000  0.14760  0.00480  Biso   1.000  O
  O215     1.0000 0.50000  0.05180  0.15350  Biso   1.000  O
  O216     1.0000 0.50000  0.13890  0.53000  Biso   1.000  O
  S25      1.0000 0.10522  0.50000  0.00000  Biso   1.000  S
  S26      1.0000 0.60522  0.00000  0.00000  Biso   1.000  S
  S27      1.0000 0.89478  0.00000  0.50000  Biso   1.000  S
  S28      1.0000 0.39478  0.50000  0.50000  Biso   1.000  S
  S29      1.0000 0.89478  0.50000  0.00000  Biso   1.000  S
  S30      1.0000 0.39478  0.00000  0.00000  Biso   1.000  S
  S31      1.0000 0.10522  0.00000  0.50000  Biso   1.000  S
  S32      1.0000 0.60522  0.50000  0.50000  Biso   1.000  S
  S33      1.0000 0.25000  0.37681  0.75000  Biso   1.000  S
  S34      1.0000 0.75000  0.12319  0.25000  Biso   1.000  S
  S35      1.0000 0.75000  0.87681  0.75000  Biso   1.000  S
  S36      1.0000 0.25000  0.62319  0.25000  Biso   1.000  S
  S37      1.0000 0.75000  0.62319  0.25000  Biso   1.000  S
  S38      1.0000 0.25000  0.12319  0.25000  Biso   1.000  S
  S39      1.0000 0.25000  0.87681  0.75000  Biso   1.000  S
  S40      1.0000 0.75000  0.37681  0.75000  Biso   1.000  S
  S41      1.0000 0.91273  0.50000  0.50000  Biso   1.000  S
  S42      1.0000 0.41273  0.00000  0.50000  Biso   1.000  S
  S43      1.0000 0.08727  0.00000  0.00000  Biso   1.000  S
  S44      1.0000 0.58727  0.50000  0.00000  Biso   1.000  S
  S45      1.0000 0.08727  0.50000  0.50000  Biso   1.000  S
  S46      1.0000 0.58727  0.00000  0.50000  Biso   1.000  S
  S47      1.0000 0.91273  0.00000  0.00000  Biso   1.000  S
  S48      1.0000 0.41273  0.50000  0.00000  Biso   1.000  S
