data_image0
_cell_length_a       9.481
_cell_length_b       15.126
_cell_length_c       15.232
_cell_angle_alpha    64.815
_cell_angle_beta     78.717
_cell_angle_gamma    78.977

_symmetry_space_group_name_H-M    "P 1"
_symmetry_int_tables_number       1

loop_
  _symmetry_equiv_pos_as_xyz
  'x, y, z'

loop_
  _atom_site_label
  _atom_site_occupancy
  _atom_site_fract_x
  _atom_site_fract_y
  _atom_site_fract_z
  _atom_site_thermal_displace_type
  _atom_site_B_iso_or_equiv
  _atom_site_type_symbol
  Co1      1.0000 0.08969  0.39744  0.00843  Biso   1.000  Co
  Co2      1.0000 0.59289  0.00726  0.39888  Biso   1.000  Co
  Co3      1.0000 0.80015  0.42110  0.18581  Biso   1.000  Co
  Co4      1.0000 0.29800  0.18547  0.41906  Biso   1.000  Co
  Co5      1.0000 0.24375  0.09128  0.90750  Biso   1.000  Co
  S1       1.0000 0.95950  0.43360  0.80013  Biso   1.000  S
  S2       1.0000 0.46410  0.79770  0.43538  Biso   1.000  S
  O1       1.0000 0.08820  0.25850  0.00560  Biso   1.000  O
  O2       1.0000 0.03370  0.15340  0.95340  Biso   1.000  O
  O3       1.0000 0.03350  0.36590  0.75710  Biso   1.000  O
  O4       1.0000 0.05510  0.45470  0.85260  Biso   1.000  O
  O5       1.0000 0.88960  0.52170  0.73220  Biso   1.000  O
  O6       1.0000 0.38860  0.48490  0.85440  Biso   1.000  O
  O7       1.0000 0.31370  0.35730  0.98780  Biso   1.000  O
  O8       1.0000 0.54590  0.95370  0.15390  Biso   1.000  O
  O9       1.0000 0.59480  0.00370  0.26210  Biso   1.000  O
  O10      1.0000 0.55670  0.85290  0.45650  Biso   1.000  O
  O11      1.0000 0.54140  0.75540  0.36790  Biso   1.000  O
  O12      1.0000 0.39280  0.72860  0.52250  Biso   1.000  O
  O13      1.0000 0.89270  0.85400  0.48750  Biso   1.000  O
  O14      1.0000 0.81810  0.98760  0.35940  Biso   1.000  O
  O15      1.0000 0.87750  0.45410  0.04080  Biso   1.000  O
  H1       1.0000 0.80920  0.44500  0.00550  Biso   1.000  H
  O16      1.0000 0.37770  0.03960  0.45360  Biso   1.000  O
  H2       1.0000 0.31080  0.00280  0.44500  Biso   1.000  H
  N1       1.0000 0.10840  0.33190  0.15680  Biso   1.000  N
  N2       1.0000 0.98680  0.32700  0.22450  Biso   1.000  N
  N3       1.0000 0.17290  0.23910  0.30410  Biso   1.000  N
  N4       1.0000 0.48870  0.22380  0.32620  Biso   1.000  N
  N5       1.0000 0.60680  0.15590  0.33210  Biso   1.000  N
  N6       1.0000 0.67520  0.30550  0.23880  Biso   1.000  N
  C1       1.0000 0.03140  0.27170  0.30970  Biso   1.000  C
  H3       1.0000 0.97030  0.25660  0.36860  Biso   1.000  H
  C2       1.0000 0.21530  0.27800  0.20730  Biso   1.000  C
  H4       1.0000 0.30990  0.26810  0.17890  Biso   1.000  H
  C3       1.0000 0.71630  0.20750  0.27900  Biso   1.000  C
  H5       1.0000 0.81110  0.17890  0.27070  Biso   1.000  H
  C4       1.0000 0.53150  0.31060  0.27090  Biso   1.000  C
  H6       1.0000 0.46970  0.36940  0.25550  Biso   1.000  H
  C5       1.0000 0.85360  0.27900  0.96440  Biso   1.000  C
  C6       1.0000 0.82210  0.37030  0.89060  Biso   1.000  C
  C7       1.0000 0.67870  0.41220  0.87760  Biso   1.000  C
  H7       1.0000 0.65890  0.47230  0.82580  Biso   1.000  H
  C8       1.0000 0.56570  0.36320  0.94290  Biso   1.000  C
  C9       1.0000 0.59610  0.27270  0.01940  Biso   1.000  C
  H8       1.0000 0.52130  0.24020  0.06380  Biso   1.000  H
  C10      1.0000 0.73840  0.23160  0.02890  Biso   1.000  C
  H9       1.0000 0.75810  0.17070  0.07960  Biso   1.000  H
  C11      1.0000 0.00330  0.22600  0.97350  Biso   1.000  C
  C12      1.0000 0.40980  0.40660  0.92650  Biso   1.000  C
  C13      1.0000 0.35910  0.96060  0.27930  Biso   1.000  C
  C14      1.0000 0.32550  0.88730  0.37260  Biso   1.000  C
  C15      1.0000 0.18160  0.87780  0.41320  Biso   1.000  C
  H10      1.0000 0.16030  0.82770  0.47420  Biso   1.000  H
  C16      1.0000 0.06950  0.94130  0.36470  Biso   1.000  C
  C17      1.0000 0.10160  0.01590  0.27400  Biso   1.000  C
  H11      1.0000 0.02740  0.05950  0.24070  Biso   1.000  H
  C18      1.0000 0.24550  0.02510  0.23300  Biso   1.000  C
  H12      1.0000 0.26610  0.07630  0.17250  Biso   1.000  H
  C19      1.0000 0.51230  0.97380  0.22930  Biso   1.000  C
  C20      1.0000 0.91430  0.92640  0.40790  Biso   1.000  C
  Co6      1.0000 0.91031  0.60256  0.99157  Biso   1.000  Co
  Co7      1.0000 0.40711  0.99274  0.60112  Biso   1.000  Co
  Co8      1.0000 0.19985  0.57890  0.81419  Biso   1.000  Co
  Co9      1.0000 0.70200  0.81453  0.58094  Biso   1.000  Co
  Co10     1.0000 0.75625  0.90872  0.09250  Biso   1.000  Co
  S3       1.0000 0.04050  0.56640  0.19987  Biso   1.000  S
  S4       1.0000 0.53590  0.20230  0.56462  Biso   1.000  S
  O17      1.0000 0.91180  0.74150  0.99440  Biso   1.000  O
  O18      1.0000 0.96630  0.84660  0.04660  Biso   1.000  O
  O19      1.0000 0.96650  0.63410  0.24290  Biso   1.000  O
  O20      1.0000 0.94490  0.54530  0.14740  Biso   1.000  O
  O21      1.0000 0.11040  0.47830  0.26780  Biso   1.000  O
  O22      1.0000 0.61140  0.51510  0.14560  Biso   1.000  O
  O23      1.0000 0.68630  0.64270  0.01220  Biso   1.000  O
  O24      1.0000 0.45410  0.04630  0.84610  Biso   1.000  O
  O25      1.0000 0.40520  0.99630  0.73790  Biso   1.000  O
  O26      1.0000 0.44330  0.14710  0.54350  Biso   1.000  O
  O27      1.0000 0.45860  0.24460  0.63210  Biso   1.000  O
  O28      1.0000 0.60720  0.27140  0.47750  Biso   1.000  O
  O29      1.0000 0.10730  0.14600  0.51250  Biso   1.000  O
  O30      1.0000 0.18190  0.01240  0.64060  Biso   1.000  O
  O31      1.0000 0.12250  0.54590  0.95920  Biso   1.000  O
  H13      1.0000 0.19080  0.55500  0.99450  Biso   1.000  H
  O32      1.0000 0.62230  0.96040  0.54640  Biso   1.000  O
  H14      1.0000 0.68920  0.99720  0.55500  Biso   1.000  H
  N7       1.0000 0.89160  0.66810  0.84320  Biso   1.000  N
  N8       1.0000 0.01320  0.67300  0.77550  Biso   1.000  N
  N9       1.0000 0.82710  0.76090  0.69590  Biso   1.000  N
  N10      1.0000 0.51130  0.77620  0.67380  Biso   1.000  N
  N11      1.0000 0.39320  0.84410  0.66790  Biso   1.000  N
  N12      1.0000 0.32480  0.69450  0.76120  Biso   1.000  N
  C21      1.0000 0.96860  0.72830  0.69030  Biso   1.000  C
  H15      1.0000 0.02970  0.74340  0.63140  Biso   1.000  H
  C22      1.0000 0.78470  0.72200  0.79270  Biso   1.000  C
  H16      1.0000 0.69010  0.73190  0.82110  Biso   1.000  H
  C23      1.0000 0.28370  0.79250  0.72100  Biso   1.000  C
  H17      1.0000 0.18890  0.82110  0.72930  Biso   1.000  H
  C24      1.0000 0.46850  0.68940  0.72910  Biso   1.000  C
  H18      1.0000 0.53030  0.63060  0.74450  Biso   1.000  H
  C25      1.0000 0.14640  0.72100  0.03560  Biso   1.000  C
  C26      1.0000 0.17790  0.62970  0.10940  Biso   1.000  C
  C27      1.0000 0.32130  0.58780  0.12240  Biso   1.000  C
  H19      1.0000 0.34110  0.52770  0.17420  Biso   1.000  H
  C28      1.0000 0.43430  0.63680  0.05710  Biso   1.000  C
  C29      1.0000 0.40390  0.72730  0.98060  Biso   1.000  C
  H20      1.0000 0.47870  0.75980  0.93620  Biso   1.000  H
  C30      1.0000 0.26160  0.76840  0.97110  Biso   1.000  C
  H21      1.0000 0.24190  0.82930  0.92040  Biso   1.000  H
  C31      1.0000 0.99670  0.77400  0.02650  Biso   1.000  C
  C32      1.0000 0.59020  0.59340  0.07350  Biso   1.000  C
  C33      1.0000 0.64090  0.03940  0.72070  Biso   1.000  C
  C34      1.0000 0.67450  0.11270  0.62740  Biso   1.000  C
  C35      1.0000 0.81840  0.12220  0.58680  Biso   1.000  C
  H22      1.0000 0.83970  0.17230  0.52580  Biso   1.000  H
  C36      1.0000 0.93050  0.05870  0.63530  Biso   1.000  C
  C37      1.0000 0.89840  0.98410  0.72600  Biso   1.000  C
  H23      1.0000 0.97260  0.94050  0.75930  Biso   1.000  H
  C38      1.0000 0.75450  0.97490  0.76700  Biso   1.000  C
  H24      1.0000 0.73390  0.92370  0.82750  Biso   1.000  H
  C39      1.0000 0.48770  0.02620  0.77070  Biso   1.000  C
  C40      1.0000 0.08570  0.07360  0.59210  Biso   1.000  C
