data_image0
_cell_length_a       23.7773
_cell_length_b       23.7773
_cell_length_c       23.7773
_cell_angle_alpha    90
_cell_angle_beta     90
_cell_angle_gamma    90

_symmetry_space_group_name_H-M    "P 1"
_symmetry_int_tables_number       1

loop_
  _symmetry_equiv_pos_as_xyz
  'x, y, z'

loop_
  _atom_site_label
  _atom_site_occupancy
  _atom_site_fract_x
  _atom_site_fract_y
  _atom_site_fract_z
  _atom_site_thermal_displace_type
  _atom_site_B_iso_or_equiv
  _atom_site_type_symbol
  Co1      1.0000 0.00660  0.55986  0.86587  Biso   1.000  Co
  F1       1.0000 0.99821  0.58925  0.94788  Biso   1.000  F
  O1       1.0000 0.06759  0.61959  0.85001  Biso   1.000  O
  O2       1.0000 0.93396  0.48137  0.96457  Biso   1.000  O
  O3       1.0000 0.93827  0.50866  0.87430  Biso   1.000  O
  N1       1.0000 0.02861  0.52006  0.78827  Biso   1.000  N
  N2       1.0000 0.12904  0.44663  0.61791  Biso   1.000  N
  N3       1.0000 0.94940  0.62347  0.84020  Biso   1.000  N
  N4       1.0000 0.79712  0.77029  0.85017  Biso   1.000  N
  C1       1.0000 0.91442  0.48498  0.91549  Biso   1.000  C
  C2       1.0000 0.85791  0.45891  0.90327  Biso   1.000  C
  C3       1.0000 0.82630  0.43330  0.94521  Biso   1.000  C
  H1       1.0000 0.83960  0.43290  0.98200  Biso   1.000  H
  C4       1.0000 0.77470  0.40810  0.93290  Biso   1.000  C
  H2       1.0000 0.75420  0.39120  0.96160  Biso   1.000  H
  C5       1.0000 0.75360  0.40800  0.87860  Biso   1.000  C
  C6       1.0000 0.78590  0.43450  0.83620  Biso   1.000  C
  H3       1.0000 0.77250  0.43530  0.79950  Biso   1.000  H
  C7       1.0000 0.83750  0.45940  0.84890  Biso   1.000  C
  H4       1.0000 0.85840  0.47640  0.82050  Biso   1.000  H
  C8       1.0000 0.70078  0.37790  0.86340  Biso   1.000  C
  C9       1.0000 0.66960  0.39390  0.81640  Biso   1.000  C
  H5       1.0000 0.68060  0.42550  0.79600  Biso   1.000  H
  C10      1.0000 0.99710  0.48040  0.76580  Biso   1.000  C
  H6       1.0000 0.96280  0.47220  0.78270  Biso   1.000  H
  C11      1.0000 0.01240  0.45020  0.71840  Biso   1.000  C
  H7       1.0000 0.98810  0.42370  0.70290  Biso   1.000  H
  C12      1.0000 0.06365  0.45992  0.69468  Biso   1.000  C
  C13      1.0000 0.09700  0.50020  0.71770  Biso   1.000  C
  H8       1.0000 0.13230  0.50800  0.70260  Biso   1.000  H
  C14      1.0000 0.07730  0.52930  0.76440  Biso   1.000  C
  H9       1.0000 0.10020  0.55720  0.77960  Biso   1.000  H
  C15      1.0000 0.08337  0.42720  0.64384  Biso   1.000  C
  C16      1.0000 0.95779  0.65970  0.79774  Biso   1.000  C
  H10      1.0000 0.98800  0.65330  0.77370  Biso   1.000  H
  C17      1.0000 0.92409  0.70590  0.78770  Biso   1.000  C
  H11      1.0000 0.93200  0.73030  0.75810  Biso   1.000  H
  C18      1.0000 0.87823  0.71513  0.82252  Biso   1.000  C
  C19      1.0000 0.86890  0.67810  0.86680  Biso   1.000  C
  H12      1.0000 0.83890  0.68370  0.89130  Biso   1.000  H
  C20      1.0000 0.90440  0.63310  0.87400  Biso   1.000  C
  H13      1.0000 0.89730  0.60810  0.90320  Biso   1.000  H
  C21      1.0000 0.83979  0.76400  0.81312  Biso   1.000  C
  Co2      1.0000 0.49340  0.44014  0.36587  Biso   1.000  Co
  F2       1.0000 0.50179  0.41075  0.44788  Biso   1.000  F
  O4       1.0000 0.43241  0.38041  0.35001  Biso   1.000  O
  O5       1.0000 0.56604  0.51863  0.46457  Biso   1.000  O
  O6       1.0000 0.56173  0.49134  0.37430  Biso   1.000  O
  N5       1.0000 0.47139  0.47994  0.28827  Biso   1.000  N
  N6       1.0000 0.37096  0.55337  0.11791  Biso   1.000  N
  N7       1.0000 0.55060  0.37653  0.34020  Biso   1.000  N
  N8       1.0000 0.70288  0.22971  0.35017  Biso   1.000  N
  C22      1.0000 0.58558  0.51502  0.41549  Biso   1.000  C
  C23      1.0000 0.64209  0.54109  0.40327  Biso   1.000  C
  C24      1.0000 0.67370  0.56670  0.44521  Biso   1.000  C
  H14      1.0000 0.66040  0.56710  0.48200  Biso   1.000  H
  C25      1.0000 0.72530  0.59190  0.43290  Biso   1.000  C
  H15      1.0000 0.74580  0.60880  0.46160  Biso   1.000  H
  C26      1.0000 0.74640  0.59200  0.37860  Biso   1.000  C
  C27      1.0000 0.71410  0.56550  0.33620  Biso   1.000  C
  H16      1.0000 0.72750  0.56470  0.29950  Biso   1.000  H
  C28      1.0000 0.66250  0.54060  0.34890  Biso   1.000  C
  H17      1.0000 0.64160  0.52360  0.32050  Biso   1.000  H
  C29      1.0000 0.79922  0.62210  0.36340  Biso   1.000  C
  C30      1.0000 0.83040  0.60610  0.31640  Biso   1.000  C
  H18      1.0000 0.81940  0.57450  0.29600  Biso   1.000  H
  C31      1.0000 0.50290  0.51960  0.26580  Biso   1.000  C
  H19      1.0000 0.53720  0.52780  0.28270  Biso   1.000  H
  C32      1.0000 0.48760  0.54980  0.21840  Biso   1.000  C
  H20      1.0000 0.51190  0.57630  0.20290  Biso   1.000  H
  C33      1.0000 0.43635  0.54008  0.19468  Biso   1.000  C
  C34      1.0000 0.40300  0.49980  0.21770  Biso   1.000  C
  H21      1.0000 0.36770  0.49200  0.20260  Biso   1.000  H
  C35      1.0000 0.42270  0.47070  0.26440  Biso   1.000  C
  H22      1.0000 0.39980  0.44280  0.27960  Biso   1.000  H
  C36      1.0000 0.41663  0.57280  0.14384  Biso   1.000  C
  C37      1.0000 0.54221  0.34030  0.29774  Biso   1.000  C
  H23      1.0000 0.51200  0.34670  0.27370  Biso   1.000  H
  C38      1.0000 0.57591  0.29410  0.28770  Biso   1.000  C
  H24      1.0000 0.56800  0.26970  0.25810  Biso   1.000  H
  C39      1.0000 0.62177  0.28487  0.32252  Biso   1.000  C
  C40      1.0000 0.63110  0.32190  0.36680  Biso   1.000  C
  H25      1.0000 0.66110  0.31630  0.39130  Biso   1.000  H
  C41      1.0000 0.59560  0.36690  0.37400  Biso   1.000  C
  H26      1.0000 0.60270  0.39190  0.40320  Biso   1.000  H
  C42      1.0000 0.66021  0.23600  0.31312  Biso   1.000  C
  Co3      1.0000 0.99340  0.05986  0.63413  Biso   1.000  Co
  F3       1.0000 0.00179  0.08925  0.55212  Biso   1.000  F
  O7       1.0000 0.93241  0.11959  0.64999  Biso   1.000  O
  O8       1.0000 0.06604  0.98137  0.53543  Biso   1.000  O
  O9       1.0000 0.06173  0.00866  0.62570  Biso   1.000  O
  N9       1.0000 0.97139  0.02006  0.71173  Biso   1.000  N
  N10      1.0000 0.87096  0.94663  0.88209  Biso   1.000  N
  N11      1.0000 0.05060  0.12347  0.65980  Biso   1.000  N
  N12      1.0000 0.20288  0.27029  0.64983  Biso   1.000  N
  C43      1.0000 0.08558  0.98498  0.58451  Biso   1.000  C
  C44      1.0000 0.14209  0.95891  0.59673  Biso   1.000  C
  C45      1.0000 0.17370  0.93330  0.55479  Biso   1.000  C
  H27      1.0000 0.16040  0.93290  0.51800  Biso   1.000  H
  C46      1.0000 0.22530  0.90810  0.56710  Biso   1.000  C
  H28      1.0000 0.24580  0.89120  0.53840  Biso   1.000  H
  C47      1.0000 0.24640  0.90800  0.62140  Biso   1.000  C
  C48      1.0000 0.21410  0.93450  0.66380  Biso   1.000  C
  H29      1.0000 0.22750  0.93530  0.70050  Biso   1.000  H
  C49      1.0000 0.16250  0.95940  0.65110  Biso   1.000  C
  H30      1.0000 0.14160  0.97640  0.67950  Biso   1.000  H
  C50      1.0000 0.29922  0.87790  0.63660  Biso   1.000  C
  C51      1.0000 0.33040  0.89390  0.68360  Biso   1.000  C
  H31      1.0000 0.31940  0.92550  0.70400  Biso   1.000  H
  C52      1.0000 0.00290  0.98040  0.73420  Biso   1.000  C
  H32      1.0000 0.03720  0.97220  0.71730  Biso   1.000  H
  C53      1.0000 0.98760  0.95020  0.78160  Biso   1.000  C
  H33      1.0000 0.01190  0.92370  0.79710  Biso   1.000  H
  C54      1.0000 0.93635  0.95992  0.80532  Biso   1.000  C
  C55      1.0000 0.90300  0.00020  0.78230  Biso   1.000  C
  H34      1.0000 0.86770  0.00800  0.79740  Biso   1.000  H
  C56      1.0000 0.92270  0.02930  0.73560  Biso   1.000  C
  H35      1.0000 0.89980  0.05720  0.72040  Biso   1.000  H
  C57      1.0000 0.91663  0.92720  0.85616  Biso   1.000  C
  C58      1.0000 0.04221  0.15970  0.70226  Biso   1.000  C
  H36      1.0000 0.01200  0.15330  0.72630  Biso   1.000  H
  C59      1.0000 0.07591  0.20590  0.71230  Biso   1.000  C
  H37      1.0000 0.06800  0.23030  0.74190  Biso   1.000  H
  C60      1.0000 0.12177  0.21513  0.67748  Biso   1.000  C
  C61      1.0000 0.13110  0.17810  0.63320  Biso   1.000  C
  H38      1.0000 0.16110  0.18370  0.60870  Biso   1.000  H
  C62      1.0000 0.09560  0.13310  0.62600  Biso   1.000  C
  H39      1.0000 0.10270  0.10810  0.59680  Biso   1.000  H
  C63      1.0000 0.16021  0.26400  0.68688  Biso   1.000  C
  Co4      1.0000 0.50660  0.94014  0.13413  Biso   1.000  Co
  F4       1.0000 0.49821  0.91075  0.05212  Biso   1.000  F
  O10      1.0000 0.56759  0.88041  0.14999  Biso   1.000  O
  O11      1.0000 0.43396  0.01863  0.03543  Biso   1.000  O
  O12      1.0000 0.43827  0.99134  0.12570  Biso   1.000  O
  N13      1.0000 0.52861  0.97994  0.21173  Biso   1.000  N
  N14      1.0000 0.62904  0.05337  0.38209  Biso   1.000  N
  N15      1.0000 0.44940  0.87653  0.15980  Biso   1.000  N
  N16      1.0000 0.29712  0.72971  0.14983  Biso   1.000  N
  C64      1.0000 0.41442  0.01502  0.08451  Biso   1.000  C
  C65      1.0000 0.35791  0.04109  0.09673  Biso   1.000  C
  C66      1.0000 0.32630  0.06670  0.05479  Biso   1.000  C
  H40      1.0000 0.33960  0.06710  0.01800  Biso   1.000  H
  C67      1.0000 0.27470  0.09190  0.06710  Biso   1.000  C
  H41      1.0000 0.25420  0.10880  0.03840  Biso   1.000  H
  C68      1.0000 0.25360  0.09200  0.12140  Biso   1.000  C
  C69      1.0000 0.28590  0.06550  0.16380  Biso   1.000  C
  H42      1.0000 0.27250  0.06470  0.20050  Biso   1.000  H
  C70      1.0000 0.33750  0.04060  0.15110  Biso   1.000  C
  H43      1.0000 0.35840  0.02360  0.17950  Biso   1.000  H
  C71      1.0000 0.20078  0.12210  0.13660  Biso   1.000  C
  C72      1.0000 0.16960  0.10610  0.18360  Biso   1.000  C
  H44      1.0000 0.18060  0.07450  0.20400  Biso   1.000  H
  C73      1.0000 0.49710  0.01960  0.23420  Biso   1.000  C
  H45      1.0000 0.46280  0.02780  0.21730  Biso   1.000  H
  C74      1.0000 0.51240  0.04980  0.28160  Biso   1.000  C
  H46      1.0000 0.48810  0.07630  0.29710  Biso   1.000  H
  C75      1.0000 0.56365  0.04008  0.30532  Biso   1.000  C
  C76      1.0000 0.59700  0.99980  0.28230  Biso   1.000  C
  H47      1.0000 0.63230  0.99200  0.29740  Biso   1.000  H
  C77      1.0000 0.57730  0.97070  0.23560  Biso   1.000  C
  H48      1.0000 0.60020  0.94280  0.22040  Biso   1.000  H
  C78      1.0000 0.58337  0.07280  0.35616  Biso   1.000  C
  C79      1.0000 0.45779  0.84030  0.20226  Biso   1.000  C
  H49      1.0000 0.48800  0.84670  0.22630  Biso   1.000  H
  C80      1.0000 0.42409  0.79410  0.21230  Biso   1.000  C
  H50      1.0000 0.43200  0.76970  0.24190  Biso   1.000  H
  C81      1.0000 0.37823  0.78487  0.17748  Biso   1.000  C
  C82      1.0000 0.36890  0.82190  0.13320  Biso   1.000  C
  H51      1.0000 0.33890  0.81630  0.10870  Biso   1.000  H
  C83      1.0000 0.40440  0.86690  0.12600  Biso   1.000  C
  H52      1.0000 0.39730  0.89190  0.09680  Biso   1.000  H
  C84      1.0000 0.33979  0.73600  0.18688  Biso   1.000  C
  Co5      1.0000 0.86587  0.00660  0.55986  Biso   1.000  Co
  F5       1.0000 0.94788  0.99821  0.58925  Biso   1.000  F
  O13      1.0000 0.85001  0.06759  0.61959  Biso   1.000  O
  O14      1.0000 0.96457  0.93396  0.48137  Biso   1.000  O
  O15      1.0000 0.87430  0.93827  0.50866  Biso   1.000  O
  N17      1.0000 0.78827  0.02861  0.52006  Biso   1.000  N
  N18      1.0000 0.61791  0.12904  0.44663  Biso   1.000  N
  N19      1.0000 0.84020  0.94940  0.62347  Biso   1.000  N
  N20      1.0000 0.85017  0.79712  0.77029  Biso   1.000  N
  C85      1.0000 0.91549  0.91442  0.48498  Biso   1.000  C
  C86      1.0000 0.90327  0.85791  0.45891  Biso   1.000  C
  C87      1.0000 0.94521  0.82630  0.43330  Biso   1.000  C
  H53      1.0000 0.98200  0.83960  0.43290  Biso   1.000  H
  C88      1.0000 0.93290  0.77470  0.40810  Biso   1.000  C
  H54      1.0000 0.96160  0.75420  0.39120  Biso   1.000  H
  C89      1.0000 0.87860  0.75360  0.40800  Biso   1.000  C
  C90      1.0000 0.83620  0.78590  0.43450  Biso   1.000  C
  H55      1.0000 0.79950  0.77250  0.43530  Biso   1.000  H
  C91      1.0000 0.84890  0.83750  0.45940  Biso   1.000  C
  H56      1.0000 0.82050  0.85840  0.47640  Biso   1.000  H
  C92      1.0000 0.86340  0.70078  0.37790  Biso   1.000  C
  C93      1.0000 0.81640  0.66960  0.39390  Biso   1.000  C
  H57      1.0000 0.79600  0.68060  0.42550  Biso   1.000  H
  C94      1.0000 0.76580  0.99710  0.48040  Biso   1.000  C
  H58      1.0000 0.78270  0.96280  0.47220  Biso   1.000  H
  C95      1.0000 0.71840  0.01240  0.45020  Biso   1.000  C
  H59      1.0000 0.70290  0.98810  0.42370  Biso   1.000  H
  C96      1.0000 0.69468  0.06365  0.45992  Biso   1.000  C
  C97      1.0000 0.71770  0.09700  0.50020  Biso   1.000  C
  H60      1.0000 0.70260  0.13230  0.50800  Biso   1.000  H
  C98      1.0000 0.76440  0.07730  0.52930  Biso   1.000  C
  H61      1.0000 0.77960  0.10020  0.55720  Biso   1.000  H
  C99      1.0000 0.64384  0.08337  0.42720  Biso   1.000  C
  C100     1.0000 0.79774  0.95779  0.65970  Biso   1.000  C
  H62      1.0000 0.77370  0.98800  0.65330  Biso   1.000  H
  C101     1.0000 0.78770  0.92409  0.70590  Biso   1.000  C
  H63      1.0000 0.75810  0.93200  0.73030  Biso   1.000  H
  C102     1.0000 0.82252  0.87823  0.71513  Biso   1.000  C
  C103     1.0000 0.86680  0.86890  0.67810  Biso   1.000  C
  H64      1.0000 0.89130  0.83890  0.68370  Biso   1.000  H
  C104     1.0000 0.87400  0.90440  0.63310  Biso   1.000  C
  H65      1.0000 0.90320  0.89730  0.60810  Biso   1.000  H
  C105     1.0000 0.81312  0.83979  0.76400  Biso   1.000  C
  Co6      1.0000 0.36587  0.49340  0.44014  Biso   1.000  Co
  F6       1.0000 0.44788  0.50179  0.41075  Biso   1.000  F
  O16      1.0000 0.35001  0.43241  0.38041  Biso   1.000  O
  O17      1.0000 0.46457  0.56604  0.51863  Biso   1.000  O
  O18      1.0000 0.37430  0.56173  0.49134  Biso   1.000  O
  N21      1.0000 0.28827  0.47139  0.47994  Biso   1.000  N
  N22      1.0000 0.11791  0.37096  0.55337  Biso   1.000  N
  N23      1.0000 0.34020  0.55060  0.37653  Biso   1.000  N
  N24      1.0000 0.35017  0.70288  0.22971  Biso   1.000  N
  C106     1.0000 0.41549  0.58558  0.51502  Biso   1.000  C
  C107     1.0000 0.40327  0.64209  0.54109  Biso   1.000  C
  C108     1.0000 0.44521  0.67370  0.56670  Biso   1.000  C
  H66      1.0000 0.48200  0.66040  0.56710  Biso   1.000  H
  C109     1.0000 0.43290  0.72530  0.59190  Biso   1.000  C
  H67      1.0000 0.46160  0.74580  0.60880  Biso   1.000  H
  C110     1.0000 0.37860  0.74640  0.59200  Biso   1.000  C
  C111     1.0000 0.33620  0.71410  0.56550  Biso   1.000  C
  H68      1.0000 0.29950  0.72750  0.56470  Biso   1.000  H
  C112     1.0000 0.34890  0.66250  0.54060  Biso   1.000  C
  H69      1.0000 0.32050  0.64160  0.52360  Biso   1.000  H
  C113     1.0000 0.36340  0.79922  0.62210  Biso   1.000  C
  C114     1.0000 0.31640  0.83040  0.60610  Biso   1.000  C
  H70      1.0000 0.29600  0.81940  0.57450  Biso   1.000  H
  C115     1.0000 0.26580  0.50290  0.51960  Biso   1.000  C
  H71      1.0000 0.28270  0.53720  0.52780  Biso   1.000  H
  C116     1.0000 0.21840  0.48760  0.54980  Biso   1.000  C
  H72      1.0000 0.20290  0.51190  0.57630  Biso   1.000  H
  C117     1.0000 0.19468  0.43635  0.54008  Biso   1.000  C
  C118     1.0000 0.21770  0.40300  0.49980  Biso   1.000  C
  H73      1.0000 0.20260  0.36770  0.49200  Biso   1.000  H
  C119     1.0000 0.26440  0.42270  0.47070  Biso   1.000  C
  H74      1.0000 0.27960  0.39980  0.44280  Biso   1.000  H
  C120     1.0000 0.14384  0.41663  0.57280  Biso   1.000  C
  C121     1.0000 0.29774  0.54221  0.34030  Biso   1.000  C
  H75      1.0000 0.27370  0.51200  0.34670  Biso   1.000  H
  C122     1.0000 0.28770  0.57591  0.29410  Biso   1.000  C
  H76      1.0000 0.25810  0.56800  0.26970  Biso   1.000  H
  C123     1.0000 0.32252  0.62177  0.28487  Biso   1.000  C
  C124     1.0000 0.36680  0.63110  0.32190  Biso   1.000  C
  H77      1.0000 0.39130  0.66110  0.31630  Biso   1.000  H
  C125     1.0000 0.37400  0.59560  0.36690  Biso   1.000  C
  H78      1.0000 0.40320  0.60270  0.39190  Biso   1.000  H
  C126     1.0000 0.31312  0.66021  0.23600  Biso   1.000  C
  Co7      1.0000 0.63413  0.99340  0.05986  Biso   1.000  Co
  F7       1.0000 0.55212  0.00179  0.08925  Biso   1.000  F
  O19      1.0000 0.64999  0.93241  0.11959  Biso   1.000  O
  O20      1.0000 0.53543  0.06604  0.98137  Biso   1.000  O
  O21      1.0000 0.62570  0.06173  0.00866  Biso   1.000  O
  N25      1.0000 0.71173  0.97139  0.02006  Biso   1.000  N
  N26      1.0000 0.88209  0.87096  0.94663  Biso   1.000  N
  N27      1.0000 0.65980  0.05060  0.12347  Biso   1.000  N
  N28      1.0000 0.64983  0.20288  0.27029  Biso   1.000  N
  C127     1.0000 0.58451  0.08558  0.98498  Biso   1.000  C
  C128     1.0000 0.59673  0.14209  0.95891  Biso   1.000  C
  C129     1.0000 0.55479  0.17370  0.93330  Biso   1.000  C
  H79      1.0000 0.51800  0.16040  0.93290  Biso   1.000  H
  C130     1.0000 0.56710  0.22530  0.90810  Biso   1.000  C
  H80      1.0000 0.53840  0.24580  0.89120  Biso   1.000  H
  C131     1.0000 0.62140  0.24640  0.90800  Biso   1.000  C
  C132     1.0000 0.66380  0.21410  0.93450  Biso   1.000  C
  H81      1.0000 0.70050  0.22750  0.93530  Biso   1.000  H
  C133     1.0000 0.65110  0.16250  0.95940  Biso   1.000  C
  H82      1.0000 0.67950  0.14160  0.97640  Biso   1.000  H
  C134     1.0000 0.63660  0.29922  0.87790  Biso   1.000  C
  C135     1.0000 0.68360  0.33040  0.89390  Biso   1.000  C
  H83      1.0000 0.70400  0.31940  0.92550  Biso   1.000  H
  C136     1.0000 0.73420  0.00290  0.98040  Biso   1.000  C
  H84      1.0000 0.71730  0.03720  0.97220  Biso   1.000  H
  C137     1.0000 0.78160  0.98760  0.95020  Biso   1.000  C
  H85      1.0000 0.79710  0.01190  0.92370  Biso   1.000  H
  C138     1.0000 0.80532  0.93635  0.95992  Biso   1.000  C
  C139     1.0000 0.78230  0.90300  0.00020  Biso   1.000  C
  H86      1.0000 0.79740  0.86770  0.00800  Biso   1.000  H
  C140     1.0000 0.73560  0.92270  0.02930  Biso   1.000  C
  H87      1.0000 0.72040  0.89980  0.05720  Biso   1.000  H
  C141     1.0000 0.85616  0.91663  0.92720  Biso   1.000  C
  C142     1.0000 0.70226  0.04221  0.15970  Biso   1.000  C
  H88      1.0000 0.72630  0.01200  0.15330  Biso   1.000  H
  C143     1.0000 0.71230  0.07591  0.20590  Biso   1.000  C
  H89      1.0000 0.74190  0.06800  0.23030  Biso   1.000  H
  C144     1.0000 0.67748  0.12177  0.21513  Biso   1.000  C
  C145     1.0000 0.63320  0.13110  0.17810  Biso   1.000  C
  H90      1.0000 0.60870  0.16110  0.18370  Biso   1.000  H
  C146     1.0000 0.62600  0.09560  0.13310  Biso   1.000  C
  H91      1.0000 0.59680  0.10270  0.10810  Biso   1.000  H
  C147     1.0000 0.68688  0.16021  0.26400  Biso   1.000  C
  Co8      1.0000 0.13413  0.50660  0.94014  Biso   1.000  Co
  F8       1.0000 0.05212  0.49821  0.91075  Biso   1.000  F
  O22      1.0000 0.14999  0.56759  0.88041  Biso   1.000  O
  O23      1.0000 0.03543  0.43396  0.01863  Biso   1.000  O
  O24      1.0000 0.12570  0.43827  0.99134  Biso   1.000  O
  N29      1.0000 0.21173  0.52861  0.97994  Biso   1.000  N
  N30      1.0000 0.38209  0.62904  0.05337  Biso   1.000  N
  N31      1.0000 0.15980  0.44940  0.87653  Biso   1.000  N
  N32      1.0000 0.14983  0.29712  0.72971  Biso   1.000  N
  C148     1.0000 0.08451  0.41442  0.01502  Biso   1.000  C
  C149     1.0000 0.09673  0.35791  0.04109  Biso   1.000  C
  C150     1.0000 0.05479  0.32630  0.06670  Biso   1.000  C
  H92      1.0000 0.01800  0.33960  0.06710  Biso   1.000  H
  C151     1.0000 0.06710  0.27470  0.09190  Biso   1.000  C
  H93      1.0000 0.03840  0.25420  0.10880  Biso   1.000  H
  C152     1.0000 0.12140  0.25360  0.09200  Biso   1.000  C
  C153     1.0000 0.16380  0.28590  0.06550  Biso   1.000  C
  H94      1.0000 0.20050  0.27250  0.06470  Biso   1.000  H
  C154     1.0000 0.15110  0.33750  0.04060  Biso   1.000  C
  H95      1.0000 0.17950  0.35840  0.02360  Biso   1.000  H
  C155     1.0000 0.13660  0.20078  0.12210  Biso   1.000  C
  C156     1.0000 0.18360  0.16960  0.10610  Biso   1.000  C
  H96      1.0000 0.20400  0.18060  0.07450  Biso   1.000  H
  C157     1.0000 0.23420  0.49710  0.01960  Biso   1.000  C
  H97      1.0000 0.21730  0.46280  0.02780  Biso   1.000  H
  C158     1.0000 0.28160  0.51240  0.04980  Biso   1.000  C
  H98      1.0000 0.29710  0.48810  0.07630  Biso   1.000  H
  C159     1.0000 0.30532  0.56365  0.04008  Biso   1.000  C
  C160     1.0000 0.28230  0.59700  0.99980  Biso   1.000  C
  H99      1.0000 0.29740  0.63230  0.99200  Biso   1.000  H
  C161     1.0000 0.23560  0.57730  0.97070  Biso   1.000  C
  H100     1.0000 0.22040  0.60020  0.94280  Biso   1.000  H
  C162     1.0000 0.35616  0.58337  0.07280  Biso   1.000  C
  C163     1.0000 0.20226  0.45779  0.84030  Biso   1.000  C
  H101     1.0000 0.22630  0.48800  0.84670  Biso   1.000  H
  C164     1.0000 0.21230  0.42409  0.79410  Biso   1.000  C
  H102     1.0000 0.24190  0.43200  0.76970  Biso   1.000  H
  C165     1.0000 0.17748  0.37823  0.78487  Biso   1.000  C
  C166     1.0000 0.13320  0.36890  0.82190  Biso   1.000  C
  H103     1.0000 0.10870  0.33890  0.81630  Biso   1.000  H
  C167     1.0000 0.12600  0.40440  0.86690  Biso   1.000  C
  H104     1.0000 0.09680  0.39730  0.89190  Biso   1.000  H
  C168     1.0000 0.18688  0.33979  0.73600  Biso   1.000  C
  Co9      1.0000 0.55986  0.86587  0.00660  Biso   1.000  Co
  F9       1.0000 0.58925  0.94788  0.99821  Biso   1.000  F
  O25      1.0000 0.61959  0.85001  0.06759  Biso   1.000  O
  O26      1.0000 0.48137  0.96457  0.93396  Biso   1.000  O
  O27      1.0000 0.50866  0.87430  0.93827  Biso   1.000  O
  N33      1.0000 0.52006  0.78827  0.02861  Biso   1.000  N
  N34      1.0000 0.44663  0.61791  0.12904  Biso   1.000  N
  N35      1.0000 0.62347  0.84020  0.94940  Biso   1.000  N
  N36      1.0000 0.77029  0.85017  0.79712  Biso   1.000  N
  C169     1.0000 0.48498  0.91549  0.91442  Biso   1.000  C
  C170     1.0000 0.45891  0.90327  0.85791  Biso   1.000  C
  C171     1.0000 0.43330  0.94521  0.82630  Biso   1.000  C
  H105     1.0000 0.43290  0.98200  0.83960  Biso   1.000  H
  C172     1.0000 0.40810  0.93290  0.77470  Biso   1.000  C
  H106     1.0000 0.39120  0.96160  0.75420  Biso   1.000  H
  C173     1.0000 0.40800  0.87860  0.75360  Biso   1.000  C
  C174     1.0000 0.43450  0.83620  0.78590  Biso   1.000  C
  H107     1.0000 0.43530  0.79950  0.77250  Biso   1.000  H
  C175     1.0000 0.45940  0.84890  0.83750  Biso   1.000  C
  H108     1.0000 0.47640  0.82050  0.85840  Biso   1.000  H
  C176     1.0000 0.37790  0.86340  0.70078  Biso   1.000  C
  C177     1.0000 0.39390  0.81640  0.66960  Biso   1.000  C
  H109     1.0000 0.42550  0.79600  0.68060  Biso   1.000  H
  C178     1.0000 0.48040  0.76580  0.99710  Biso   1.000  C
  H110     1.0000 0.47220  0.78270  0.96280  Biso   1.000  H
  C179     1.0000 0.45020  0.71840  0.01240  Biso   1.000  C
  H111     1.0000 0.42370  0.70290  0.98810  Biso   1.000  H
  C180     1.0000 0.45992  0.69468  0.06365  Biso   1.000  C
  C181     1.0000 0.50020  0.71770  0.09700  Biso   1.000  C
  H112     1.0000 0.50800  0.70260  0.13230  Biso   1.000  H
  C182     1.0000 0.52930  0.76440  0.07730  Biso   1.000  C
  H113     1.0000 0.55720  0.77960  0.10020  Biso   1.000  H
  C183     1.0000 0.42720  0.64384  0.08337  Biso   1.000  C
  C184     1.0000 0.65970  0.79774  0.95779  Biso   1.000  C
  H114     1.0000 0.65330  0.77370  0.98800  Biso   1.000  H
  C185     1.0000 0.70590  0.78770  0.92409  Biso   1.000  C
  H115     1.0000 0.73030  0.75810  0.93200  Biso   1.000  H
  C186     1.0000 0.71513  0.82252  0.87823  Biso   1.000  C
  C187     1.0000 0.67810  0.86680  0.86890  Biso   1.000  C
  H116     1.0000 0.68370  0.89130  0.83890  Biso   1.000  H
  C188     1.0000 0.63310  0.87400  0.90440  Biso   1.000  C
  H117     1.0000 0.60810  0.90320  0.89730  Biso   1.000  H
  C189     1.0000 0.76400  0.81312  0.83979  Biso   1.000  C
  Co10     1.0000 0.44014  0.36587  0.49340  Biso   1.000  Co
  F10      1.0000 0.41075  0.44788  0.50179  Biso   1.000  F
  O28      1.0000 0.38041  0.35001  0.43241  Biso   1.000  O
  O29      1.0000 0.51863  0.46457  0.56604  Biso   1.000  O
  O30      1.0000 0.49134  0.37430  0.56173  Biso   1.000  O
  N37      1.0000 0.47994  0.28827  0.47139  Biso   1.000  N
  N38      1.0000 0.55337  0.11791  0.37096  Biso   1.000  N
  N39      1.0000 0.37653  0.34020  0.55060  Biso   1.000  N
  N40      1.0000 0.22971  0.35017  0.70288  Biso   1.000  N
  C190     1.0000 0.51502  0.41549  0.58558  Biso   1.000  C
  C191     1.0000 0.54109  0.40327  0.64209  Biso   1.000  C
  C192     1.0000 0.56670  0.44521  0.67370  Biso   1.000  C
  H118     1.0000 0.56710  0.48200  0.66040  Biso   1.000  H
  C193     1.0000 0.59190  0.43290  0.72530  Biso   1.000  C
  H119     1.0000 0.60880  0.46160  0.74580  Biso   1.000  H
  C194     1.0000 0.59200  0.37860  0.74640  Biso   1.000  C
  C195     1.0000 0.56550  0.33620  0.71410  Biso   1.000  C
  H120     1.0000 0.56470  0.29950  0.72750  Biso   1.000  H
  C196     1.0000 0.54060  0.34890  0.66250  Biso   1.000  C
  H121     1.0000 0.52360  0.32050  0.64160  Biso   1.000  H
  C197     1.0000 0.62210  0.36340  0.79922  Biso   1.000  C
  C198     1.0000 0.60610  0.31640  0.83040  Biso   1.000  C
  H122     1.0000 0.57450  0.29600  0.81940  Biso   1.000  H
  C199     1.0000 0.51960  0.26580  0.50290  Biso   1.000  C
  H123     1.0000 0.52780  0.28270  0.53720  Biso   1.000  H
  C200     1.0000 0.54980  0.21840  0.48760  Biso   1.000  C
  H124     1.0000 0.57630  0.20290  0.51190  Biso   1.000  H
  C201     1.0000 0.54008  0.19468  0.43635  Biso   1.000  C
  C202     1.0000 0.49980  0.21770  0.40300  Biso   1.000  C
  H125     1.0000 0.49200  0.20260  0.36770  Biso   1.000  H
  C203     1.0000 0.47070  0.26440  0.42270  Biso   1.000  C
  H126     1.0000 0.44280  0.27960  0.39980  Biso   1.000  H
  C204     1.0000 0.57280  0.14384  0.41663  Biso   1.000  C
  C205     1.0000 0.34030  0.29774  0.54221  Biso   1.000  C
  H127     1.0000 0.34670  0.27370  0.51200  Biso   1.000  H
  C206     1.0000 0.29410  0.28770  0.57591  Biso   1.000  C
  H128     1.0000 0.26970  0.25810  0.56800  Biso   1.000  H
  C207     1.0000 0.28487  0.32252  0.62177  Biso   1.000  C
  C208     1.0000 0.32190  0.36680  0.63110  Biso   1.000  C
  H129     1.0000 0.31630  0.39130  0.66110  Biso   1.000  H
  C209     1.0000 0.36690  0.37400  0.59560  Biso   1.000  C
  H130     1.0000 0.39190  0.40320  0.60270  Biso   1.000  H
  C210     1.0000 0.23600  0.31312  0.66021  Biso   1.000  C
  Co11     1.0000 0.05986  0.63413  0.99340  Biso   1.000  Co
  F11      1.0000 0.08925  0.55212  0.00179  Biso   1.000  F
  O31      1.0000 0.11959  0.64999  0.93241  Biso   1.000  O
  O32      1.0000 0.98137  0.53543  0.06604  Biso   1.000  O
  O33      1.0000 0.00866  0.62570  0.06173  Biso   1.000  O
  N41      1.0000 0.02006  0.71173  0.97139  Biso   1.000  N
  N42      1.0000 0.94663  0.88209  0.87096  Biso   1.000  N
  N43      1.0000 0.12347  0.65980  0.05060  Biso   1.000  N
  N44      1.0000 0.27029  0.64983  0.20288  Biso   1.000  N
  C211     1.0000 0.98498  0.58451  0.08558  Biso   1.000  C
  C212     1.0000 0.95891  0.59673  0.14209  Biso   1.000  C
  C213     1.0000 0.93330  0.55479  0.17370  Biso   1.000  C
  H131     1.0000 0.93290  0.51800  0.16040  Biso   1.000  H
  C214     1.0000 0.90810  0.56710  0.22530  Biso   1.000  C
  H132     1.0000 0.89120  0.53840  0.24580  Biso   1.000  H
  C215     1.0000 0.90800  0.62140  0.24640  Biso   1.000  C
  C216     1.0000 0.93450  0.66380  0.21410  Biso   1.000  C
  H133     1.0000 0.93530  0.70050  0.22750  Biso   1.000  H
  C217     1.0000 0.95940  0.65110  0.16250  Biso   1.000  C
  H134     1.0000 0.97640  0.67950  0.14160  Biso   1.000  H
  C218     1.0000 0.87790  0.63660  0.29922  Biso   1.000  C
  C219     1.0000 0.89390  0.68360  0.33040  Biso   1.000  C
  H135     1.0000 0.92550  0.70400  0.31940  Biso   1.000  H
  C220     1.0000 0.98040  0.73420  0.00290  Biso   1.000  C
  H136     1.0000 0.97220  0.71730  0.03720  Biso   1.000  H
  C221     1.0000 0.95020  0.78160  0.98760  Biso   1.000  C
  H137     1.0000 0.92370  0.79710  0.01190  Biso   1.000  H
  C222     1.0000 0.95992  0.80532  0.93635  Biso   1.000  C
  C223     1.0000 0.00020  0.78230  0.90300  Biso   1.000  C
  H138     1.0000 0.00800  0.79740  0.86770  Biso   1.000  H
  C224     1.0000 0.02930  0.73560  0.92270  Biso   1.000  C
  H139     1.0000 0.05720  0.72040  0.89980  Biso   1.000  H
  C225     1.0000 0.92720  0.85616  0.91663  Biso   1.000  C
  C226     1.0000 0.15970  0.70226  0.04221  Biso   1.000  C
  H140     1.0000 0.15330  0.72630  0.01200  Biso   1.000  H
  C227     1.0000 0.20590  0.71230  0.07591  Biso   1.000  C
  H141     1.0000 0.23030  0.74190  0.06800  Biso   1.000  H
  C228     1.0000 0.21513  0.67748  0.12177  Biso   1.000  C
  C229     1.0000 0.17810  0.63320  0.13110  Biso   1.000  C
  H142     1.0000 0.18370  0.60870  0.16110  Biso   1.000  H
  C230     1.0000 0.13310  0.62600  0.09560  Biso   1.000  C
  H143     1.0000 0.10810  0.59680  0.10270  Biso   1.000  H
  C231     1.0000 0.26400  0.68688  0.16021  Biso   1.000  C
  Co12     1.0000 0.94014  0.13413  0.50660  Biso   1.000  Co
  F12      1.0000 0.91075  0.05212  0.49821  Biso   1.000  F
  O34      1.0000 0.88041  0.14999  0.56759  Biso   1.000  O
  O35      1.0000 0.01863  0.03543  0.43396  Biso   1.000  O
  O36      1.0000 0.99134  0.12570  0.43827  Biso   1.000  O
  N45      1.0000 0.97994  0.21173  0.52861  Biso   1.000  N
  N46      1.0000 0.05337  0.38209  0.62904  Biso   1.000  N
  N47      1.0000 0.87653  0.15980  0.44940  Biso   1.000  N
  N48      1.0000 0.72971  0.14983  0.29712  Biso   1.000  N
  C232     1.0000 0.01502  0.08451  0.41442  Biso   1.000  C
  C233     1.0000 0.04109  0.09673  0.35791  Biso   1.000  C
  C234     1.0000 0.06670  0.05479  0.32630  Biso   1.000  C
  H144     1.0000 0.06710  0.01800  0.33960  Biso   1.000  H
  C235     1.0000 0.09190  0.06710  0.27470  Biso   1.000  C
  H145     1.0000 0.10880  0.03840  0.25420  Biso   1.000  H
  C236     1.0000 0.09200  0.12140  0.25360  Biso   1.000  C
  C237     1.0000 0.06550  0.16380  0.28590  Biso   1.000  C
  H146     1.0000 0.06470  0.20050  0.27250  Biso   1.000  H
  C238     1.0000 0.04060  0.15110  0.33750  Biso   1.000  C
  H147     1.0000 0.02360  0.17950  0.35840  Biso   1.000  H
  C239     1.0000 0.12210  0.13660  0.20078  Biso   1.000  C
  C240     1.0000 0.10610  0.18360  0.16960  Biso   1.000  C
  H148     1.0000 0.07450  0.20400  0.18060  Biso   1.000  H
  C241     1.0000 0.01960  0.23420  0.49710  Biso   1.000  C
  H149     1.0000 0.02780  0.21730  0.46280  Biso   1.000  H
  C242     1.0000 0.04980  0.28160  0.51240  Biso   1.000  C
  H150     1.0000 0.07630  0.29710  0.48810  Biso   1.000  H
  C243     1.0000 0.04008  0.30532  0.56365  Biso   1.000  C
  C244     1.0000 0.99980  0.28230  0.59700  Biso   1.000  C
  H151     1.0000 0.99200  0.29740  0.63230  Biso   1.000  H
  C245     1.0000 0.97070  0.23560  0.57730  Biso   1.000  C
  H152     1.0000 0.94280  0.22040  0.60020  Biso   1.000  H
  C246     1.0000 0.07280  0.35616  0.58337  Biso   1.000  C
  C247     1.0000 0.84030  0.20226  0.45779  Biso   1.000  C
  H153     1.0000 0.84670  0.22630  0.48800  Biso   1.000  H
  C248     1.0000 0.79410  0.21230  0.42409  Biso   1.000  C
  H154     1.0000 0.76970  0.24190  0.43200  Biso   1.000  H
  C249     1.0000 0.78487  0.17748  0.37823  Biso   1.000  C
  C250     1.0000 0.82190  0.13320  0.36890  Biso   1.000  C
  H155     1.0000 0.81630  0.10870  0.33890  Biso   1.000  H
  C251     1.0000 0.86690  0.12600  0.40440  Biso   1.000  C
  H156     1.0000 0.89190  0.09680  0.39730  Biso   1.000  H
  C252     1.0000 0.73600  0.18688  0.33979  Biso   1.000  C
  Co13     1.0000 0.01127  0.51127  0.98873  Biso   1.000  Co
  S1       1.0000 0.12508  0.62508  0.87492  Biso   1.000  S
  O37      1.0000 0.16031  0.66031  0.83969  Biso   1.000  O
  Co14     1.0000 0.48873  0.48873  0.48873  Biso   1.000  Co
  S2       1.0000 0.37492  0.37492  0.37492  Biso   1.000  S
  O38      1.0000 0.33969  0.33969  0.33969  Biso   1.000  O
  Co15     1.0000 0.98873  0.01127  0.51127  Biso   1.000  Co
  S3       1.0000 0.87492  0.12508  0.62508  Biso   1.000  S
  O39      1.0000 0.83969  0.16031  0.66031  Biso   1.000  O
  Co16     1.0000 0.51127  0.98873  0.01127  Biso   1.000  Co
  S4       1.0000 0.62508  0.87492  0.12508  Biso   1.000  S
  O40      1.0000 0.66031  0.83969  0.16031  Biso   1.000  O
