data_image0
_cell_length_a       18.206
_cell_length_b       18.32
_cell_length_c       14.765
_cell_angle_alpha    90
_cell_angle_beta     92.161
_cell_angle_gamma    90

_symmetry_space_group_name_H-M    "P 1"
_symmetry_int_tables_number       1

loop_
  _symmetry_equiv_pos_as_xyz
  'x, y, z'

loop_
  _atom_site_label
  _atom_site_occupancy
  _atom_site_fract_x
  _atom_site_fract_y
  _atom_site_fract_z
  _atom_site_thermal_displace_type
  _atom_site_B_iso_or_equiv
  _atom_site_type_symbol
  Zn1      1.0000 0.32735  0.26152  0.77448  Biso   1.000  Zn
  C1       1.0000 0.15410  0.30140  0.80240  Biso   1.000  C
  C2       1.0000 0.14980  0.28320  0.89800  Biso   1.000  C
  C3       1.0000 0.17030  0.21520  0.93080  Biso   1.000  C
  H1       1.0000 0.18190  0.17740  0.88970  Biso   1.000  H
  C4       1.0000 0.13110  0.33450  0.96250  Biso   1.000  C
  H2       1.0000 0.11460  0.38130  0.94320  Biso   1.000  H
  C5       1.0000 0.17380  0.20190  0.02210  Biso   1.000  C
  H3       1.0000 0.18770  0.15460  0.04300  Biso   1.000  H
  C6       1.0000 0.13600  0.31910  0.05180  Biso   1.000  C
  H4       1.0000 0.12320  0.35570  0.09390  Biso   1.000  H
  C7       1.0000 0.19930  0.31190  0.67070  Biso   1.000  C
  C8       1.0000 0.13040  0.34040  0.66620  Biso   1.000  C
  C9       1.0000 0.08530  0.37310  0.59100  Biso   1.000  C
  C10      1.0000 0.25550  0.30760  0.60270  Biso   1.000  C
  C11      1.0000 0.41090  0.39720  0.76550  Biso   1.000  C
  C12      1.0000 0.46200  0.33840  0.75540  Biso   1.000  C
  C13      1.0000 0.47570  0.03330  0.67720  Biso   1.000  C
  H5       1.0000 0.45920  0.00740  0.62450  Biso   1.000  H
  C14      1.0000 0.47340  0.10860  0.67460  Biso   1.000  C
  H6       1.0000 0.45400  0.13350  0.62250  Biso   1.000  H
  N1       1.0000 0.15820  0.25350  0.08320  Biso   1.000  N
  N2       1.0000 0.21530  0.28670  0.75570  Biso   1.000  N
  N3       1.0000 0.10080  0.33470  0.75100  Biso   1.000  N
  N4       1.0000 0.43960  0.26810  0.75660  Biso   1.000  N
  O1       1.0000 0.11390  0.38170  0.51630  Biso   1.000  O
  O2       1.0000 0.02000  0.38830  0.60850  Biso   1.000  O
  O3       1.0000 0.24190  0.33410  0.52280  Biso   1.000  O
  H7       1.0000 0.20090  0.35530  0.52160  Biso   1.000  H
  O4       1.0000 0.31600  0.27930  0.62450  Biso   1.000  O
  O5       1.0000 0.34520  0.38070  0.77990  Biso   1.000  O
  O6       1.0000 0.43330  0.46350  0.76010  Biso   1.000  O
  Zn2      1.0000 0.82735  0.76152  0.77448  Biso   1.000  Zn
  C15      1.0000 0.65410  0.80140  0.80240  Biso   1.000  C
  C16      1.0000 0.64980  0.78320  0.89800  Biso   1.000  C
  C17      1.0000 0.67030  0.71520  0.93080  Biso   1.000  C
  H8       1.0000 0.68190  0.67740  0.88970  Biso   1.000  H
  C18      1.0000 0.63110  0.83450  0.96250  Biso   1.000  C
  H9       1.0000 0.61460  0.88130  0.94320  Biso   1.000  H
  C19      1.0000 0.67380  0.70190  0.02210  Biso   1.000  C
  H10      1.0000 0.68770  0.65460  0.04300  Biso   1.000  H
  C20      1.0000 0.63600  0.81910  0.05180  Biso   1.000  C
  H11      1.0000 0.62320  0.85570  0.09390  Biso   1.000  H
  C21      1.0000 0.69930  0.81190  0.67070  Biso   1.000  C
  C22      1.0000 0.63040  0.84040  0.66620  Biso   1.000  C
  C23      1.0000 0.58530  0.87310  0.59100  Biso   1.000  C
  C24      1.0000 0.75550  0.80760  0.60270  Biso   1.000  C
  C25      1.0000 0.91090  0.89720  0.76550  Biso   1.000  C
  C26      1.0000 0.96200  0.83840  0.75540  Biso   1.000  C
  C27      1.0000 0.97570  0.53330  0.67720  Biso   1.000  C
  H12      1.0000 0.95920  0.50740  0.62450  Biso   1.000  H
  C28      1.0000 0.97340  0.60860  0.67460  Biso   1.000  C
  H13      1.0000 0.95400  0.63350  0.62250  Biso   1.000  H
  N5       1.0000 0.65820  0.75350  0.08320  Biso   1.000  N
  N6       1.0000 0.71530  0.78670  0.75570  Biso   1.000  N
  N7       1.0000 0.60080  0.83470  0.75100  Biso   1.000  N
  N8       1.0000 0.93960  0.76810  0.75660  Biso   1.000  N
  O7       1.0000 0.61390  0.88170  0.51630  Biso   1.000  O
  O8       1.0000 0.52000  0.88830  0.60850  Biso   1.000  O
  O9       1.0000 0.74190  0.83410  0.52280  Biso   1.000  O
  H14      1.0000 0.70090  0.85530  0.52160  Biso   1.000  H
  O10      1.0000 0.81600  0.77930  0.62450  Biso   1.000  O
  O11      1.0000 0.84520  0.88070  0.77990  Biso   1.000  O
  O12      1.0000 0.93330  0.96350  0.76010  Biso   1.000  O
  Zn3      1.0000 0.67265  0.26152  0.72552  Biso   1.000  Zn
  C29      1.0000 0.84590  0.30140  0.69760  Biso   1.000  C
  C30      1.0000 0.85020  0.28320  0.60200  Biso   1.000  C
  C31      1.0000 0.82970  0.21520  0.56920  Biso   1.000  C
  H15      1.0000 0.81810  0.17740  0.61030  Biso   1.000  H
  C32      1.0000 0.86890  0.33450  0.53750  Biso   1.000  C
  H16      1.0000 0.88540  0.38130  0.55680  Biso   1.000  H
  C33      1.0000 0.82620  0.20190  0.47790  Biso   1.000  C
  H17      1.0000 0.81230  0.15460  0.45700  Biso   1.000  H
  C34      1.0000 0.86400  0.31910  0.44820  Biso   1.000  C
  H18      1.0000 0.87680  0.35570  0.40610  Biso   1.000  H
  C35      1.0000 0.80070  0.31190  0.82930  Biso   1.000  C
  C36      1.0000 0.86960  0.34040  0.83380  Biso   1.000  C
  C37      1.0000 0.91470  0.37310  0.90900  Biso   1.000  C
  C38      1.0000 0.74450  0.30760  0.89730  Biso   1.000  C
  C39      1.0000 0.58910  0.39720  0.73450  Biso   1.000  C
  C40      1.0000 0.53800  0.33840  0.74460  Biso   1.000  C
  C41      1.0000 0.52430  0.03330  0.82280  Biso   1.000  C
  H19      1.0000 0.54080  0.00740  0.87550  Biso   1.000  H
  C42      1.0000 0.52660  0.10860  0.82540  Biso   1.000  C
  H20      1.0000 0.54600  0.13350  0.87750  Biso   1.000  H
  N9       1.0000 0.84180  0.25350  0.41680  Biso   1.000  N
  N10      1.0000 0.78470  0.28670  0.74430  Biso   1.000  N
  N11      1.0000 0.89920  0.33470  0.74900  Biso   1.000  N
  N12      1.0000 0.56040  0.26810  0.74340  Biso   1.000  N
  O13      1.0000 0.88610  0.38170  0.98370  Biso   1.000  O
  O14      1.0000 0.98000  0.38830  0.89150  Biso   1.000  O
  O15      1.0000 0.75810  0.33410  0.97720  Biso   1.000  O
  H21      1.0000 0.79910  0.35530  0.97840  Biso   1.000  H
  O16      1.0000 0.68400  0.27930  0.87550  Biso   1.000  O
  O17      1.0000 0.65480  0.38070  0.72010  Biso   1.000  O
  O18      1.0000 0.56670  0.46350  0.73990  Biso   1.000  O
  Zn4      1.0000 0.17265  0.76152  0.72552  Biso   1.000  Zn
  C43      1.0000 0.34590  0.80140  0.69760  Biso   1.000  C
  C44      1.0000 0.35020  0.78320  0.60200  Biso   1.000  C
  C45      1.0000 0.32970  0.71520  0.56920  Biso   1.000  C
  H22      1.0000 0.31810  0.67740  0.61030  Biso   1.000  H
  C46      1.0000 0.36890  0.83450  0.53750  Biso   1.000  C
  H23      1.0000 0.38540  0.88130  0.55680  Biso   1.000  H
  C47      1.0000 0.32620  0.70190  0.47790  Biso   1.000  C
  H24      1.0000 0.31230  0.65460  0.45700  Biso   1.000  H
  C48      1.0000 0.36400  0.81910  0.44820  Biso   1.000  C
  H25      1.0000 0.37680  0.85570  0.40610  Biso   1.000  H
  C49      1.0000 0.30070  0.81190  0.82930  Biso   1.000  C
  C50      1.0000 0.36960  0.84040  0.83380  Biso   1.000  C
  C51      1.0000 0.41470  0.87310  0.90900  Biso   1.000  C
  C52      1.0000 0.24450  0.80760  0.89730  Biso   1.000  C
  C53      1.0000 0.08910  0.89720  0.73450  Biso   1.000  C
  C54      1.0000 0.03800  0.83840  0.74460  Biso   1.000  C
  C55      1.0000 0.02430  0.53330  0.82280  Biso   1.000  C
  H26      1.0000 0.04080  0.50740  0.87550  Biso   1.000  H
  C56      1.0000 0.02660  0.60860  0.82540  Biso   1.000  C
  H27      1.0000 0.04600  0.63350  0.87750  Biso   1.000  H
  N13      1.0000 0.34180  0.75350  0.41680  Biso   1.000  N
  N14      1.0000 0.28470  0.78670  0.74430  Biso   1.000  N
  N15      1.0000 0.39920  0.83470  0.74900  Biso   1.000  N
  N16      1.0000 0.06040  0.76810  0.74340  Biso   1.000  N
  O19      1.0000 0.38610  0.88170  0.98370  Biso   1.000  O
  O20      1.0000 0.48000  0.88830  0.89150  Biso   1.000  O
  O21      1.0000 0.25810  0.83410  0.97720  Biso   1.000  O
  H28      1.0000 0.29910  0.85530  0.97840  Biso   1.000  H
  O22      1.0000 0.18400  0.77930  0.87550  Biso   1.000  O
  O23      1.0000 0.15480  0.88070  0.72010  Biso   1.000  O
  O24      1.0000 0.06670  0.96350  0.73990  Biso   1.000  O
  Zn5      1.0000 0.67265  0.73848  0.22552  Biso   1.000  Zn
  C57      1.0000 0.84590  0.69860  0.19760  Biso   1.000  C
  C58      1.0000 0.85020  0.71680  0.10200  Biso   1.000  C
  C59      1.0000 0.82970  0.78480  0.06920  Biso   1.000  C
  H29      1.0000 0.81810  0.82260  0.11030  Biso   1.000  H
  C60      1.0000 0.86890  0.66550  0.03750  Biso   1.000  C
  H30      1.0000 0.88540  0.61870  0.05680  Biso   1.000  H
  C61      1.0000 0.82620  0.79810  0.97790  Biso   1.000  C
  H31      1.0000 0.81230  0.84540  0.95700  Biso   1.000  H
  C62      1.0000 0.86400  0.68090  0.94820  Biso   1.000  C
  H32      1.0000 0.87680  0.64430  0.90610  Biso   1.000  H
  C63      1.0000 0.80070  0.68810  0.32930  Biso   1.000  C
  C64      1.0000 0.86960  0.65960  0.33380  Biso   1.000  C
  C65      1.0000 0.91470  0.62690  0.40900  Biso   1.000  C
  C66      1.0000 0.74450  0.69240  0.39730  Biso   1.000  C
  C67      1.0000 0.58910  0.60280  0.23450  Biso   1.000  C
  C68      1.0000 0.53800  0.66160  0.24460  Biso   1.000  C
  C69      1.0000 0.52430  0.96670  0.32280  Biso   1.000  C
  H33      1.0000 0.54080  0.99260  0.37550  Biso   1.000  H
  C70      1.0000 0.52660  0.89140  0.32540  Biso   1.000  C
  H34      1.0000 0.54600  0.86650  0.37750  Biso   1.000  H
  N17      1.0000 0.84180  0.74650  0.91680  Biso   1.000  N
  N18      1.0000 0.78470  0.71330  0.24430  Biso   1.000  N
  N19      1.0000 0.89920  0.66530  0.24900  Biso   1.000  N
  N20      1.0000 0.56040  0.73190  0.24340  Biso   1.000  N
  O25      1.0000 0.88610  0.61830  0.48370  Biso   1.000  O
  O26      1.0000 0.98000  0.61170  0.39150  Biso   1.000  O
  O27      1.0000 0.75810  0.66590  0.47720  Biso   1.000  O
  H35      1.0000 0.79910  0.64470  0.47840  Biso   1.000  H
  O28      1.0000 0.68400  0.72070  0.37550  Biso   1.000  O
  O29      1.0000 0.65480  0.61930  0.22010  Biso   1.000  O
  O30      1.0000 0.56670  0.53650  0.23990  Biso   1.000  O
  Zn6      1.0000 0.17265  0.23848  0.22552  Biso   1.000  Zn
  C71      1.0000 0.34590  0.19860  0.19760  Biso   1.000  C
  C72      1.0000 0.35020  0.21680  0.10200  Biso   1.000  C
  C73      1.0000 0.32970  0.28480  0.06920  Biso   1.000  C
  H36      1.0000 0.31810  0.32260  0.11030  Biso   1.000  H
  C74      1.0000 0.36890  0.16550  0.03750  Biso   1.000  C
  H37      1.0000 0.38540  0.11870  0.05680  Biso   1.000  H
  C75      1.0000 0.32620  0.29810  0.97790  Biso   1.000  C
  H38      1.0000 0.31230  0.34540  0.95700  Biso   1.000  H
  C76      1.0000 0.36400  0.18090  0.94820  Biso   1.000  C
  H39      1.0000 0.37680  0.14430  0.90610  Biso   1.000  H
  C77      1.0000 0.30070  0.18810  0.32930  Biso   1.000  C
  C78      1.0000 0.36960  0.15960  0.33380  Biso   1.000  C
  C79      1.0000 0.41470  0.12690  0.40900  Biso   1.000  C
  C80      1.0000 0.24450  0.19240  0.39730  Biso   1.000  C
  C81      1.0000 0.08910  0.10280  0.23450  Biso   1.000  C
  C82      1.0000 0.03800  0.16160  0.24460  Biso   1.000  C
  C83      1.0000 0.02430  0.46670  0.32280  Biso   1.000  C
  H40      1.0000 0.04080  0.49260  0.37550  Biso   1.000  H
  C84      1.0000 0.02660  0.39140  0.32540  Biso   1.000  C
  H41      1.0000 0.04600  0.36650  0.37750  Biso   1.000  H
  N21      1.0000 0.34180  0.24650  0.91680  Biso   1.000  N
  N22      1.0000 0.28470  0.21330  0.24430  Biso   1.000  N
  N23      1.0000 0.39920  0.16530  0.24900  Biso   1.000  N
  N24      1.0000 0.06040  0.23190  0.24340  Biso   1.000  N
  O31      1.0000 0.38610  0.11830  0.48370  Biso   1.000  O
  O32      1.0000 0.48000  0.11170  0.39150  Biso   1.000  O
  O33      1.0000 0.25810  0.16590  0.47720  Biso   1.000  O
  H42      1.0000 0.29910  0.14470  0.47840  Biso   1.000  H
  O34      1.0000 0.18400  0.22070  0.37550  Biso   1.000  O
  O35      1.0000 0.15480  0.11930  0.22010  Biso   1.000  O
  O36      1.0000 0.06670  0.03650  0.23990  Biso   1.000  O
  Zn7      1.0000 0.32735  0.73848  0.27448  Biso   1.000  Zn
  C85      1.0000 0.15410  0.69860  0.30240  Biso   1.000  C
  C86      1.0000 0.14980  0.71680  0.39800  Biso   1.000  C
  C87      1.0000 0.17030  0.78480  0.43080  Biso   1.000  C
  H43      1.0000 0.18190  0.82260  0.38970  Biso   1.000  H
  C88      1.0000 0.13110  0.66550  0.46250  Biso   1.000  C
  H44      1.0000 0.11460  0.61870  0.44320  Biso   1.000  H
  C89      1.0000 0.17380  0.79810  0.52210  Biso   1.000  C
  H45      1.0000 0.18770  0.84540  0.54300  Biso   1.000  H
  C90      1.0000 0.13600  0.68090  0.55180  Biso   1.000  C
  H46      1.0000 0.12320  0.64430  0.59390  Biso   1.000  H
  C91      1.0000 0.19930  0.68810  0.17070  Biso   1.000  C
  C92      1.0000 0.13040  0.65960  0.16620  Biso   1.000  C
  C93      1.0000 0.08530  0.62690  0.09100  Biso   1.000  C
  C94      1.0000 0.25550  0.69240  0.10270  Biso   1.000  C
  C95      1.0000 0.41090  0.60280  0.26550  Biso   1.000  C
  C96      1.0000 0.46200  0.66160  0.25540  Biso   1.000  C
  C97      1.0000 0.47570  0.96670  0.17720  Biso   1.000  C
  H47      1.0000 0.45920  0.99260  0.12450  Biso   1.000  H
  C98      1.0000 0.47340  0.89140  0.17460  Biso   1.000  C
  H48      1.0000 0.45400  0.86650  0.12250  Biso   1.000  H
  N25      1.0000 0.15820  0.74650  0.58320  Biso   1.000  N
  N26      1.0000 0.21530  0.71330  0.25570  Biso   1.000  N
  N27      1.0000 0.10080  0.66530  0.25100  Biso   1.000  N
  N28      1.0000 0.43960  0.73190  0.25660  Biso   1.000  N
  O37      1.0000 0.11390  0.61830  0.01630  Biso   1.000  O
  O38      1.0000 0.02000  0.61170  0.10850  Biso   1.000  O
  O39      1.0000 0.24190  0.66590  0.02280  Biso   1.000  O
  H49      1.0000 0.20090  0.64470  0.02160  Biso   1.000  H
  O40      1.0000 0.31600  0.72070  0.12450  Biso   1.000  O
  O41      1.0000 0.34520  0.61930  0.27990  Biso   1.000  O
  O42      1.0000 0.43330  0.53650  0.26010  Biso   1.000  O
  Zn8      1.0000 0.82735  0.23848  0.27448  Biso   1.000  Zn
  C99      1.0000 0.65410  0.19860  0.30240  Biso   1.000  C
  C100     1.0000 0.64980  0.21680  0.39800  Biso   1.000  C
  C101     1.0000 0.67030  0.28480  0.43080  Biso   1.000  C
  H50      1.0000 0.68190  0.32260  0.38970  Biso   1.000  H
  C102     1.0000 0.63110  0.16550  0.46250  Biso   1.000  C
  H51      1.0000 0.61460  0.11870  0.44320  Biso   1.000  H
  C103     1.0000 0.67380  0.29810  0.52210  Biso   1.000  C
  H52      1.0000 0.68770  0.34540  0.54300  Biso   1.000  H
  C104     1.0000 0.63600  0.18090  0.55180  Biso   1.000  C
  H53      1.0000 0.62320  0.14430  0.59390  Biso   1.000  H
  C105     1.0000 0.69930  0.18810  0.17070  Biso   1.000  C
  C106     1.0000 0.63040  0.15960  0.16620  Biso   1.000  C
  C107     1.0000 0.58530  0.12690  0.09100  Biso   1.000  C
  C108     1.0000 0.75550  0.19240  0.10270  Biso   1.000  C
  C109     1.0000 0.91090  0.10280  0.26550  Biso   1.000  C
  C110     1.0000 0.96200  0.16160  0.25540  Biso   1.000  C
  C111     1.0000 0.97570  0.46670  0.17720  Biso   1.000  C
  H54      1.0000 0.95920  0.49260  0.12450  Biso   1.000  H
  C112     1.0000 0.97340  0.39140  0.17460  Biso   1.000  C
  H55      1.0000 0.95400  0.36650  0.12250  Biso   1.000  H
  N29      1.0000 0.65820  0.24650  0.58320  Biso   1.000  N
  N30      1.0000 0.71530  0.21330  0.25570  Biso   1.000  N
  N31      1.0000 0.60080  0.16530  0.25100  Biso   1.000  N
  N32      1.0000 0.93960  0.23190  0.25660  Biso   1.000  N
  O43      1.0000 0.61390  0.11830  0.01630  Biso   1.000  O
  O44      1.0000 0.52000  0.11170  0.10850  Biso   1.000  O
  O45      1.0000 0.74190  0.16590  0.02280  Biso   1.000  O
  H56      1.0000 0.70090  0.14470  0.02160  Biso   1.000  H
  O46      1.0000 0.81600  0.22070  0.12450  Biso   1.000  O
  O47      1.0000 0.84520  0.11930  0.27990  Biso   1.000  O
  O48      1.0000 0.93330  0.03650  0.26010  Biso   1.000  O
  Zn9      1.0000 0.00000  0.38173  0.75000  Biso   1.000  Zn
  Zn10     1.0000 0.50000  0.88173  0.75000  Biso   1.000  Zn
  Zn11     1.0000 0.00000  0.61827  0.25000  Biso   1.000  Zn
  Zn12     1.0000 0.50000  0.11827  0.25000  Biso   1.000  Zn
  C113     1.0000 0.50000  0.22740  0.75000  Biso   1.000  C
  C114     1.0000 0.50000  0.14720  0.75000  Biso   1.000  C
  N33      1.0000 0.50000  0.99410  0.75000  Biso   1.000  N
  C115     1.0000 0.00000  0.72740  0.75000  Biso   1.000  C
  C116     1.0000 0.00000  0.64720  0.75000  Biso   1.000  C
  N34      1.0000 0.00000  0.49410  0.75000  Biso   1.000  N
  C117     1.0000 0.50000  0.77260  0.25000  Biso   1.000  C
  C118     1.0000 0.50000  0.85280  0.25000  Biso   1.000  C
  N35      1.0000 0.50000  0.00590  0.25000  Biso   1.000  N
  C119     1.0000 0.00000  0.27260  0.25000  Biso   1.000  C
  C120     1.0000 0.00000  0.35280  0.25000  Biso   1.000  C
  N36      1.0000 0.00000  0.50590  0.25000  Biso   1.000  N
