data_image0
_cell_length_a       18.087
_cell_length_b       24.867
_cell_length_c       17.611
_cell_angle_alpha    90
_cell_angle_beta     90
_cell_angle_gamma    90

_symmetry_space_group_name_H-M    "P 1"
_symmetry_int_tables_number       1

loop_
  _symmetry_equiv_pos_as_xyz
  'x, y, z'

loop_
  _atom_site_label
  _atom_site_occupancy
  _atom_site_fract_x
  _atom_site_fract_y
  _atom_site_fract_z
  _atom_site_thermal_displace_type
  _atom_site_B_iso_or_equiv
  _atom_site_type_symbol
  Zn1      1.0000 0.03642  0.56437  0.18593  Biso   1.000  Zn
  Zn2      1.0000 0.93714  0.31804  0.24036  Biso   1.000  Zn
  C1       1.0000 0.02470  0.51710  0.34190  Biso   1.000  C
  C2       1.0000 0.83530  0.18390  0.26830  Biso   1.000  C
  C3       1.0000 0.98500  0.43840  0.17860  Biso   1.000  C
  C4       1.0000 0.03800  0.44100  0.97230  Biso   1.000  C
  H1       1.0000 0.08100  0.44730  0.94260  Biso   1.000  H
  C5       1.0000 0.91560  0.41770  0.97890  Biso   1.000  C
  H2       1.0000 0.87040  0.40830  0.95480  Biso   1.000  H
  C6       1.0000 0.09390  0.13260  0.30050  Biso   1.000  C
  C7       1.0000 0.96670  0.39020  0.36750  Biso   1.000  C
  C8       1.0000 0.02960  0.16830  0.29090  Biso   1.000  C
  C9       1.0000 0.97820  0.42230  0.29850  Biso   1.000  C
  C10      1.0000 0.02390  0.22280  0.27600  Biso   1.000  C
  C11      1.0000 0.00410  0.47410  0.28840  Biso   1.000  C
  C12      1.0000 0.91310  0.18920  0.27680  Biso   1.000  C
  C13      1.0000 0.98150  0.43250  0.09440  Biso   1.000  C
  C14      1.0000 0.04370  0.44340  0.04970  Biso   1.000  C
  H3       1.0000 0.08940  0.45250  0.07290  Biso   1.000  H
  C15      1.0000 0.91740  0.41800  0.05770  Biso   1.000  C
  H4       1.0000 0.87470  0.40820  0.08600  Biso   1.000  H
  C16      1.0000 0.71170  0.17750  0.31380  Biso   1.000  C
  H5       1.0000 0.68120  0.17550  0.35760  Biso   1.000  H
  C17      1.0000 0.08020  0.26440  0.26590  Biso   1.000  C
  C18      1.0000 0.79980  0.18390  0.20300  Biso   1.000  C
  H6       1.0000 0.82890  0.18480  0.15810  Biso   1.000  H
  C19      1.0000 0.72140  0.18280  0.19350  Biso   1.000  C
  H7       1.0000 0.70020  0.18630  0.14440  Biso   1.000  H
  C20      1.0000 0.78620  0.18040  0.32390  Biso   1.000  C
  H8       1.0000 0.80430  0.18000  0.37460  Biso   1.000  H
  N1       1.0000 0.96510  0.40000  0.22820  Biso   1.000  N
  N2       1.0000 0.00930  0.48420  0.21180  Biso   1.000  N
  N3       1.0000 0.95960  0.14820  0.29240  Biso   1.000  N
  N4       1.0000 0.95180  0.23640  0.26620  Biso   1.000  N
  N5       1.0000 0.68120  0.17720  0.25010  Biso   1.000  N
  N6       1.0000 0.97220  0.42960  0.93550  Biso   1.000  N
  O1       1.0000 0.94690  0.34220  0.35960  Biso   1.000  O
  O2       1.0000 0.97780  0.41260  0.43200  Biso   1.000  O
  O3       1.0000 0.04500  0.56090  0.31690  Biso   1.000  O
  O4       1.0000 0.01760  0.50740  0.41340  Biso   1.000  O
  H9       1.0000 0.97260  0.50340  0.42390  Biso   1.000  H
  O5       1.0000 0.08060  0.08450  0.30850  Biso   1.000  O
  O6       1.0000 0.15860  0.15350  0.30090  Biso   1.000  O
  O7       1.0000 0.06320  0.31010  0.24620  Biso   1.000  O
  O8       1.0000 0.14870  0.25100  0.27810  Biso   1.000  O
  H10      1.0000 0.17090  0.24800  0.23640  Biso   1.000  H
  Zn3      1.0000 0.46358  0.93563  0.18593  Biso   1.000  Zn
  Zn4      1.0000 0.56286  0.18196  0.24036  Biso   1.000  Zn
  C21      1.0000 0.47530  0.98290  0.34190  Biso   1.000  C
  C22      1.0000 0.66470  0.31610  0.26830  Biso   1.000  C
  C23      1.0000 0.51500  0.06160  0.17860  Biso   1.000  C
  C24      1.0000 0.46200  0.05900  0.97230  Biso   1.000  C
  H11      1.0000 0.41900  0.05270  0.94260  Biso   1.000  H
  C25      1.0000 0.58440  0.08230  0.97890  Biso   1.000  C
  H12      1.0000 0.62960  0.09170  0.95480  Biso   1.000  H
  C26      1.0000 0.40610  0.36740  0.30050  Biso   1.000  C
  C27      1.0000 0.53330  0.10980  0.36750  Biso   1.000  C
  C28      1.0000 0.47040  0.33170  0.29090  Biso   1.000  C
  C29      1.0000 0.52180  0.07770  0.29850  Biso   1.000  C
  C30      1.0000 0.47610  0.27720  0.27600  Biso   1.000  C
  C31      1.0000 0.49590  0.02590  0.28840  Biso   1.000  C
  C32      1.0000 0.58690  0.31080  0.27680  Biso   1.000  C
  C33      1.0000 0.51850  0.06750  0.09440  Biso   1.000  C
  C34      1.0000 0.45630  0.05660  0.04970  Biso   1.000  C
  H13      1.0000 0.41060  0.04750  0.07290  Biso   1.000  H
  C35      1.0000 0.58260  0.08200  0.05770  Biso   1.000  C
  H14      1.0000 0.62530  0.09180  0.08600  Biso   1.000  H
  C36      1.0000 0.78830  0.32250  0.31380  Biso   1.000  C
  H15      1.0000 0.81880  0.32450  0.35760  Biso   1.000  H
  C37      1.0000 0.41980  0.23560  0.26590  Biso   1.000  C
  C38      1.0000 0.70020  0.31610  0.20300  Biso   1.000  C
  H16      1.0000 0.67110  0.31520  0.15810  Biso   1.000  H
  C39      1.0000 0.77860  0.31720  0.19350  Biso   1.000  C
  H17      1.0000 0.79980  0.31370  0.14440  Biso   1.000  H
  C40      1.0000 0.71380  0.31960  0.32390  Biso   1.000  C
  H18      1.0000 0.69570  0.32000  0.37460  Biso   1.000  H
  N7       1.0000 0.53490  0.10000  0.22820  Biso   1.000  N
  N8       1.0000 0.49070  0.01580  0.21180  Biso   1.000  N
  N9       1.0000 0.54040  0.35180  0.29240  Biso   1.000  N
  N10      1.0000 0.54820  0.26360  0.26620  Biso   1.000  N
  N11      1.0000 0.81880  0.32280  0.25010  Biso   1.000  N
  N12      1.0000 0.52780  0.07040  0.93550  Biso   1.000  N
  O9       1.0000 0.55310  0.15780  0.35960  Biso   1.000  O
  O10      1.0000 0.52220  0.08740  0.43200  Biso   1.000  O
  O11      1.0000 0.45500  0.93910  0.31690  Biso   1.000  O
  O12      1.0000 0.48240  0.99260  0.41340  Biso   1.000  O
  H19      1.0000 0.52740  0.99660  0.42390  Biso   1.000  H
  O13      1.0000 0.41940  0.41550  0.30850  Biso   1.000  O
  O14      1.0000 0.34140  0.34650  0.30090  Biso   1.000  O
  O15      1.0000 0.43680  0.18990  0.24620  Biso   1.000  O
  O16      1.0000 0.35130  0.24900  0.27810  Biso   1.000  O
  H20      1.0000 0.32910  0.25200  0.23640  Biso   1.000  H
  Zn5      1.0000 0.96358  0.06437  0.31407  Biso   1.000  Zn
  Zn6      1.0000 0.06286  0.81804  0.25964  Biso   1.000  Zn
  C41      1.0000 0.97530  0.01710  0.15810  Biso   1.000  C
  C42      1.0000 0.16470  0.68390  0.23170  Biso   1.000  C
  C43      1.0000 0.01500  0.93840  0.32140  Biso   1.000  C
  C44      1.0000 0.96200  0.94100  0.52770  Biso   1.000  C
  H21      1.0000 0.91900  0.94730  0.55740  Biso   1.000  H
  C45      1.0000 0.08440  0.91770  0.52110  Biso   1.000  C
  H22      1.0000 0.12960  0.90830  0.54520  Biso   1.000  H
  C46      1.0000 0.90610  0.63260  0.19950  Biso   1.000  C
  C47      1.0000 0.03330  0.89020  0.13250  Biso   1.000  C
  C48      1.0000 0.97040  0.66830  0.20910  Biso   1.000  C
  C49      1.0000 0.02180  0.92230  0.20150  Biso   1.000  C
  C50      1.0000 0.97610  0.72280  0.22400  Biso   1.000  C
  C51      1.0000 0.99590  0.97410  0.21160  Biso   1.000  C
  C52      1.0000 0.08690  0.68920  0.22320  Biso   1.000  C
  C53      1.0000 0.01850  0.93250  0.40560  Biso   1.000  C
  C54      1.0000 0.95630  0.94340  0.45030  Biso   1.000  C
  H23      1.0000 0.91060  0.95250  0.42710  Biso   1.000  H
  C55      1.0000 0.08260  0.91800  0.44230  Biso   1.000  C
  H24      1.0000 0.12530  0.90820  0.41400  Biso   1.000  H
  C56      1.0000 0.28830  0.67750  0.18620  Biso   1.000  C
  H25      1.0000 0.31880  0.67550  0.14240  Biso   1.000  H
  C57      1.0000 0.91980  0.76440  0.23410  Biso   1.000  C
  C58      1.0000 0.20020  0.68390  0.29700  Biso   1.000  C
  H26      1.0000 0.17110  0.68480  0.34190  Biso   1.000  H
  C59      1.0000 0.27860  0.68280  0.30650  Biso   1.000  C
  H27      1.0000 0.29980  0.68630  0.35560  Biso   1.000  H
  C60      1.0000 0.21380  0.68040  0.17610  Biso   1.000  C
  H28      1.0000 0.19570  0.68000  0.12540  Biso   1.000  H
  N13      1.0000 0.03490  0.90000  0.27180  Biso   1.000  N
  N14      1.0000 0.99070  0.98420  0.28820  Biso   1.000  N
  N15      1.0000 0.04040  0.64820  0.20760  Biso   1.000  N
  N16      1.0000 0.04820  0.73640  0.23380  Biso   1.000  N
  N17      1.0000 0.31880  0.67720  0.24990  Biso   1.000  N
  N18      1.0000 0.02780  0.92960  0.56450  Biso   1.000  N
  O17      1.0000 0.05310  0.84220  0.14040  Biso   1.000  O
  O18      1.0000 0.02220  0.91260  0.06800  Biso   1.000  O
  O19      1.0000 0.95500  0.06090  0.18310  Biso   1.000  O
  O20      1.0000 0.98240  0.00740  0.08660  Biso   1.000  O
  H29      1.0000 0.02740  0.00340  0.07610  Biso   1.000  H
  O21      1.0000 0.91940  0.58450  0.19150  Biso   1.000  O
  O22      1.0000 0.84140  0.65350  0.19910  Biso   1.000  O
  O23      1.0000 0.93680  0.81010  0.25380  Biso   1.000  O
  O24      1.0000 0.85130  0.75100  0.22190  Biso   1.000  O
  H30      1.0000 0.82910  0.74800  0.26360  Biso   1.000  H
  Zn7      1.0000 0.53642  0.43563  0.31407  Biso   1.000  Zn
  Zn8      1.0000 0.43714  0.68196  0.25964  Biso   1.000  Zn
  C61      1.0000 0.52470  0.48290  0.15810  Biso   1.000  C
  C62      1.0000 0.33530  0.81610  0.23170  Biso   1.000  C
  C63      1.0000 0.48500  0.56160  0.32140  Biso   1.000  C
  C64      1.0000 0.53800  0.55900  0.52770  Biso   1.000  C
  H31      1.0000 0.58100  0.55270  0.55740  Biso   1.000  H
  C65      1.0000 0.41560  0.58230  0.52110  Biso   1.000  C
  H32      1.0000 0.37040  0.59170  0.54520  Biso   1.000  H
  C66      1.0000 0.59390  0.86740  0.19950  Biso   1.000  C
  C67      1.0000 0.46670  0.60980  0.13250  Biso   1.000  C
  C68      1.0000 0.52960  0.83170  0.20910  Biso   1.000  C
  C69      1.0000 0.47820  0.57770  0.20150  Biso   1.000  C
  C70      1.0000 0.52390  0.77720  0.22400  Biso   1.000  C
  C71      1.0000 0.50410  0.52590  0.21160  Biso   1.000  C
  C72      1.0000 0.41310  0.81080  0.22320  Biso   1.000  C
  C73      1.0000 0.48150  0.56750  0.40560  Biso   1.000  C
  C74      1.0000 0.54370  0.55660  0.45030  Biso   1.000  C
  H33      1.0000 0.58940  0.54750  0.42710  Biso   1.000  H
  C75      1.0000 0.41740  0.58200  0.44230  Biso   1.000  C
  H34      1.0000 0.37470  0.59180  0.41400  Biso   1.000  H
  C76      1.0000 0.21170  0.82250  0.18620  Biso   1.000  C
  H35      1.0000 0.18120  0.82450  0.14240  Biso   1.000  H
  C77      1.0000 0.58020  0.73560  0.23410  Biso   1.000  C
  C78      1.0000 0.29980  0.81610  0.29700  Biso   1.000  C
  H36      1.0000 0.32890  0.81520  0.34190  Biso   1.000  H
  C79      1.0000 0.22140  0.81720  0.30650  Biso   1.000  C
  H37      1.0000 0.20020  0.81370  0.35560  Biso   1.000  H
  C80      1.0000 0.28620  0.81960  0.17610  Biso   1.000  C
  H38      1.0000 0.30430  0.82000  0.12540  Biso   1.000  H
  N19      1.0000 0.46510  0.60000  0.27180  Biso   1.000  N
  N20      1.0000 0.50930  0.51580  0.28820  Biso   1.000  N
  N21      1.0000 0.45960  0.85180  0.20760  Biso   1.000  N
  N22      1.0000 0.45180  0.76360  0.23380  Biso   1.000  N
  N23      1.0000 0.18120  0.82280  0.24990  Biso   1.000  N
  N24      1.0000 0.47220  0.57040  0.56450  Biso   1.000  N
  O25      1.0000 0.44690  0.65780  0.14040  Biso   1.000  O
  O26      1.0000 0.47780  0.58740  0.06800  Biso   1.000  O
  O27      1.0000 0.54500  0.43910  0.18310  Biso   1.000  O
  O28      1.0000 0.51760  0.49260  0.08660  Biso   1.000  O
  H39      1.0000 0.47260  0.49660  0.07610  Biso   1.000  H
  O29      1.0000 0.58060  0.91550  0.19150  Biso   1.000  O
  O30      1.0000 0.65860  0.84650  0.19910  Biso   1.000  O
  O31      1.0000 0.56320  0.68990  0.25380  Biso   1.000  O
  O32      1.0000 0.64870  0.74900  0.22190  Biso   1.000  O
  H40      1.0000 0.67090  0.75200  0.26360  Biso   1.000  H
  Zn9      1.0000 0.96358  0.43563  0.81407  Biso   1.000  Zn
  Zn10     1.0000 0.06286  0.68196  0.75964  Biso   1.000  Zn
  C81      1.0000 0.97530  0.48290  0.65810  Biso   1.000  C
  C82      1.0000 0.16470  0.81610  0.73170  Biso   1.000  C
  C83      1.0000 0.01500  0.56160  0.82140  Biso   1.000  C
  C84      1.0000 0.96200  0.55900  0.02770  Biso   1.000  C
  H41      1.0000 0.91900  0.55270  0.05740  Biso   1.000  H
  C85      1.0000 0.08440  0.58230  0.02110  Biso   1.000  C
  H42      1.0000 0.12960  0.59170  0.04520  Biso   1.000  H
  C86      1.0000 0.90610  0.86740  0.69950  Biso   1.000  C
  C87      1.0000 0.03330  0.60980  0.63250  Biso   1.000  C
  C88      1.0000 0.97040  0.83170  0.70910  Biso   1.000  C
  C89      1.0000 0.02180  0.57770  0.70150  Biso   1.000  C
  C90      1.0000 0.97610  0.77720  0.72400  Biso   1.000  C
  C91      1.0000 0.99590  0.52590  0.71160  Biso   1.000  C
  C92      1.0000 0.08690  0.81080  0.72320  Biso   1.000  C
  C93      1.0000 0.01850  0.56750  0.90560  Biso   1.000  C
  C94      1.0000 0.95630  0.55660  0.95030  Biso   1.000  C
  H43      1.0000 0.91060  0.54750  0.92710  Biso   1.000  H
  C95      1.0000 0.08260  0.58200  0.94230  Biso   1.000  C
  H44      1.0000 0.12530  0.59180  0.91400  Biso   1.000  H
  C96      1.0000 0.28830  0.82250  0.68620  Biso   1.000  C
  H45      1.0000 0.31880  0.82450  0.64240  Biso   1.000  H
  C97      1.0000 0.91980  0.73560  0.73410  Biso   1.000  C
  C98      1.0000 0.20020  0.81610  0.79700  Biso   1.000  C
  H46      1.0000 0.17110  0.81520  0.84190  Biso   1.000  H
  C99      1.0000 0.27860  0.81720  0.80650  Biso   1.000  C
  H47      1.0000 0.29980  0.81370  0.85560  Biso   1.000  H
  C100     1.0000 0.21380  0.81960  0.67610  Biso   1.000  C
  H48      1.0000 0.19570  0.82000  0.62540  Biso   1.000  H
  N25      1.0000 0.03490  0.60000  0.77180  Biso   1.000  N
  N26      1.0000 0.99070  0.51580  0.78820  Biso   1.000  N
  N27      1.0000 0.04040  0.85180  0.70760  Biso   1.000  N
  N28      1.0000 0.04820  0.76360  0.73380  Biso   1.000  N
  N29      1.0000 0.31880  0.82280  0.74990  Biso   1.000  N
  N30      1.0000 0.02780  0.57040  0.06450  Biso   1.000  N
  O33      1.0000 0.05310  0.65780  0.64040  Biso   1.000  O
  O34      1.0000 0.02220  0.58740  0.56800  Biso   1.000  O
  O35      1.0000 0.95500  0.43910  0.68310  Biso   1.000  O
  O36      1.0000 0.98240  0.49260  0.58660  Biso   1.000  O
  H49      1.0000 0.02740  0.49660  0.57610  Biso   1.000  H
  O37      1.0000 0.91940  0.91550  0.69150  Biso   1.000  O
  O38      1.0000 0.84140  0.84650  0.69910  Biso   1.000  O
  O39      1.0000 0.93680  0.68990  0.75380  Biso   1.000  O
  O40      1.0000 0.85130  0.74900  0.72190  Biso   1.000  O
  H50      1.0000 0.82910  0.75200  0.76360  Biso   1.000  H
  Zn11     1.0000 0.53642  0.06437  0.81407  Biso   1.000  Zn
  Zn12     1.0000 0.43714  0.81804  0.75964  Biso   1.000  Zn
  C101     1.0000 0.52470  0.01710  0.65810  Biso   1.000  C
  C102     1.0000 0.33530  0.68390  0.73170  Biso   1.000  C
  C103     1.0000 0.48500  0.93840  0.82140  Biso   1.000  C
  C104     1.0000 0.53800  0.94100  0.02770  Biso   1.000  C
  H51      1.0000 0.58100  0.94730  0.05740  Biso   1.000  H
  C105     1.0000 0.41560  0.91770  0.02110  Biso   1.000  C
  H52      1.0000 0.37040  0.90830  0.04520  Biso   1.000  H
  C106     1.0000 0.59390  0.63260  0.69950  Biso   1.000  C
  C107     1.0000 0.46670  0.89020  0.63250  Biso   1.000  C
  C108     1.0000 0.52960  0.66830  0.70910  Biso   1.000  C
  C109     1.0000 0.47820  0.92230  0.70150  Biso   1.000  C
  C110     1.0000 0.52390  0.72280  0.72400  Biso   1.000  C
  C111     1.0000 0.50410  0.97410  0.71160  Biso   1.000  C
  C112     1.0000 0.41310  0.68920  0.72320  Biso   1.000  C
  C113     1.0000 0.48150  0.93250  0.90560  Biso   1.000  C
  C114     1.0000 0.54370  0.94340  0.95030  Biso   1.000  C
  H53      1.0000 0.58940  0.95250  0.92710  Biso   1.000  H
  C115     1.0000 0.41740  0.91800  0.94230  Biso   1.000  C
  H54      1.0000 0.37470  0.90820  0.91400  Biso   1.000  H
  C116     1.0000 0.21170  0.67750  0.68620  Biso   1.000  C
  H55      1.0000 0.18120  0.67550  0.64240  Biso   1.000  H
  C117     1.0000 0.58020  0.76440  0.73410  Biso   1.000  C
  C118     1.0000 0.29980  0.68390  0.79700  Biso   1.000  C
  H56      1.0000 0.32890  0.68480  0.84190  Biso   1.000  H
  C119     1.0000 0.22140  0.68280  0.80650  Biso   1.000  C
  H57      1.0000 0.20020  0.68630  0.85560  Biso   1.000  H
  C120     1.0000 0.28620  0.68040  0.67610  Biso   1.000  C
  H58      1.0000 0.30430  0.68000  0.62540  Biso   1.000  H
  N31      1.0000 0.46510  0.90000  0.77180  Biso   1.000  N
  N32      1.0000 0.50930  0.98420  0.78820  Biso   1.000  N
  N33      1.0000 0.45960  0.64820  0.70760  Biso   1.000  N
  N34      1.0000 0.45180  0.73640  0.73380  Biso   1.000  N
  N35      1.0000 0.18120  0.67720  0.74990  Biso   1.000  N
  N36      1.0000 0.47220  0.92960  0.06450  Biso   1.000  N
  O41      1.0000 0.44690  0.84220  0.64040  Biso   1.000  O
  O42      1.0000 0.47780  0.91260  0.56800  Biso   1.000  O
  O43      1.0000 0.54500  0.06090  0.68310  Biso   1.000  O
  O44      1.0000 0.51760  0.00740  0.58660  Biso   1.000  O
  H59      1.0000 0.47260  0.00340  0.57610  Biso   1.000  H
  O45      1.0000 0.58060  0.58450  0.69150  Biso   1.000  O
  O46      1.0000 0.65860  0.65350  0.69910  Biso   1.000  O
  O47      1.0000 0.56320  0.81010  0.75380  Biso   1.000  O
  O48      1.0000 0.64870  0.75100  0.72190  Biso   1.000  O
  H60      1.0000 0.67090  0.74800  0.76360  Biso   1.000  H
  Zn13     1.0000 0.03642  0.93563  0.68593  Biso   1.000  Zn
  Zn14     1.0000 0.93714  0.18196  0.74036  Biso   1.000  Zn
  C121     1.0000 0.02470  0.98290  0.84190  Biso   1.000  C
  C122     1.0000 0.83530  0.31610  0.76830  Biso   1.000  C
  C123     1.0000 0.98500  0.06160  0.67860  Biso   1.000  C
  C124     1.0000 0.03800  0.05900  0.47230  Biso   1.000  C
  H61      1.0000 0.08100  0.05270  0.44260  Biso   1.000  H
  C125     1.0000 0.91560  0.08230  0.47890  Biso   1.000  C
  H62      1.0000 0.87040  0.09170  0.45480  Biso   1.000  H
  C126     1.0000 0.09390  0.36740  0.80050  Biso   1.000  C
  C127     1.0000 0.96670  0.10980  0.86750  Biso   1.000  C
  C128     1.0000 0.02960  0.33170  0.79090  Biso   1.000  C
  C129     1.0000 0.97820  0.07770  0.79850  Biso   1.000  C
  C130     1.0000 0.02390  0.27720  0.77600  Biso   1.000  C
  C131     1.0000 0.00410  0.02590  0.78840  Biso   1.000  C
  C132     1.0000 0.91310  0.31080  0.77680  Biso   1.000  C
  C133     1.0000 0.98150  0.06750  0.59440  Biso   1.000  C
  C134     1.0000 0.04370  0.05660  0.54970  Biso   1.000  C
  H63      1.0000 0.08940  0.04750  0.57290  Biso   1.000  H
  C135     1.0000 0.91740  0.08200  0.55770  Biso   1.000  C
  H64      1.0000 0.87470  0.09180  0.58600  Biso   1.000  H
  C136     1.0000 0.71170  0.32250  0.81380  Biso   1.000  C
  H65      1.0000 0.68120  0.32450  0.85760  Biso   1.000  H
  C137     1.0000 0.08020  0.23560  0.76590  Biso   1.000  C
  C138     1.0000 0.79980  0.31610  0.70300  Biso   1.000  C
  H66      1.0000 0.82890  0.31520  0.65810  Biso   1.000  H
  C139     1.0000 0.72140  0.31720  0.69350  Biso   1.000  C
  H67      1.0000 0.70020  0.31370  0.64440  Biso   1.000  H
  C140     1.0000 0.78620  0.31960  0.82390  Biso   1.000  C
  H68      1.0000 0.80430  0.32000  0.87460  Biso   1.000  H
  N37      1.0000 0.96510  0.10000  0.72820  Biso   1.000  N
  N38      1.0000 0.00930  0.01580  0.71180  Biso   1.000  N
  N39      1.0000 0.95960  0.35180  0.79240  Biso   1.000  N
  N40      1.0000 0.95180  0.26360  0.76620  Biso   1.000  N
  N41      1.0000 0.68120  0.32280  0.75010  Biso   1.000  N
  N42      1.0000 0.97220  0.07040  0.43550  Biso   1.000  N
  O49      1.0000 0.94690  0.15780  0.85960  Biso   1.000  O
  O50      1.0000 0.97780  0.08740  0.93200  Biso   1.000  O
  O51      1.0000 0.04500  0.93910  0.81690  Biso   1.000  O
  O52      1.0000 0.01760  0.99260  0.91340  Biso   1.000  O
  H69      1.0000 0.97260  0.99660  0.92390  Biso   1.000  H
  O53      1.0000 0.08060  0.41550  0.80850  Biso   1.000  O
  O54      1.0000 0.15860  0.34650  0.80090  Biso   1.000  O
  O55      1.0000 0.06320  0.18990  0.74620  Biso   1.000  O
  O56      1.0000 0.14870  0.24900  0.77810  Biso   1.000  O
  H70      1.0000 0.17090  0.25200  0.73640  Biso   1.000  H
  Zn15     1.0000 0.46358  0.56437  0.68593  Biso   1.000  Zn
  Zn16     1.0000 0.56286  0.31804  0.74036  Biso   1.000  Zn
  C141     1.0000 0.47530  0.51710  0.84190  Biso   1.000  C
  C142     1.0000 0.66470  0.18390  0.76830  Biso   1.000  C
  C143     1.0000 0.51500  0.43840  0.67860  Biso   1.000  C
  C144     1.0000 0.46200  0.44100  0.47230  Biso   1.000  C
  H71      1.0000 0.41900  0.44730  0.44260  Biso   1.000  H
  C145     1.0000 0.58440  0.41770  0.47890  Biso   1.000  C
  H72      1.0000 0.62960  0.40830  0.45480  Biso   1.000  H
  C146     1.0000 0.40610  0.13260  0.80050  Biso   1.000  C
  C147     1.0000 0.53330  0.39020  0.86750  Biso   1.000  C
  C148     1.0000 0.47040  0.16830  0.79090  Biso   1.000  C
  C149     1.0000 0.52180  0.42230  0.79850  Biso   1.000  C
  C150     1.0000 0.47610  0.22280  0.77600  Biso   1.000  C
  C151     1.0000 0.49590  0.47410  0.78840  Biso   1.000  C
  C152     1.0000 0.58690  0.18920  0.77680  Biso   1.000  C
  C153     1.0000 0.51850  0.43250  0.59440  Biso   1.000  C
  C154     1.0000 0.45630  0.44340  0.54970  Biso   1.000  C
  H73      1.0000 0.41060  0.45250  0.57290  Biso   1.000  H
  C155     1.0000 0.58260  0.41800  0.55770  Biso   1.000  C
  H74      1.0000 0.62530  0.40820  0.58600  Biso   1.000  H
  C156     1.0000 0.78830  0.17750  0.81380  Biso   1.000  C
  H75      1.0000 0.81880  0.17550  0.85760  Biso   1.000  H
  C157     1.0000 0.41980  0.26440  0.76590  Biso   1.000  C
  C158     1.0000 0.70020  0.18390  0.70300  Biso   1.000  C
  H76      1.0000 0.67110  0.18480  0.65810  Biso   1.000  H
  C159     1.0000 0.77860  0.18280  0.69350  Biso   1.000  C
  H77      1.0000 0.79980  0.18630  0.64440  Biso   1.000  H
  C160     1.0000 0.71380  0.18040  0.82390  Biso   1.000  C
  H78      1.0000 0.69570  0.18000  0.87460  Biso   1.000  H
  N43      1.0000 0.53490  0.40000  0.72820  Biso   1.000  N
  N44      1.0000 0.49070  0.48420  0.71180  Biso   1.000  N
  N45      1.0000 0.54040  0.14820  0.79240  Biso   1.000  N
  N46      1.0000 0.54820  0.23640  0.76620  Biso   1.000  N
  N47      1.0000 0.81880  0.17720  0.75010  Biso   1.000  N
  N48      1.0000 0.52780  0.42960  0.43550  Biso   1.000  N
  O57      1.0000 0.55310  0.34220  0.85960  Biso   1.000  O
  O58      1.0000 0.52220  0.41260  0.93200  Biso   1.000  O
  O59      1.0000 0.45500  0.56090  0.81690  Biso   1.000  O
  O60      1.0000 0.48240  0.50740  0.91340  Biso   1.000  O
  H79      1.0000 0.52740  0.50340  0.92390  Biso   1.000  H
  O61      1.0000 0.41940  0.08450  0.80850  Biso   1.000  O
  O62      1.0000 0.34140  0.15350  0.80090  Biso   1.000  O
  O63      1.0000 0.43680  0.31010  0.74620  Biso   1.000  O
  O64      1.0000 0.35130  0.25100  0.77810  Biso   1.000  O
  H80      1.0000 0.32910  0.24800  0.73640  Biso   1.000  H
