data_IQIJIC_clean
_audit_creation_date              2014-07-02
_audit_creation_method            'Materials Studio'
_symmetry_space_group_name_H-M    'P1'
_symmetry_Int_Tables_number       1
_symmetry_cell_setting            triclinic
loop_
_symmetry_equiv_pos_as_xyz
  x,y,z
_cell_length_a                    13.6440
_cell_length_b                    13.6440
_cell_length_c                    26.6090
_cell_angle_alpha                 99.2886
_cell_angle_beta                  99.2886
_cell_angle_gamma                 104.4640
loop_
_atom_site_label
_atom_site_type_symbol
_atom_site_fract_x
_atom_site_fract_y
_atom_site_fract_z
_atom_site_U_iso_or_equiv
_atom_site_adp_type
_atom_site_occupancy
Co1    Co    0.42232   0.46084   0.55695   0.01267  Uiso   1.00
Co2    Co    0.53916   0.57768   0.94305   0.01267  Uiso   1.00
Co3    Co    0.57768   0.53916   0.44305   0.01267  Uiso   1.00
Co4    Co    0.46084   0.42232   0.05695   0.01267  Uiso   1.00
Co5    Co    0.50000   0.00000   0.00000   0.01267  Uiso   1.00
Co6    Co    0.00000   0.50000   0.50000   0.01267  Uiso   1.00
H1     H     0.18880   0.28360   0.43730   0.01267  Uiso   1.00
H2     H     0.06000   0.17420   0.36980   0.01267  Uiso   1.00
H3     H     0.19680   0.30820   0.26780   0.01267  Uiso   1.00
H4     H     0.32160   0.42100   0.33570   0.01267  Uiso   1.00
H5     H     0.94650   0.08390   0.30790   0.01267  Uiso   1.00
H6     H     0.32210   0.60130   0.49700   0.01267  Uiso   1.00
H7     H     0.33210   0.77070   0.50000   0.01267  Uiso   1.00
H8     H     0.51070   0.98630   0.59380   0.01267  Uiso   1.00
H9     H     0.55070   0.84430   0.63010   0.01267  Uiso   1.00
H10    H     0.53010   0.67210   0.62450   0.01267  Uiso   1.00
H11    H     0.55230   0.32250   0.59800   0.01267  Uiso   1.00
H12    H     0.54800   0.15140   0.59150   0.01267  Uiso   1.00
H13    H     0.34500   0.93620   0.51460   0.01267  Uiso   1.00
H14    H     0.27150   0.07510   0.49910   0.01267  Uiso   1.00
H15    H     0.28420   0.24740   0.50710   0.01267  Uiso   1.00
H16    H     0.11390   0.35150   0.61080   0.01267  Uiso   1.00
H17    H     0.01350   0.30770   0.66840   0.01267  Uiso   1.00
H18    H     0.24720   0.47240   0.78540   0.01267  Uiso   1.00
H19    H     0.34960   0.50360   0.72790   0.01267  Uiso   1.00
H20    H     0.74640   0.27360   0.84700   0.01267  Uiso   1.00
H21    H     0.65960   0.20060   0.90680   0.01267  Uiso   1.00
H22    H     0.89190   0.08650   0.95240   0.01267  Uiso   1.00
H23    H     0.97860   0.15520   0.89310   0.01267  Uiso   1.00
H24    H     0.34780   0.79680   0.93050   0.01267  Uiso   1.00
H25    H     0.47560   0.05360   0.89080   0.01267  Uiso   1.00
H26    H     0.39840   0.98520   0.80560   0.01267  Uiso   1.00
H27    H     0.27640   0.72000   0.84500   0.01267  Uiso   1.00
H28    H     0.31470   0.82790   0.73530   0.01267  Uiso   1.00
H29    H     0.05280   0.23880   0.83630   0.01267  Uiso   1.00
H30    H     0.96410   0.14110   0.80410   0.01267  Uiso   1.00
H31    H     0.04980   0.20560   0.74580   0.01267  Uiso   1.00
H32    H     0.94410   0.23330   0.73670   0.01267  Uiso   1.00
H33    H     0.71640   0.81120   0.06270   0.01267  Uiso   1.00
H34    H     0.82580   0.94000   0.13020   0.01267  Uiso   1.00
H35    H     0.69180   0.80320   0.23220   0.01267  Uiso   1.00
H36    H     0.57900   0.67840   0.16430   0.01267  Uiso   1.00
H37    H     0.91610   0.05350   0.19210   0.01267  Uiso   1.00
H38    H     0.39870   0.67790   0.00300   0.01267  Uiso   1.00
H39    H     0.22930   0.66790  -0.00000   0.01267  Uiso   1.00
H40    H     0.01370   0.48930   0.90620   0.01267  Uiso   1.00
H41    H     0.15570   0.44930   0.86990   0.01267  Uiso   1.00
H42    H     0.32790   0.46990   0.87550   0.01267  Uiso   1.00
H43    H     0.67750   0.44770   0.90200   0.01267  Uiso   1.00
H44    H     0.84860   0.45200   0.90850   0.01267  Uiso   1.00
H45    H     0.06380   0.65500   0.98540   0.01267  Uiso   1.00
H46    H     0.92490   0.72850   0.00090   0.01267  Uiso   1.00
H47    H     0.75260   0.71580   0.99290   0.01267  Uiso   1.00
H48    H     0.64850   0.88610   0.88920   0.01267  Uiso   1.00
H49    H     0.69230   0.98650   0.83160   0.01267  Uiso   1.00
H50    H     0.52760   0.75280   0.71460   0.01267  Uiso   1.00
H51    H     0.49640   0.65040   0.77210   0.01267  Uiso   1.00
H52    H     0.72640   0.25360   0.65300   0.01267  Uiso   1.00
H53    H     0.79940   0.34040   0.59320   0.01267  Uiso   1.00
H54    H     0.91350   0.10810   0.54760   0.01267  Uiso   1.00
H55    H     0.84480   0.02140   0.60690   0.01267  Uiso   1.00
H56    H     0.20320   0.65220   0.56950   0.01267  Uiso   1.00
H57    H     0.94640   0.52440   0.60920   0.01267  Uiso   1.00
H58    H     0.01480   0.60160   0.69440   0.01267  Uiso   1.00
H59    H     0.28000   0.72360   0.65500   0.01267  Uiso   1.00
H60    H     0.17210   0.68530   0.76470   0.01267  Uiso   1.00
H61    H     0.76120   0.94720   0.66370   0.01267  Uiso   1.00
H62    H     0.85890   0.03590   0.69590   0.01267  Uiso   1.00
H63    H     0.79440   0.95020   0.75420   0.01267  Uiso   1.00
H64    H     0.76670   0.05590   0.76330   0.01267  Uiso   1.00
H65    H     0.81120   0.71640   0.56270   0.01267  Uiso   1.00
H66    H     0.94000   0.82580   0.63020   0.01267  Uiso   1.00
H67    H     0.80320   0.69180   0.73220   0.01267  Uiso   1.00
H68    H     0.67840   0.57900   0.66430   0.01267  Uiso   1.00
H69    H     0.05350   0.91610   0.69210   0.01267  Uiso   1.00
H70    H     0.67790   0.39870   0.50300   0.01267  Uiso   1.00
H71    H     0.66790   0.22930   0.50000   0.01267  Uiso   1.00
H72    H     0.48930   0.01370   0.40620   0.01267  Uiso   1.00
H73    H     0.44930   0.15570   0.36990   0.01267  Uiso   1.00
H74    H     0.46990   0.32790   0.37550   0.01267  Uiso   1.00
H75    H     0.44770   0.67750   0.40200   0.01267  Uiso   1.00
H76    H     0.45200   0.84860   0.40850   0.01267  Uiso   1.00
H77    H     0.65500   0.06380   0.48540   0.01267  Uiso   1.00
H78    H     0.72850   0.92490   0.50090   0.01267  Uiso   1.00
H79    H     0.71580   0.75260   0.49290   0.01267  Uiso   1.00
H80    H     0.88610   0.64850   0.38920   0.01267  Uiso   1.00
H81    H     0.98650   0.69230   0.33160   0.01267  Uiso   1.00
H82    H     0.75280   0.52760   0.21460   0.01267  Uiso   1.00
H83    H     0.65040   0.49640   0.27210   0.01267  Uiso   1.00
H84    H     0.25360   0.72640   0.15300   0.01267  Uiso   1.00
H85    H     0.34040   0.79940   0.09320   0.01267  Uiso   1.00
H86    H     0.10810   0.91350   0.04760   0.01267  Uiso   1.00
H87    H     0.02140   0.84480   0.10690   0.01267  Uiso   1.00
H88    H     0.65220   0.20320   0.06950   0.01267  Uiso   1.00
H89    H     0.52440   0.94640   0.10920   0.01267  Uiso   1.00
H90    H     0.60160   0.01480   0.19440   0.01267  Uiso   1.00
H91    H     0.72360   0.28000   0.15500   0.01267  Uiso   1.00
H92    H     0.68530   0.17210   0.26470   0.01267  Uiso   1.00
H93    H     0.94720   0.76120   0.16370   0.01267  Uiso   1.00
H94    H     0.03590   0.85890   0.19590   0.01267  Uiso   1.00
H95    H     0.95020   0.79440   0.25420   0.01267  Uiso   1.00
H96    H     0.05590   0.76670   0.26330   0.01267  Uiso   1.00
H97    H     0.28360   0.18880   0.93730   0.01267  Uiso   1.00
H98    H     0.17420   0.06000   0.86980   0.01267  Uiso   1.00
H99    H     0.30820   0.19680   0.76780   0.01267  Uiso   1.00
H100   H     0.42100   0.32160   0.83570   0.01267  Uiso   1.00
H101   H     0.08390   0.94650   0.80790   0.01267  Uiso   1.00
H102   H     0.60130   0.32210   0.99700   0.01267  Uiso   1.00
H103   H     0.77070   0.33210   0.00000   0.01267  Uiso   1.00
H104   H     0.98630   0.51070   0.09380   0.01267  Uiso   1.00
H105   H     0.84430   0.55070   0.13010   0.01267  Uiso   1.00
H106   H     0.67210   0.53010   0.12450   0.01267  Uiso   1.00
H107   H     0.32250   0.55230   0.09800   0.01267  Uiso   1.00
H108   H     0.15140   0.54800   0.09150   0.01267  Uiso   1.00
H109   H     0.93620   0.34500   0.01460   0.01267  Uiso   1.00
H110   H     0.07510   0.27150   0.99910   0.01267  Uiso   1.00
H111   H     0.24740   0.28420   0.00710   0.01267  Uiso   1.00
H112   H     0.35150   0.11390   0.11080   0.01267  Uiso   1.00
H113   H     0.30770   0.01350   0.16840   0.01267  Uiso   1.00
H114   H     0.47240   0.24720   0.28540   0.01267  Uiso   1.00
H115   H     0.50360   0.34960   0.22790   0.01267  Uiso   1.00
H116   H     0.27360   0.74640   0.34700   0.01267  Uiso   1.00
H117   H     0.20060   0.65960   0.40680   0.01267  Uiso   1.00
H118   H     0.08650   0.89190   0.45240   0.01267  Uiso   1.00
H119   H     0.15520   0.97860   0.39310   0.01267  Uiso   1.00
H120   H     0.79680   0.34780   0.43050   0.01267  Uiso   1.00
H121   H     0.05360   0.47560   0.39080   0.01267  Uiso   1.00
H122   H     0.98520   0.39840   0.30560   0.01267  Uiso   1.00
H123   H     0.72000   0.27640   0.34500   0.01267  Uiso   1.00
H124   H     0.82790   0.31470   0.23530   0.01267  Uiso   1.00
H125   H     0.23880   0.05280   0.33630   0.01267  Uiso   1.00
H126   H     0.14110   0.96410   0.30410   0.01267  Uiso   1.00
H127   H     0.20560   0.04980   0.24580   0.01267  Uiso   1.00
H128   H     0.23330   0.94410   0.23670   0.01267  Uiso   1.00
C1     C     0.33860   0.22840   0.52540   0.01267  Uiso   1.00
C2     C     0.33050   0.12390   0.52000   0.01267  Uiso   1.00
C3     C     0.49370   0.27210   0.57780   0.01267  Uiso   1.00
C4     C     0.49130   0.16830   0.57390   0.01267  Uiso   1.00
C5     C     0.40770   0.09150   0.54510   0.01267  Uiso   1.00
C6     C     0.35500   0.43180   0.43610   0.01267  Uiso   1.00
C7     C     0.26790   0.36330   0.39280   0.01267  Uiso   1.00
C8     C     0.19030   0.28950   0.40310   0.01267  Uiso   1.00
C9     C     0.11380   0.22320   0.36260   0.01267  Uiso   1.00
C10    C     0.11720   0.22960   0.31300   0.01267  Uiso   1.00
C11    C     0.19450   0.30330   0.30210   0.01267  Uiso   1.00
C12    C     0.26920   0.37020   0.34280   0.01267  Uiso   1.00
C13    C     0.96360   0.09520   0.27650   0.01267  Uiso   1.00
C14    C     0.36870   0.65090   0.52420   0.01267  Uiso   1.00
C15    C     0.37480   0.75280   0.52570   0.01267  Uiso   1.00
C16    C     0.44370   0.82970   0.56500   0.01267  Uiso   1.00
C17    C     0.45580   0.94100   0.56860   0.01267  Uiso   1.00
C18    C     0.50320   0.79660   0.60260   0.01267  Uiso   1.00
C19    C     0.49080   0.69280   0.59852   0.01267  Uiso   1.00
C20    C     0.39830   0.98170   0.54060   0.01267  Uiso   1.00
C21    C     0.31350   0.44950   0.62570   0.01267  Uiso   1.00
C22    C     0.24560   0.43120   0.66267   0.01267  Uiso   1.00
C23    C     0.14220   0.37340   0.64640   0.01267  Uiso   1.00
C24    C     0.08180   0.34800   0.68040   0.01267  Uiso   1.00
C25    C     0.12140   0.38200   0.73290   0.01267  Uiso   1.00
C26    C     0.22120   0.44440   0.75010   0.01267  Uiso   1.00
C27    C     0.28080   0.46480   0.71550   0.01267  Uiso   1.00
C28    C     0.87080   0.21760   0.86460   0.01267  Uiso   1.00
C29    C     0.77480   0.23480   0.86780   0.01267  Uiso   1.00
C30    C     0.72370   0.19110   0.90380   0.01267  Uiso   1.00
C31    C     0.76650   0.13410   0.93490   0.01267  Uiso   1.00
C32    C     0.86170   0.12290   0.93080   0.01267  Uiso   1.00
C33    C     0.91410   0.16410   0.89550   0.01267  Uiso   1.00
C34    C     0.70760   0.08000   0.97060   0.01267  Uiso   1.00
C35    C     0.35960   0.83520   0.90510   0.01267  Uiso   1.00
C36    C     0.43310   0.98570   0.88178   0.01267  Uiso   1.00
C37    C     0.38840   0.94440   0.83020   0.01267  Uiso   1.00
C38    C     0.32850   0.84290   0.81470   0.01267  Uiso   1.00
C39    C     0.31560   0.78900   0.85360   0.01267  Uiso   1.00
C40    C     0.28280   0.79660   0.75930   0.01267  Uiso   1.00
C41    C     0.98900   0.21600   0.81000   0.01267  Uiso   1.00
C42    C     0.00930   0.24670   0.76120   0.01267  Uiso   1.00
C43    C     0.77160   0.66140   0.97460   0.01267  Uiso   1.00
C44    C     0.87610   0.66950   0.98000   0.01267  Uiso   1.00
C45    C     0.72790   0.50630   0.92220   0.01267  Uiso   1.00
C46    C     0.83170   0.50870   0.92610   0.01267  Uiso   1.00
C47    C     0.90850   0.59230   0.95490   0.01267  Uiso   1.00
C48    C     0.56820   0.64500   0.06390   0.01267  Uiso   1.00
C49    C     0.63670   0.73210   0.10720   0.01267  Uiso   1.00
C50    C     0.71050   0.80970   0.09690   0.01267  Uiso   1.00
C51    C     0.77680   0.88620   0.13740   0.01267  Uiso   1.00
C52    C     0.77040   0.88280   0.18700   0.01267  Uiso   1.00
C53    C     0.69670   0.80550   0.19790   0.01267  Uiso   1.00
C54    C     0.62980   0.73080   0.15720   0.01267  Uiso   1.00
C55    C     0.90480   0.03640   0.22350   0.01267  Uiso   1.00
C56    C     0.34910   0.63130   0.97580   0.01267  Uiso   1.00
C57    C     0.24720   0.62520   0.97430   0.01267  Uiso   1.00
C58    C     0.17030   0.55630   0.93500   0.01267  Uiso   1.00
C59    C     0.05900   0.54420   0.93140   0.01267  Uiso   1.00
C60    C     0.20340   0.49680   0.89740   0.01267  Uiso   1.00
C61    C     0.30720   0.50920   0.90148   0.01267  Uiso   1.00
C62    C     0.01830   0.60170   0.95940   0.01267  Uiso   1.00
C63    C     0.55050   0.68650   0.87430   0.01267  Uiso   1.00
C64    C     0.56880   0.75440   0.83733   0.01267  Uiso   1.00
C65    C     0.62660   0.85780   0.85360   0.01267  Uiso   1.00
C66    C     0.65200   0.91820   0.81960   0.01267  Uiso   1.00
C67    C     0.61800   0.87860   0.76710   0.01267  Uiso   1.00
C68    C     0.55560   0.77880   0.74990   0.01267  Uiso   1.00
C69    C     0.53520   0.71920   0.78450   0.01267  Uiso   1.00
C70    C     0.78240   0.12920   0.63540   0.01267  Uiso   1.00
C71    C     0.76520   0.22520   0.63220   0.01267  Uiso   1.00
C72    C     0.80890   0.27630   0.59620   0.01267  Uiso   1.00
C73    C     0.86590   0.23350   0.56510   0.01267  Uiso   1.00
C74    C     0.87710   0.13830   0.56920   0.01267  Uiso   1.00
C75    C     0.83590   0.08590   0.60450   0.01267  Uiso   1.00
C76    C     0.92000   0.29240   0.52940   0.01267  Uiso   1.00
C77    C     0.16480   0.64040   0.59490   0.01267  Uiso   1.00
C78    C     0.01430   0.56690   0.61822   0.01267  Uiso   1.00
C79    C     0.05560   0.61160   0.66980   0.01267  Uiso   1.00
C80    C     0.15710   0.67150   0.68530   0.01267  Uiso   1.00
C81    C     0.21100   0.68440   0.64640   0.01267  Uiso   1.00
C82    C     0.20340   0.71720   0.74070   0.01267  Uiso   1.00
C83    C     0.78400   0.01100   0.69000   0.01267  Uiso   1.00
C84    C     0.75330   0.99070   0.73880   0.01267  Uiso   1.00
C85    C     0.66140   0.77160   0.47460   0.01267  Uiso   1.00
C86    C     0.66950   0.87610   0.48000   0.01267  Uiso   1.00
C87    C     0.50630   0.72790   0.42220   0.01267  Uiso   1.00
C88    C     0.50870   0.83170   0.42610   0.01267  Uiso   1.00
C89    C     0.59230   0.90850   0.45490   0.01267  Uiso   1.00
C90    C     0.64500   0.56820   0.56390   0.01267  Uiso   1.00
C91    C     0.73210   0.63670   0.60720   0.01267  Uiso   1.00
C92    C     0.80970   0.71050   0.59690   0.01267  Uiso   1.00
C93    C     0.88620   0.77680   0.63740   0.01267  Uiso   1.00
C94    C     0.88280   0.77040   0.68700   0.01267  Uiso   1.00
C95    C     0.80550   0.69670   0.69790   0.01267  Uiso   1.00
C96    C     0.73080   0.62980   0.65720   0.01267  Uiso   1.00
C97    C     0.03640   0.90480   0.72350   0.01267  Uiso   1.00
C98    C     0.63130   0.34910   0.47580   0.01267  Uiso   1.00
C99    C     0.62520   0.24720   0.47430   0.01267  Uiso   1.00
C100   C     0.55630   0.17030   0.43500   0.01267  Uiso   1.00
C101   C     0.54420   0.05900   0.43140   0.01267  Uiso   1.00
C102   C     0.49680   0.20340   0.39740   0.01267  Uiso   1.00
C103   C     0.50920   0.30720   0.40148   0.01267  Uiso   1.00
C104   C     0.60170   0.01830   0.45940   0.01267  Uiso   1.00
C105   C     0.68650   0.55050   0.37430   0.01267  Uiso   1.00
C106   C     0.75440   0.56880   0.33733   0.01267  Uiso   1.00
C107   C     0.85780   0.62660   0.35360   0.01267  Uiso   1.00
C108   C     0.91820   0.65200   0.31960   0.01267  Uiso   1.00
C109   C     0.87860   0.61800   0.26710   0.01267  Uiso   1.00
C110   C     0.77880   0.55560   0.24990   0.01267  Uiso   1.00
C111   C     0.71920   0.53520   0.28450   0.01267  Uiso   1.00
C112   C     0.12920   0.78240   0.13540   0.01267  Uiso   1.00
C113   C     0.22520   0.76520   0.13220   0.01267  Uiso   1.00
C114   C     0.27630   0.80890   0.09620   0.01267  Uiso   1.00
C115   C     0.23350   0.86590   0.06510   0.01267  Uiso   1.00
C116   C     0.13830   0.87710   0.06920   0.01267  Uiso   1.00
C117   C     0.08590   0.83590   0.10450   0.01267  Uiso   1.00
C118   C     0.29240   0.92000   0.02940   0.01267  Uiso   1.00
C119   C     0.64040   0.16480   0.09490   0.01267  Uiso   1.00
C120   C     0.56690   0.01430   0.11822   0.01267  Uiso   1.00
C121   C     0.61160   0.05560   0.16980   0.01267  Uiso   1.00
C122   C     0.67150   0.15710   0.18530   0.01267  Uiso   1.00
C123   C     0.68440   0.21100   0.14640   0.01267  Uiso   1.00
C124   C     0.71720   0.20340   0.24070   0.01267  Uiso   1.00
C125   C     0.01100   0.78400   0.19000   0.01267  Uiso   1.00
C126   C     0.99070   0.75330   0.23880   0.01267  Uiso   1.00
C127   C     0.22840   0.33860   0.02540   0.01267  Uiso   1.00
C128   C     0.12390   0.33050   0.02000   0.01267  Uiso   1.00
C129   C     0.27210   0.49370   0.07780   0.01267  Uiso   1.00
C130   C     0.16830   0.49130   0.07390   0.01267  Uiso   1.00
C131   C     0.09150   0.40770   0.04510   0.01267  Uiso   1.00
C132   C     0.43180   0.35500   0.93610   0.01267  Uiso   1.00
C133   C     0.36330   0.26790   0.89280   0.01267  Uiso   1.00
C134   C     0.28950   0.19030   0.90310   0.01267  Uiso   1.00
C135   C     0.22320   0.11380   0.86260   0.01267  Uiso   1.00
C136   C     0.22960   0.11720   0.81300   0.01267  Uiso   1.00
C137   C     0.30330   0.19450   0.80210   0.01267  Uiso   1.00
C138   C     0.37020   0.26920   0.84280   0.01267  Uiso   1.00
C139   C     0.09520   0.96360   0.77650   0.01267  Uiso   1.00
C140   C     0.65090   0.36870   0.02420   0.01267  Uiso   1.00
C141   C     0.75280   0.37480   0.02570   0.01267  Uiso   1.00
C142   C     0.82970   0.44370   0.06500   0.01267  Uiso   1.00
C143   C     0.94100   0.45580   0.06860   0.01267  Uiso   1.00
C144   C     0.79660   0.50320   0.10260   0.01267  Uiso   1.00
C145   C     0.69280   0.49080   0.09852   0.01267  Uiso   1.00
C146   C     0.98170   0.39830   0.04060   0.01267  Uiso   1.00
C147   C     0.44950   0.31350   0.12570   0.01267  Uiso   1.00
C148   C     0.43120   0.24560   0.16267   0.01267  Uiso   1.00
C149   C     0.37340   0.14220   0.14640   0.01267  Uiso   1.00
C150   C     0.34800   0.08180   0.18040   0.01267  Uiso   1.00
C151   C     0.38200   0.12140   0.23290   0.01267  Uiso   1.00
C152   C     0.44440   0.22120   0.25010   0.01267  Uiso   1.00
C153   C     0.46480   0.28080   0.21550   0.01267  Uiso   1.00
C154   C     0.21760   0.87080   0.36460   0.01267  Uiso   1.00
C155   C     0.23480   0.77480   0.36780   0.01267  Uiso   1.00
C156   C     0.19110   0.72370   0.40380   0.01267  Uiso   1.00
C157   C     0.13410   0.76650   0.43490   0.01267  Uiso   1.00
C158   C     0.12290   0.86170   0.43080   0.01267  Uiso   1.00
C159   C     0.16410   0.91410   0.39550   0.01267  Uiso   1.00
C160   C     0.08000   0.70760   0.47060   0.01267  Uiso   1.00
C161   C     0.83520   0.35960   0.40510   0.01267  Uiso   1.00
C162   C     0.98570   0.43310   0.38178   0.01267  Uiso   1.00
C163   C     0.94440   0.38840   0.33020   0.01267  Uiso   1.00
C164   C     0.84290   0.32850   0.31470   0.01267  Uiso   1.00
C165   C     0.78900   0.31560   0.35360   0.01267  Uiso   1.00
C166   C     0.79660   0.28280   0.25930   0.01267  Uiso   1.00
C167   C     0.21600   0.98900   0.31000   0.01267  Uiso   1.00
C168   C     0.24670   0.00930   0.26120   0.01267  Uiso   1.00
N1     N     0.41825   0.30275   0.55446   0.01267  Uiso   1.00
N2     N     0.42679   0.61981   0.56004   0.01267  Uiso   1.00
N3     N     0.41934   0.93406   0.91962   0.01267  Uiso   1.00
N4     N     0.69725   0.58175   0.94554   0.01267  Uiso   1.00
N5     N     0.38019   0.57321   0.93996   0.01267  Uiso   1.00
N6     N     0.06594   0.58066   0.58038   0.01267  Uiso   1.00
N7     N     0.58175   0.69725   0.44554   0.01267  Uiso   1.00
N8     N     0.57321   0.38019   0.43996   0.01267  Uiso   1.00
N9     N     0.58066   0.06594   0.08038   0.01267  Uiso   1.00
N10    N     0.30275   0.41825   0.05446   0.01267  Uiso   1.00
N11    N     0.61981   0.42679   0.06004   0.01267  Uiso   1.00
N12    N     0.93406   0.41934   0.41962   0.01267  Uiso   1.00
O1     O     0.35312   0.41504   0.48074   0.01267  Uiso   1.00
O2     O     0.42327   0.49965   0.42456   0.01267  Uiso   1.00
O3     O     0.04540   0.16720   0.27064   0.01267  Uiso   1.00
O4     O     0.27406   0.43088   0.57758   0.01267  Uiso   1.00
O5     O     0.40937   0.48203   0.64149   0.01267  Uiso   1.00
O6     O     0.91770   0.25830   0.82720   0.01267  Uiso   1.00
O7     O     0.06650   0.35870   0.77093   0.01267  Uiso   1.00
O8     O     0.74730   0.02510   0.99459   0.01267  Uiso   1.00
O9     O     0.61923   0.09357   0.97223   0.01267  Uiso   1.00
O10    O     0.58496   0.64688   0.01926   0.01267  Uiso   1.00
O11    O     0.50035   0.57673   0.07544   0.01267  Uiso   1.00
O12    O     0.83280   0.95460   0.22936   0.01267  Uiso   1.00
O13    O     0.56912   0.72594   0.92242   0.01267  Uiso   1.00
O14    O     0.51797   0.59063   0.85851   0.01267  Uiso   1.00
O15    O     0.74170   0.08230   0.67280   0.01267  Uiso   1.00
O16    O     0.64130   0.93350   0.72907   0.01267  Uiso   1.00
O17    O     0.97490   0.25270   0.50541   0.01267  Uiso   1.00
O18    O     0.90643   0.38077   0.52777   0.01267  Uiso   1.00
O19    O     0.64688   0.58496   0.51926   0.01267  Uiso   1.00
O20    O     0.57673   0.50035   0.57544   0.01267  Uiso   1.00
O21    O     0.95460   0.83280   0.72936   0.01267  Uiso   1.00
O22    O     0.72594   0.56912   0.42242   0.01267  Uiso   1.00
O23    O     0.59063   0.51797   0.35851   0.01267  Uiso   1.00
O24    O     0.08230   0.74170   0.17280   0.01267  Uiso   1.00
O25    O     0.93350   0.64130   0.22907   0.01267  Uiso   1.00
O26    O     0.25270   0.97490   0.00541   0.01267  Uiso   1.00
O27    O     0.38077   0.90643   0.02777   0.01267  Uiso   1.00
O28    O     0.41504   0.35312   0.98074   0.01267  Uiso   1.00
O29    O     0.49965   0.42327   0.92456   0.01267  Uiso   1.00
O30    O     0.16720   0.04540   0.77064   0.01267  Uiso   1.00
O31    O     0.43088   0.27406   0.07758   0.01267  Uiso   1.00
O32    O     0.48203   0.40937   0.14149   0.01267  Uiso   1.00
O33    O     0.25830   0.91770   0.32720   0.01267  Uiso   1.00
O34    O     0.35870   0.06650   0.27093   0.01267  Uiso   1.00
O35    O     0.02510   0.74730   0.49459   0.01267  Uiso   1.00
O36    O     0.09357   0.61923   0.47223   0.01267  Uiso   1.00
