data_image0
_cell_length_a       11.2867
_cell_length_b       13.8357
_cell_length_c       14.8608
_cell_angle_alpha    85.209
_cell_angle_beta     69.742
_cell_angle_gamma    73.909

_symmetry_space_group_name_H-M    "P 1"
_symmetry_int_tables_number       1

loop_
  _symmetry_equiv_pos_as_xyz
  'x, y, z'

loop_
  _atom_site_label
  _atom_site_occupancy
  _atom_site_fract_x
  _atom_site_fract_y
  _atom_site_fract_z
  _atom_site_thermal_displace_type
  _atom_site_B_iso_or_equiv
  _atom_site_type_symbol
  C1       1.0000 0.47900  0.33530  0.15015  Biso   1.000  C
  C2       1.0000 0.53510  0.27370  0.22208  Biso   1.000  C
  C3       1.0000 0.47430  0.20440  0.27940  Biso   1.000  C
  H1       1.0000 0.39660  0.19760  0.27550  Biso   1.000  H
  C4       1.0000 0.52990  0.14540  0.34240  Biso   1.000  C
  H2       1.0000 0.48860  0.09980  0.38120  Biso   1.000  H
  C5       1.0000 0.64640  0.15430  0.34740  Biso   1.000  C
  C6       1.0000 0.70630  0.22410  0.29190  Biso   1.000  C
  H3       1.0000 0.78400  0.23080  0.29610  Biso   1.000  H
  C7       1.0000 0.65000  0.28430  0.22980  Biso   1.000  C
  H4       1.0000 0.68950  0.33200  0.19320  Biso   1.000  H
  C8       1.0000 0.49680  0.10500  0.81511  Biso   1.000  C
  C9       1.0000 0.54820  0.10130  0.70819  Biso   1.000  C
  C10      1.0000 0.49250  0.17370  0.65340  Biso   1.000  C
  H5       1.0000 0.41950  0.22540  0.68390  Biso   1.000  H
  C11      1.0000 0.54380  0.17010  0.55420  Biso   1.000  C
  H6       1.0000 0.50500  0.21910  0.51870  Biso   1.000  H
  C12      1.0000 0.65420  0.09260  0.50680  Biso   1.000  C
  C13      1.0000 0.70940  0.01910  0.56210  Biso   1.000  C
  H7       1.0000 0.78170  0.96670  0.53200  Biso   1.000  H
  C14      1.0000 0.65710  0.02410  0.66070  Biso   1.000  C
  H8       1.0000 0.69530  0.97500  0.69640  Biso   1.000  H
  C15      1.0000 0.23170  0.59170  0.15640  Biso   1.000  C
  H9       1.0000 0.22230  0.52710  0.15530  Biso   1.000  H
  C16      1.0000 0.12540  0.66490  0.21190  Biso   1.000  C
  H10      1.0000 0.04690  0.64960  0.24630  Biso   1.000  H
  C17      1.0000 0.13820  0.76160  0.21550  Biso   1.000  C
  C18      1.0000 0.25960  0.77790  0.16560  Biso   1.000  C
  H11      1.0000 0.27400  0.84040  0.16880  Biso   1.000  H
  C19      1.0000 0.35890  0.70110  0.11100  Biso   1.000  C
  H12      1.0000 0.43890  0.71430  0.07680  Biso   1.000  H
  C20      1.0000 0.02610  0.84500  0.26890  Biso   1.000  C
  C21      1.0000 0.89970  0.85030  0.27330  Biso   1.000  C
  H13      1.0000 0.88430  0.79930  0.24560  Biso   1.000  H
  C22      1.0000 0.79580  0.93130  0.31880  Biso   1.000  C
  H14      1.0000 0.71130  0.93420  0.32160  Biso   1.000  H
  C23      1.0000 0.81820  0.00720  0.35990  Biso   1.000  C
  C24      1.0000 0.94340  0.00270  0.35730  Biso   1.000  C
  H15      1.0000 0.95830  0.05360  0.38570  Biso   1.000  H
  C25      1.0000 0.04660  0.92170  0.31200  Biso   1.000  C
  H16      1.0000 0.13070  0.91850  0.31040  Biso   1.000  H
  C26      1.0000 0.20900  0.02300  0.07780  Biso   1.000  C
  H17      1.0000 0.21900  0.04480  0.13160  Biso   1.000  H
  C27      1.0000 0.08510  0.02850  0.07970  Biso   1.000  C
  H18      1.0000 0.01340  0.05380  0.13390  Biso   1.000  H
  C28      1.0000 0.06640  0.99640  0.00100  Biso   1.000  C
  C29      1.0000 0.17820  0.95830  0.92340  Biso   1.000  C
  H19      1.0000 0.17140  0.93530  0.86890  Biso   1.000  H
  C30      1.0000 0.29910  0.95480  0.92740  Biso   1.000  C
  H20      1.0000 0.37280  0.92810  0.87490  Biso   1.000  H
  N1       1.0000 0.71010  0.08977  0.40751  Biso   1.000  N
  N2       1.0000 0.34710  0.60890  0.10415  Biso   1.000  N
  N3       1.0000 0.31610  0.98766  0.00245  Biso   1.000  N
  O1       1.0000 0.38740  0.31170  0.13453  Biso   1.000  O
  O2       1.0000 0.52880  0.40474  0.11071  Biso   1.000  O
  O3       1.0000 0.40470  0.17878  0.85768  Biso   1.000  O
  O4       1.0000 0.55050  0.03242  0.85725  Biso   1.000  O
  C31      1.0000 0.52100  0.66470  0.84985  Biso   1.000  C
  C32      1.0000 0.46490  0.72630  0.77792  Biso   1.000  C
  C33      1.0000 0.52570  0.79560  0.72060  Biso   1.000  C
  H21      1.0000 0.60340  0.80240  0.72450  Biso   1.000  H
  C34      1.0000 0.47010  0.85460  0.65760  Biso   1.000  C
  H22      1.0000 0.51140  0.90020  0.61880  Biso   1.000  H
  C35      1.0000 0.35360  0.84570  0.65260  Biso   1.000  C
  C36      1.0000 0.29370  0.77590  0.70810  Biso   1.000  C
  H23      1.0000 0.21600  0.76920  0.70390  Biso   1.000  H
  C37      1.0000 0.35000  0.71570  0.77020  Biso   1.000  C
  H24      1.0000 0.31050  0.66800  0.80680  Biso   1.000  H
  C38      1.0000 0.50320  0.89500  0.18489  Biso   1.000  C
  C39      1.0000 0.45180  0.89870  0.29181  Biso   1.000  C
  C40      1.0000 0.50750  0.82630  0.34660  Biso   1.000  C
  H25      1.0000 0.58050  0.77460  0.31610  Biso   1.000  H
  C41      1.0000 0.45620  0.82990  0.44580  Biso   1.000  C
  H26      1.0000 0.49500  0.78090  0.48130  Biso   1.000  H
  C42      1.0000 0.34580  0.90740  0.49320  Biso   1.000  C
  C43      1.0000 0.29060  0.98090  0.43790  Biso   1.000  C
  H27      1.0000 0.21830  0.03330  0.46800  Biso   1.000  H
  C44      1.0000 0.34290  0.97590  0.33930  Biso   1.000  C
  H28      1.0000 0.30470  0.02500  0.30360  Biso   1.000  H
  C45      1.0000 0.76830  0.40830  0.84360  Biso   1.000  C
  H29      1.0000 0.77770  0.47290  0.84470  Biso   1.000  H
  C46      1.0000 0.87460  0.33510  0.78810  Biso   1.000  C
  H30      1.0000 0.95310  0.35040  0.75370  Biso   1.000  H
  C47      1.0000 0.86180  0.23840  0.78450  Biso   1.000  C
  C48      1.0000 0.74040  0.22210  0.83440  Biso   1.000  C
  H31      1.0000 0.72600  0.15960  0.83120  Biso   1.000  H
  C49      1.0000 0.64110  0.29890  0.88900  Biso   1.000  C
  H32      1.0000 0.56110  0.28570  0.92320  Biso   1.000  H
  C50      1.0000 0.97390  0.15500  0.73110  Biso   1.000  C
  C51      1.0000 0.10030  0.14970  0.72670  Biso   1.000  C
  H33      1.0000 0.11570  0.20070  0.75440  Biso   1.000  H
  C52      1.0000 0.20420  0.06870  0.68120  Biso   1.000  C
  H34      1.0000 0.28870  0.06580  0.67840  Biso   1.000  H
  C53      1.0000 0.18180  0.99280  0.64010  Biso   1.000  C
  C54      1.0000 0.05660  0.99730  0.64270  Biso   1.000  C
  H35      1.0000 0.04170  0.94640  0.61430  Biso   1.000  H
  C55      1.0000 0.95340  0.07830  0.68800  Biso   1.000  C
  H36      1.0000 0.86930  0.08150  0.68960  Biso   1.000  H
  C56      1.0000 0.79100  0.97700  0.92220  Biso   1.000  C
  H37      1.0000 0.78100  0.95520  0.86840  Biso   1.000  H
  C57      1.0000 0.91490  0.97150  0.92030  Biso   1.000  C
  H38      1.0000 0.98660  0.94620  0.86610  Biso   1.000  H
  C58      1.0000 0.93360  0.00360  0.99900  Biso   1.000  C
  C59      1.0000 0.82180  0.04170  0.07660  Biso   1.000  C
  H39      1.0000 0.82860  0.06470  0.13110  Biso   1.000  H
  C60      1.0000 0.70090  0.04520  0.07260  Biso   1.000  C
  H40      1.0000 0.62720  0.07190  0.12510  Biso   1.000  H
  N4       1.0000 0.28990  0.91023  0.59249  Biso   1.000  N
  N5       1.0000 0.65290  0.39110  0.89585  Biso   1.000  N
  N6       1.0000 0.68390  0.01234  0.99755  Biso   1.000  N
  O5       1.0000 0.61260  0.68830  0.86547  Biso   1.000  O
  O6       1.0000 0.47120  0.59526  0.88929  Biso   1.000  O
  O7       1.0000 0.59530  0.82122  0.14232  Biso   1.000  O
  O8       1.0000 0.44950  0.96758  0.14275  Biso   1.000  O
  Co1      1.0000 0.50000  0.00000  0.00000  Biso   1.000  Co
  Co2      1.0000 0.50000  0.50000  0.00000  Biso   1.000  Co
