data_image0
_cell_length_a       28.52
_cell_length_b       9.9297
_cell_length_c       30.044
_cell_angle_alpha    90
_cell_angle_beta     116.466
_cell_angle_gamma    90

_symmetry_space_group_name_H-M    "P 1"
_symmetry_int_tables_number       1

loop_
  _symmetry_equiv_pos_as_xyz
  'x, y, z'

loop_
  _atom_site_label
  _atom_site_occupancy
  _atom_site_fract_x
  _atom_site_fract_y
  _atom_site_fract_z
  _atom_site_thermal_displace_type
  _atom_site_B_iso_or_equiv
  _atom_site_type_symbol
  C1       1.0000 0.28334  0.46280  0.40617  Biso   1.000  C
  C2       1.0000 0.25889  0.48190  0.35141  Biso   1.000  C
  C3       1.0000 0.28932  0.51030  0.32739  Biso   1.000  C
  H1       1.0000 0.32560  0.51250  0.34560  Biso   1.000  H
  C4       1.0000 0.26711  0.53530  0.27714  Biso   1.000  C
  H2       1.0000 0.28840  0.55450  0.26180  Biso   1.000  H
  C5       1.0000 0.21359  0.53210  0.24944  Biso   1.000  C
  C6       1.0000 0.18297  0.50010  0.27299  Biso   1.000  C
  H3       1.0000 0.14680  0.49520  0.25470  Biso   1.000  H
  C7       1.0000 0.20576  0.47580  0.32310  Biso   1.000  C
  H4       1.0000 0.18460  0.45460  0.33830  Biso   1.000  H
  C8       1.0000 0.28665  0.43630  0.07315  Biso   1.000  C
  C9       1.0000 0.26388  0.47110  0.10787  Biso   1.000  C
  C10      1.0000 0.24531  0.59780  0.10900  Biso   1.000  C
  H5       1.0000 0.24850  0.66480  0.08890  Biso   1.000  H
  C11      1.0000 0.22222  0.62760  0.13892  Biso   1.000  C
  H6       1.0000 0.20990  0.71430  0.13890  Biso   1.000  H
  C12      1.0000 0.21702  0.53080  0.16900  Biso   1.000  C
  C13      1.0000 0.23678  0.40310  0.16928  Biso   1.000  C
  H7       1.0000 0.23450  0.33710  0.19020  Biso   1.000  H
  C14      1.0000 0.25956  0.37390  0.13913  Biso   1.000  C
  H8       1.0000 0.27240  0.28760  0.13940  Biso   1.000  H
  C15      1.0000 0.92141  0.95060  0.09156  Biso   1.000  C
  H9       1.0000 0.90360  0.98610  0.10840  Biso   1.000  H
  C16      1.0000 0.96854  0.88940  0.11945  Biso   1.000  C
  H10      1.0000 0.98100  0.88200  0.15370  Biso   1.000  H
  C17      1.0000 0.99707  0.83950  0.09704  Biso   1.000  C
  C18      1.0000 0.97512  0.85440  0.04650  Biso   1.000  C
  H11      1.0000 0.99250  0.82210  0.02890  Biso   1.000  H
  C19      1.0000 0.92720  0.91740  0.02155  Biso   1.000  C
  H12      1.0000 0.91380  0.92790  0.98730  Biso   1.000  H
  C20      1.0000 0.04752  0.76860  0.12490  Biso   1.000  C
  C21      1.0000 0.06122  0.66500  0.10218  Biso   1.000  C
  H13      1.0000 0.03860  0.64180  0.06960  Biso   1.000  H
  C22      1.0000 0.10787  0.59510  0.12690  Biso   1.000  C
  H14      1.0000 0.11590  0.52420  0.11120  Biso   1.000  H
  C23      1.0000 0.14249  0.63100  0.17495  Biso   1.000  C
  C24      1.0000 0.12938  0.73350  0.19777  Biso   1.000  C
  H15      1.0000 0.15210  0.75810  0.23020  Biso   1.000  H
  C25      1.0000 0.08236  0.80010  0.17252  Biso   1.000  C
  H16      1.0000 0.07410  0.86940  0.18860  Biso   1.000  H
  C26      1.0000 0.33487  0.17820  0.53840  Biso   1.000  C
  H17      1.0000 0.31360  0.19460  0.55400  Biso   1.000  H
  C27      1.0000 0.37631  0.20120  0.49519  Biso   1.000  C
  H18      1.0000 0.38950  0.23830  0.47460  Biso   1.000  H
  C28      1.0000 0.38649  0.07660  0.51421  Biso   1.000  C
  H19      1.0000 0.40760  0.01260  0.50940  Biso   1.000  H
  C29      1.0000 0.36255  0.94960  0.57323  Biso   1.000  C
  H20      1.0000 0.36670  0.86870  0.55720  Biso   1.000  H
  H21      1.0000 0.32880  0.94310  0.57370  Biso   1.000  H
  C30      1.0000 0.40295  0.94720  0.62487  Biso   1.000  C
  C31      1.0000 0.40070  0.86830  0.65807  Biso   1.000  C
  H22      1.0000 0.37230  0.81030  0.64860  Biso   1.000  H
  C32      1.0000 0.43870  0.86620  0.70712  Biso   1.000  C
  H23      1.0000 0.43440  0.80760  0.72920  Biso   1.000  H
  C33      1.0000 0.48024  0.94270  0.72364  Biso   1.000  C
  C34      1.0000 0.49170  0.98820  0.68660  Biso   1.000  C
  H24      1.0000 0.52570  0.01430  0.69410  Biso   1.000  H
  C35      1.0000 0.45340  0.99550  0.63860  Biso   1.000  C
  H25      1.0000 0.46130  0.03380  0.61450  Biso   1.000  H
  Co1      1.0000 0.32232  0.46816  0.49798  Biso   1.000  Co
  N1       1.0000 0.34360  0.26610  0.51052  Biso   1.000  N
  N2       1.0000 0.35999  0.06200  0.54189  Biso   1.000  N
  N3       1.0000 0.89940  0.96310  0.04316  Biso   1.000  N
  N4       1.0000 0.19058  0.56180  0.19829  Biso   1.000  N
  O1       1.0000 0.33198  0.46840  0.43055  Biso   1.000  O
  O2       1.0000 0.25431  0.44500  0.42734  Biso   1.000  O
  O3       1.0000 0.29513  0.31500  0.06827  Biso   1.000  O
  O4       1.0000 0.29621  0.53350  0.05103  Biso   1.000  O
  C36      1.0000 0.46620  0.07090  0.69450  Biso   1.000  C
  H26      1.0000 0.48500  0.14930  0.70810  Biso   1.000  H
  C37      1.0000 0.42510  0.07160  0.64730  Biso   1.000  C
  H27      1.0000 0.41220  0.15230  0.63050  Biso   1.000  H
  C38      1.0000 0.78334  0.96280  0.40617  Biso   1.000  C
  C39      1.0000 0.75889  0.98190  0.35141  Biso   1.000  C
  C40      1.0000 0.78932  0.01030  0.32739  Biso   1.000  C
  H28      1.0000 0.82560  0.01250  0.34560  Biso   1.000  H
  C41      1.0000 0.76711  0.03530  0.27714  Biso   1.000  C
  H29      1.0000 0.78840  0.05450  0.26180  Biso   1.000  H
  C42      1.0000 0.71359  0.03210  0.24944  Biso   1.000  C
  C43      1.0000 0.68297  0.00010  0.27299  Biso   1.000  C
  H30      1.0000 0.64680  0.99520  0.25470  Biso   1.000  H
  C44      1.0000 0.70576  0.97580  0.32310  Biso   1.000  C
  H31      1.0000 0.68460  0.95460  0.33830  Biso   1.000  H
  C45      1.0000 0.78665  0.93630  0.07315  Biso   1.000  C
  C46      1.0000 0.76388  0.97110  0.10787  Biso   1.000  C
  C47      1.0000 0.74531  0.09780  0.10900  Biso   1.000  C
  H32      1.0000 0.74850  0.16480  0.08890  Biso   1.000  H
  C48      1.0000 0.72222  0.12760  0.13892  Biso   1.000  C
  H33      1.0000 0.70990  0.21430  0.13890  Biso   1.000  H
  C49      1.0000 0.71702  0.03080  0.16900  Biso   1.000  C
  C50      1.0000 0.73678  0.90310  0.16928  Biso   1.000  C
  H34      1.0000 0.73450  0.83710  0.19020  Biso   1.000  H
  C51      1.0000 0.75956  0.87390  0.13913  Biso   1.000  C
  H35      1.0000 0.77240  0.78760  0.13940  Biso   1.000  H
  C52      1.0000 0.42141  0.45060  0.09156  Biso   1.000  C
  H36      1.0000 0.40360  0.48610  0.10840  Biso   1.000  H
  C53      1.0000 0.46854  0.38940  0.11945  Biso   1.000  C
  H37      1.0000 0.48100  0.38200  0.15370  Biso   1.000  H
  C54      1.0000 0.49707  0.33950  0.09704  Biso   1.000  C
  C55      1.0000 0.47512  0.35440  0.04650  Biso   1.000  C
  H38      1.0000 0.49250  0.32210  0.02890  Biso   1.000  H
  C56      1.0000 0.42720  0.41740  0.02155  Biso   1.000  C
  H39      1.0000 0.41380  0.42790  0.98730  Biso   1.000  H
  C57      1.0000 0.54752  0.26860  0.12490  Biso   1.000  C
  C58      1.0000 0.56122  0.16500  0.10218  Biso   1.000  C
  H40      1.0000 0.53860  0.14180  0.06960  Biso   1.000  H
  C59      1.0000 0.60787  0.09510  0.12690  Biso   1.000  C
  H41      1.0000 0.61590  0.02420  0.11120  Biso   1.000  H
  C60      1.0000 0.64249  0.13100  0.17495  Biso   1.000  C
  C61      1.0000 0.62938  0.23350  0.19777  Biso   1.000  C
  H42      1.0000 0.65210  0.25810  0.23020  Biso   1.000  H
  C62      1.0000 0.58236  0.30010  0.17252  Biso   1.000  C
  H43      1.0000 0.57410  0.36940  0.18860  Biso   1.000  H
  C63      1.0000 0.83487  0.67820  0.53840  Biso   1.000  C
  H44      1.0000 0.81360  0.69460  0.55400  Biso   1.000  H
  C64      1.0000 0.87631  0.70120  0.49519  Biso   1.000  C
  H45      1.0000 0.88950  0.73830  0.47460  Biso   1.000  H
  C65      1.0000 0.88649  0.57660  0.51421  Biso   1.000  C
  H46      1.0000 0.90760  0.51260  0.50940  Biso   1.000  H
  C66      1.0000 0.86255  0.44960  0.57323  Biso   1.000  C
  H47      1.0000 0.86670  0.36870  0.55720  Biso   1.000  H
  H48      1.0000 0.82880  0.44310  0.57370  Biso   1.000  H
  C67      1.0000 0.90295  0.44720  0.62487  Biso   1.000  C
  C68      1.0000 0.90070  0.36830  0.65807  Biso   1.000  C
  H49      1.0000 0.87230  0.31030  0.64860  Biso   1.000  H
  C69      1.0000 0.93870  0.36620  0.70712  Biso   1.000  C
  H50      1.0000 0.93440  0.30760  0.72920  Biso   1.000  H
  C70      1.0000 0.98024  0.44270  0.72364  Biso   1.000  C
  C71      1.0000 0.99170  0.48820  0.68660  Biso   1.000  C
  H51      1.0000 0.02570  0.51430  0.69410  Biso   1.000  H
  C72      1.0000 0.95340  0.49550  0.63860  Biso   1.000  C
  H52      1.0000 0.96130  0.53380  0.61450  Biso   1.000  H
  Co2      1.0000 0.82232  0.96816  0.49798  Biso   1.000  Co
  N5       1.0000 0.84360  0.76610  0.51052  Biso   1.000  N
  N6       1.0000 0.85999  0.56200  0.54189  Biso   1.000  N
  N7       1.0000 0.39940  0.46310  0.04316  Biso   1.000  N
  N8       1.0000 0.69058  0.06180  0.19829  Biso   1.000  N
  O5       1.0000 0.83198  0.96840  0.43055  Biso   1.000  O
  O6       1.0000 0.75431  0.94500  0.42734  Biso   1.000  O
  O7       1.0000 0.79513  0.81500  0.06827  Biso   1.000  O
  O8       1.0000 0.79621  0.03350  0.05103  Biso   1.000  O
  C73      1.0000 0.96620  0.57090  0.69450  Biso   1.000  C
  H53      1.0000 0.98500  0.64930  0.70810  Biso   1.000  H
  C74      1.0000 0.92510  0.57160  0.64730  Biso   1.000  C
  H54      1.0000 0.91220  0.65230  0.63050  Biso   1.000  H
  C75      1.0000 0.71666  0.46280  0.09383  Biso   1.000  C
  C76      1.0000 0.74111  0.48190  0.14859  Biso   1.000  C
  C77      1.0000 0.71068  0.51030  0.17261  Biso   1.000  C
  H55      1.0000 0.67440  0.51250  0.15440  Biso   1.000  H
  C78      1.0000 0.73289  0.53530  0.22286  Biso   1.000  C
  H56      1.0000 0.71160  0.55450  0.23820  Biso   1.000  H
  C79      1.0000 0.78641  0.53210  0.25056  Biso   1.000  C
  C80      1.0000 0.81703  0.50010  0.22701  Biso   1.000  C
  H57      1.0000 0.85320  0.49520  0.24530  Biso   1.000  H
  C81      1.0000 0.79424  0.47580  0.17690  Biso   1.000  C
  H58      1.0000 0.81540  0.45460  0.16170  Biso   1.000  H
  C82      1.0000 0.71335  0.43630  0.42685  Biso   1.000  C
  C83      1.0000 0.73612  0.47110  0.39213  Biso   1.000  C
  C84      1.0000 0.75469  0.59780  0.39100  Biso   1.000  C
  H59      1.0000 0.75150  0.66480  0.41110  Biso   1.000  H
  C85      1.0000 0.77778  0.62760  0.36108  Biso   1.000  C
  H60      1.0000 0.79010  0.71430  0.36110  Biso   1.000  H
  C86      1.0000 0.78298  0.53080  0.33100  Biso   1.000  C
  C87      1.0000 0.76322  0.40310  0.33072  Biso   1.000  C
  H61      1.0000 0.76550  0.33710  0.30980  Biso   1.000  H
  C88      1.0000 0.74044  0.37390  0.36087  Biso   1.000  C
  H62      1.0000 0.72760  0.28760  0.36060  Biso   1.000  H
  C89      1.0000 0.07859  0.95060  0.40844  Biso   1.000  C
  H63      1.0000 0.09640  0.98610  0.39160  Biso   1.000  H
  C90      1.0000 0.03146  0.88940  0.38055  Biso   1.000  C
  H64      1.0000 0.01900  0.88200  0.34630  Biso   1.000  H
  C91      1.0000 0.00293  0.83950  0.40296  Biso   1.000  C
  C92      1.0000 0.02488  0.85440  0.45350  Biso   1.000  C
  H65      1.0000 0.00750  0.82210  0.47110  Biso   1.000  H
  C93      1.0000 0.07280  0.91740  0.47845  Biso   1.000  C
  H66      1.0000 0.08620  0.92790  0.51270  Biso   1.000  H
  C94      1.0000 0.95248  0.76860  0.37510  Biso   1.000  C
  C95      1.0000 0.93878  0.66500  0.39782  Biso   1.000  C
  H67      1.0000 0.96140  0.64180  0.43040  Biso   1.000  H
  C96      1.0000 0.89213  0.59510  0.37310  Biso   1.000  C
  H68      1.0000 0.88410  0.52420  0.38880  Biso   1.000  H
  C97      1.0000 0.85751  0.63100  0.32505  Biso   1.000  C
  C98      1.0000 0.87062  0.73350  0.30223  Biso   1.000  C
  H69      1.0000 0.84790  0.75810  0.26980  Biso   1.000  H
  C99      1.0000 0.91764  0.80010  0.32748  Biso   1.000  C
  H70      1.0000 0.92590  0.86940  0.31140  Biso   1.000  H
  C100     1.0000 0.66513  0.17820  0.96160  Biso   1.000  C
  H71      1.0000 0.68640  0.19460  0.94600  Biso   1.000  H
  C101     1.0000 0.62369  0.20120  0.00481  Biso   1.000  C
  H72      1.0000 0.61050  0.23830  0.02540  Biso   1.000  H
  C102     1.0000 0.61351  0.07660  0.98579  Biso   1.000  C
  H73      1.0000 0.59240  0.01260  0.99060  Biso   1.000  H
  C103     1.0000 0.63745  0.94960  0.92677  Biso   1.000  C
  H74      1.0000 0.63330  0.86870  0.94280  Biso   1.000  H
  H75      1.0000 0.67120  0.94310  0.92630  Biso   1.000  H
  C104     1.0000 0.59705  0.94720  0.87513  Biso   1.000  C
  C105     1.0000 0.59930  0.86830  0.84193  Biso   1.000  C
  H76      1.0000 0.62770  0.81030  0.85140  Biso   1.000  H
  C106     1.0000 0.56130  0.86620  0.79288  Biso   1.000  C
  H77      1.0000 0.56560  0.80760  0.77080  Biso   1.000  H
  C107     1.0000 0.51976  0.94270  0.77636  Biso   1.000  C
  C108     1.0000 0.50830  0.98820  0.81340  Biso   1.000  C
  H78      1.0000 0.47430  0.01430  0.80590  Biso   1.000  H
  C109     1.0000 0.54660  0.99550  0.86140  Biso   1.000  C
  H79      1.0000 0.53870  0.03380  0.88550  Biso   1.000  H
  Co3      1.0000 0.67768  0.46816  0.00202  Biso   1.000  Co
  N9       1.0000 0.65640  0.26610  0.98948  Biso   1.000  N
  N10      1.0000 0.64001  0.06200  0.95811  Biso   1.000  N
  N11      1.0000 0.10060  0.96310  0.45684  Biso   1.000  N
  N12      1.0000 0.80942  0.56180  0.30171  Biso   1.000  N
  O9       1.0000 0.66802  0.46840  0.06945  Biso   1.000  O
  O10      1.0000 0.74569  0.44500  0.07266  Biso   1.000  O
  O11      1.0000 0.70487  0.31500  0.43173  Biso   1.000  O
  O12      1.0000 0.70379  0.53350  0.44897  Biso   1.000  O
  C110     1.0000 0.53380  0.07090  0.80550  Biso   1.000  C
  H80      1.0000 0.51500  0.14930  0.79190  Biso   1.000  H
  C111     1.0000 0.57490  0.07160  0.85270  Biso   1.000  C
  H81      1.0000 0.58780  0.15230  0.86950  Biso   1.000  H
  C112     1.0000 0.21666  0.96280  0.09383  Biso   1.000  C
  C113     1.0000 0.24111  0.98190  0.14859  Biso   1.000  C
  C114     1.0000 0.21068  0.01030  0.17261  Biso   1.000  C
  H82      1.0000 0.17440  0.01250  0.15440  Biso   1.000  H
  C115     1.0000 0.23289  0.03530  0.22286  Biso   1.000  C
  H83      1.0000 0.21160  0.05450  0.23820  Biso   1.000  H
  C116     1.0000 0.28641  0.03210  0.25056  Biso   1.000  C
  C117     1.0000 0.31703  0.00010  0.22701  Biso   1.000  C
  H84      1.0000 0.35320  0.99520  0.24530  Biso   1.000  H
  C118     1.0000 0.29424  0.97580  0.17690  Biso   1.000  C
  H85      1.0000 0.31540  0.95460  0.16170  Biso   1.000  H
  C119     1.0000 0.21335  0.93630  0.42685  Biso   1.000  C
  C120     1.0000 0.23612  0.97110  0.39213  Biso   1.000  C
  C121     1.0000 0.25469  0.09780  0.39100  Biso   1.000  C
  H86      1.0000 0.25150  0.16480  0.41110  Biso   1.000  H
  C122     1.0000 0.27778  0.12760  0.36108  Biso   1.000  C
  H87      1.0000 0.29010  0.21430  0.36110  Biso   1.000  H
  C123     1.0000 0.28298  0.03080  0.33100  Biso   1.000  C
  C124     1.0000 0.26322  0.90310  0.33072  Biso   1.000  C
  H88      1.0000 0.26550  0.83710  0.30980  Biso   1.000  H
  C125     1.0000 0.24044  0.87390  0.36087  Biso   1.000  C
  H89      1.0000 0.22760  0.78760  0.36060  Biso   1.000  H
  C126     1.0000 0.57859  0.45060  0.40844  Biso   1.000  C
  H90      1.0000 0.59640  0.48610  0.39160  Biso   1.000  H
  C127     1.0000 0.53146  0.38940  0.38055  Biso   1.000  C
  H91      1.0000 0.51900  0.38200  0.34630  Biso   1.000  H
  C128     1.0000 0.50293  0.33950  0.40296  Biso   1.000  C
  C129     1.0000 0.52488  0.35440  0.45350  Biso   1.000  C
  H92      1.0000 0.50750  0.32210  0.47110  Biso   1.000  H
  C130     1.0000 0.57280  0.41740  0.47845  Biso   1.000  C
  H93      1.0000 0.58620  0.42790  0.51270  Biso   1.000  H
  C131     1.0000 0.45248  0.26860  0.37510  Biso   1.000  C
  C132     1.0000 0.43878  0.16500  0.39782  Biso   1.000  C
  H94      1.0000 0.46140  0.14180  0.43040  Biso   1.000  H
  C133     1.0000 0.39213  0.09510  0.37310  Biso   1.000  C
  H95      1.0000 0.38410  0.02420  0.38880  Biso   1.000  H
  C134     1.0000 0.35751  0.13100  0.32505  Biso   1.000  C
  C135     1.0000 0.37062  0.23350  0.30223  Biso   1.000  C
  H96      1.0000 0.34790  0.25810  0.26980  Biso   1.000  H
  C136     1.0000 0.41764  0.30010  0.32748  Biso   1.000  C
  H97      1.0000 0.42590  0.36940  0.31140  Biso   1.000  H
  C137     1.0000 0.16513  0.67820  0.96160  Biso   1.000  C
  H98      1.0000 0.18640  0.69460  0.94600  Biso   1.000  H
  C138     1.0000 0.12369  0.70120  0.00481  Biso   1.000  C
  H99      1.0000 0.11050  0.73830  0.02540  Biso   1.000  H
  C139     1.0000 0.11351  0.57660  0.98579  Biso   1.000  C
  H100     1.0000 0.09240  0.51260  0.99060  Biso   1.000  H
  C140     1.0000 0.13745  0.44960  0.92677  Biso   1.000  C
  H101     1.0000 0.13330  0.36870  0.94280  Biso   1.000  H
  H102     1.0000 0.17120  0.44310  0.92630  Biso   1.000  H
  C141     1.0000 0.09705  0.44720  0.87513  Biso   1.000  C
  C142     1.0000 0.09930  0.36830  0.84193  Biso   1.000  C
  H103     1.0000 0.12770  0.31030  0.85140  Biso   1.000  H
  C143     1.0000 0.06130  0.36620  0.79288  Biso   1.000  C
  H104     1.0000 0.06560  0.30760  0.77080  Biso   1.000  H
  C144     1.0000 0.01976  0.44270  0.77636  Biso   1.000  C
  C145     1.0000 0.00830  0.48820  0.81340  Biso   1.000  C
  H105     1.0000 0.97430  0.51430  0.80590  Biso   1.000  H
  C146     1.0000 0.04660  0.49550  0.86140  Biso   1.000  C
  H106     1.0000 0.03870  0.53380  0.88550  Biso   1.000  H
  Co4      1.0000 0.17768  0.96816  0.00202  Biso   1.000  Co
  N13      1.0000 0.15640  0.76610  0.98948  Biso   1.000  N
  N14      1.0000 0.14001  0.56200  0.95811  Biso   1.000  N
  N15      1.0000 0.60060  0.46310  0.45684  Biso   1.000  N
  N16      1.0000 0.30942  0.06180  0.30171  Biso   1.000  N
  O13      1.0000 0.16802  0.96840  0.06945  Biso   1.000  O
  O14      1.0000 0.24569  0.94500  0.07266  Biso   1.000  O
  O15      1.0000 0.20487  0.81500  0.43173  Biso   1.000  O
  O16      1.0000 0.20379  0.03350  0.44897  Biso   1.000  O
  C147     1.0000 0.03380  0.57090  0.80550  Biso   1.000  C
  H107     1.0000 0.01500  0.64930  0.79190  Biso   1.000  H
  C148     1.0000 0.07490  0.57160  0.85270  Biso   1.000  C
  H108     1.0000 0.08780  0.65230  0.86950  Biso   1.000  H
  C149     1.0000 0.71666  0.53720  0.59383  Biso   1.000  C
  C150     1.0000 0.74111  0.51810  0.64859  Biso   1.000  C
  C151     1.0000 0.71068  0.48970  0.67261  Biso   1.000  C
  H109     1.0000 0.67440  0.48750  0.65440  Biso   1.000  H
  C152     1.0000 0.73289  0.46470  0.72286  Biso   1.000  C
  H110     1.0000 0.71160  0.44550  0.73820  Biso   1.000  H
  C153     1.0000 0.78641  0.46790  0.75056  Biso   1.000  C
  C154     1.0000 0.81703  0.49990  0.72701  Biso   1.000  C
  H111     1.0000 0.85320  0.50480  0.74530  Biso   1.000  H
  C155     1.0000 0.79424  0.52420  0.67690  Biso   1.000  C
  H112     1.0000 0.81540  0.54540  0.66170  Biso   1.000  H
  C156     1.0000 0.71335  0.56370  0.92685  Biso   1.000  C
  C157     1.0000 0.73612  0.52890  0.89213  Biso   1.000  C
  C158     1.0000 0.75469  0.40220  0.89100  Biso   1.000  C
  H113     1.0000 0.75150  0.33520  0.91110  Biso   1.000  H
  C159     1.0000 0.77778  0.37240  0.86108  Biso   1.000  C
  H114     1.0000 0.79010  0.28570  0.86110  Biso   1.000  H
  C160     1.0000 0.78298  0.46920  0.83100  Biso   1.000  C
  C161     1.0000 0.76322  0.59690  0.83072  Biso   1.000  C
  H115     1.0000 0.76550  0.66290  0.80980  Biso   1.000  H
  C162     1.0000 0.74044  0.62610  0.86087  Biso   1.000  C
  H116     1.0000 0.72760  0.71240  0.86060  Biso   1.000  H
  C163     1.0000 0.07859  0.04940  0.90844  Biso   1.000  C
  H117     1.0000 0.09640  0.01390  0.89160  Biso   1.000  H
  C164     1.0000 0.03146  0.11060  0.88055  Biso   1.000  C
  H118     1.0000 0.01900  0.11800  0.84630  Biso   1.000  H
  C165     1.0000 0.00293  0.16050  0.90296  Biso   1.000  C
  C166     1.0000 0.02488  0.14560  0.95350  Biso   1.000  C
  H119     1.0000 0.00750  0.17790  0.97110  Biso   1.000  H
  C167     1.0000 0.07280  0.08260  0.97845  Biso   1.000  C
  H120     1.0000 0.08620  0.07210  0.01270  Biso   1.000  H
  C168     1.0000 0.95248  0.23140  0.87510  Biso   1.000  C
  C169     1.0000 0.93878  0.33500  0.89782  Biso   1.000  C
  H121     1.0000 0.96140  0.35820  0.93040  Biso   1.000  H
  C170     1.0000 0.89213  0.40490  0.87310  Biso   1.000  C
  H122     1.0000 0.88410  0.47580  0.88880  Biso   1.000  H
  C171     1.0000 0.85751  0.36900  0.82505  Biso   1.000  C
  C172     1.0000 0.87062  0.26650  0.80223  Biso   1.000  C
  H123     1.0000 0.84790  0.24190  0.76980  Biso   1.000  H
  C173     1.0000 0.91764  0.19990  0.82748  Biso   1.000  C
  H124     1.0000 0.92590  0.13060  0.81140  Biso   1.000  H
  C174     1.0000 0.66513  0.82180  0.46160  Biso   1.000  C
  H125     1.0000 0.68640  0.80540  0.44600  Biso   1.000  H
  C175     1.0000 0.62369  0.79880  0.50481  Biso   1.000  C
  H126     1.0000 0.61050  0.76170  0.52540  Biso   1.000  H
  C176     1.0000 0.61351  0.92340  0.48579  Biso   1.000  C
  H127     1.0000 0.59240  0.98740  0.49060  Biso   1.000  H
  C177     1.0000 0.63745  0.05040  0.42677  Biso   1.000  C
  H128     1.0000 0.63330  0.13130  0.44280  Biso   1.000  H
  H129     1.0000 0.67120  0.05690  0.42630  Biso   1.000  H
  C178     1.0000 0.59705  0.05280  0.37513  Biso   1.000  C
  C179     1.0000 0.59930  0.13170  0.34193  Biso   1.000  C
  H130     1.0000 0.62770  0.18970  0.35140  Biso   1.000  H
  C180     1.0000 0.56130  0.13380  0.29288  Biso   1.000  C
  H131     1.0000 0.56560  0.19240  0.27080  Biso   1.000  H
  C181     1.0000 0.51976  0.05730  0.27636  Biso   1.000  C
  C182     1.0000 0.50830  0.01180  0.31340  Biso   1.000  C
  H132     1.0000 0.47430  0.98570  0.30590  Biso   1.000  H
  C183     1.0000 0.54660  0.00450  0.36140  Biso   1.000  C
  H133     1.0000 0.53870  0.96620  0.38550  Biso   1.000  H
  Co5      1.0000 0.67768  0.53184  0.50202  Biso   1.000  Co
  N17      1.0000 0.65640  0.73390  0.48948  Biso   1.000  N
  N18      1.0000 0.64001  0.93800  0.45811  Biso   1.000  N
  N19      1.0000 0.10060  0.03690  0.95684  Biso   1.000  N
  N20      1.0000 0.80942  0.43820  0.80171  Biso   1.000  N
  O17      1.0000 0.66802  0.53160  0.56945  Biso   1.000  O
  O18      1.0000 0.74569  0.55500  0.57266  Biso   1.000  O
  O19      1.0000 0.70487  0.68500  0.93173  Biso   1.000  O
  O20      1.0000 0.70379  0.46650  0.94897  Biso   1.000  O
  C184     1.0000 0.53380  0.92910  0.30550  Biso   1.000  C
  H134     1.0000 0.51500  0.85070  0.29190  Biso   1.000  H
  C185     1.0000 0.57490  0.92840  0.35270  Biso   1.000  C
  H135     1.0000 0.58780  0.84770  0.36950  Biso   1.000  H
  C186     1.0000 0.21666  0.03720  0.59383  Biso   1.000  C
  C187     1.0000 0.24111  0.01810  0.64859  Biso   1.000  C
  C188     1.0000 0.21068  0.98970  0.67261  Biso   1.000  C
  H136     1.0000 0.17440  0.98750  0.65440  Biso   1.000  H
  C189     1.0000 0.23289  0.96470  0.72286  Biso   1.000  C
  H137     1.0000 0.21160  0.94550  0.73820  Biso   1.000  H
  C190     1.0000 0.28641  0.96790  0.75056  Biso   1.000  C
  C191     1.0000 0.31703  0.99990  0.72701  Biso   1.000  C
  H138     1.0000 0.35320  0.00480  0.74530  Biso   1.000  H
  C192     1.0000 0.29424  0.02420  0.67690  Biso   1.000  C
  H139     1.0000 0.31540  0.04540  0.66170  Biso   1.000  H
  C193     1.0000 0.21335  0.06370  0.92685  Biso   1.000  C
  C194     1.0000 0.23612  0.02890  0.89213  Biso   1.000  C
  C195     1.0000 0.25469  0.90220  0.89100  Biso   1.000  C
  H140     1.0000 0.25150  0.83520  0.91110  Biso   1.000  H
  C196     1.0000 0.27778  0.87240  0.86108  Biso   1.000  C
  H141     1.0000 0.29010  0.78570  0.86110  Biso   1.000  H
  C197     1.0000 0.28298  0.96920  0.83100  Biso   1.000  C
  C198     1.0000 0.26322  0.09690  0.83072  Biso   1.000  C
  H142     1.0000 0.26550  0.16290  0.80980  Biso   1.000  H
  C199     1.0000 0.24044  0.12610  0.86087  Biso   1.000  C
  H143     1.0000 0.22760  0.21240  0.86060  Biso   1.000  H
  C200     1.0000 0.57859  0.54940  0.90844  Biso   1.000  C
  H144     1.0000 0.59640  0.51390  0.89160  Biso   1.000  H
  C201     1.0000 0.53146  0.61060  0.88055  Biso   1.000  C
  H145     1.0000 0.51900  0.61800  0.84630  Biso   1.000  H
  C202     1.0000 0.50293  0.66050  0.90296  Biso   1.000  C
  C203     1.0000 0.52488  0.64560  0.95350  Biso   1.000  C
  H146     1.0000 0.50750  0.67790  0.97110  Biso   1.000  H
  C204     1.0000 0.57280  0.58260  0.97845  Biso   1.000  C
  H147     1.0000 0.58620  0.57210  0.01270  Biso   1.000  H
  C205     1.0000 0.45248  0.73140  0.87510  Biso   1.000  C
  C206     1.0000 0.43878  0.83500  0.89782  Biso   1.000  C
  H148     1.0000 0.46140  0.85820  0.93040  Biso   1.000  H
  C207     1.0000 0.39213  0.90490  0.87310  Biso   1.000  C
  H149     1.0000 0.38410  0.97580  0.88880  Biso   1.000  H
  C208     1.0000 0.35751  0.86900  0.82505  Biso   1.000  C
  C209     1.0000 0.37062  0.76650  0.80223  Biso   1.000  C
  H150     1.0000 0.34790  0.74190  0.76980  Biso   1.000  H
  C210     1.0000 0.41764  0.69990  0.82748  Biso   1.000  C
  H151     1.0000 0.42590  0.63060  0.81140  Biso   1.000  H
  C211     1.0000 0.16513  0.32180  0.46160  Biso   1.000  C
  H152     1.0000 0.18640  0.30540  0.44600  Biso   1.000  H
  C212     1.0000 0.12369  0.29880  0.50481  Biso   1.000  C
  H153     1.0000 0.11050  0.26170  0.52540  Biso   1.000  H
  C213     1.0000 0.11351  0.42340  0.48579  Biso   1.000  C
  H154     1.0000 0.09240  0.48740  0.49060  Biso   1.000  H
  C214     1.0000 0.13745  0.55040  0.42677  Biso   1.000  C
  H155     1.0000 0.13330  0.63130  0.44280  Biso   1.000  H
  H156     1.0000 0.17120  0.55690  0.42630  Biso   1.000  H
  C215     1.0000 0.09705  0.55280  0.37513  Biso   1.000  C
  C216     1.0000 0.09930  0.63170  0.34193  Biso   1.000  C
  H157     1.0000 0.12770  0.68970  0.35140  Biso   1.000  H
  C217     1.0000 0.06130  0.63380  0.29288  Biso   1.000  C
  H158     1.0000 0.06560  0.69240  0.27080  Biso   1.000  H
  C218     1.0000 0.01976  0.55730  0.27636  Biso   1.000  C
  C219     1.0000 0.00830  0.51180  0.31340  Biso   1.000  C
  H159     1.0000 0.97430  0.48570  0.30590  Biso   1.000  H
  C220     1.0000 0.04660  0.50450  0.36140  Biso   1.000  C
  H160     1.0000 0.03870  0.46620  0.38550  Biso   1.000  H
  Co6      1.0000 0.17768  0.03184  0.50202  Biso   1.000  Co
  N21      1.0000 0.15640  0.23390  0.48948  Biso   1.000  N
  N22      1.0000 0.14001  0.43800  0.45811  Biso   1.000  N
  N23      1.0000 0.60060  0.53690  0.95684  Biso   1.000  N
  N24      1.0000 0.30942  0.93820  0.80171  Biso   1.000  N
  O21      1.0000 0.16802  0.03160  0.56945  Biso   1.000  O
  O22      1.0000 0.24569  0.05500  0.57266  Biso   1.000  O
  O23      1.0000 0.20487  0.18500  0.93173  Biso   1.000  O
  O24      1.0000 0.20379  0.96650  0.94897  Biso   1.000  O
  C221     1.0000 0.03380  0.42910  0.30550  Biso   1.000  C
  H161     1.0000 0.01500  0.35070  0.29190  Biso   1.000  H
  C222     1.0000 0.07490  0.42840  0.35270  Biso   1.000  C
  H162     1.0000 0.08780  0.34770  0.36950  Biso   1.000  H
  C223     1.0000 0.28334  0.53720  0.90617  Biso   1.000  C
  C224     1.0000 0.25889  0.51810  0.85141  Biso   1.000  C
  C225     1.0000 0.28932  0.48970  0.82739  Biso   1.000  C
  H163     1.0000 0.32560  0.48750  0.84560  Biso   1.000  H
  C226     1.0000 0.26711  0.46470  0.77714  Biso   1.000  C
  H164     1.0000 0.28840  0.44550  0.76180  Biso   1.000  H
  C227     1.0000 0.21359  0.46790  0.74944  Biso   1.000  C
  C228     1.0000 0.18297  0.49990  0.77299  Biso   1.000  C
  H165     1.0000 0.14680  0.50480  0.75470  Biso   1.000  H
  C229     1.0000 0.20576  0.52420  0.82310  Biso   1.000  C
  H166     1.0000 0.18460  0.54540  0.83830  Biso   1.000  H
  C230     1.0000 0.28665  0.56370  0.57315  Biso   1.000  C
  C231     1.0000 0.26388  0.52890  0.60787  Biso   1.000  C
  C232     1.0000 0.24531  0.40220  0.60900  Biso   1.000  C
  H167     1.0000 0.24850  0.33520  0.58890  Biso   1.000  H
  C233     1.0000 0.22222  0.37240  0.63892  Biso   1.000  C
  H168     1.0000 0.20990  0.28570  0.63890  Biso   1.000  H
  C234     1.0000 0.21702  0.46920  0.66900  Biso   1.000  C
  C235     1.0000 0.23678  0.59690  0.66928  Biso   1.000  C
  H169     1.0000 0.23450  0.66290  0.69020  Biso   1.000  H
  C236     1.0000 0.25956  0.62610  0.63913  Biso   1.000  C
  H170     1.0000 0.27240  0.71240  0.63940  Biso   1.000  H
  C237     1.0000 0.92141  0.04940  0.59156  Biso   1.000  C
  H171     1.0000 0.90360  0.01390  0.60840  Biso   1.000  H
  C238     1.0000 0.96854  0.11060  0.61945  Biso   1.000  C
  H172     1.0000 0.98100  0.11800  0.65370  Biso   1.000  H
  C239     1.0000 0.99707  0.16050  0.59704  Biso   1.000  C
  C240     1.0000 0.97512  0.14560  0.54650  Biso   1.000  C
  H173     1.0000 0.99250  0.17790  0.52890  Biso   1.000  H
  C241     1.0000 0.92720  0.08260  0.52155  Biso   1.000  C
  H174     1.0000 0.91380  0.07210  0.48730  Biso   1.000  H
  C242     1.0000 0.04752  0.23140  0.62490  Biso   1.000  C
  C243     1.0000 0.06122  0.33500  0.60218  Biso   1.000  C
  H175     1.0000 0.03860  0.35820  0.56960  Biso   1.000  H
  C244     1.0000 0.10787  0.40490  0.62690  Biso   1.000  C
  H176     1.0000 0.11590  0.47580  0.61120  Biso   1.000  H
  C245     1.0000 0.14249  0.36900  0.67495  Biso   1.000  C
  C246     1.0000 0.12938  0.26650  0.69777  Biso   1.000  C
  H177     1.0000 0.15210  0.24190  0.73020  Biso   1.000  H
  C247     1.0000 0.08236  0.19990  0.67252  Biso   1.000  C
  H178     1.0000 0.07410  0.13060  0.68860  Biso   1.000  H
  C248     1.0000 0.33487  0.82180  0.03840  Biso   1.000  C
  H179     1.0000 0.31360  0.80540  0.05400  Biso   1.000  H
  C249     1.0000 0.37631  0.79880  0.99519  Biso   1.000  C
  H180     1.0000 0.38950  0.76170  0.97460  Biso   1.000  H
  C250     1.0000 0.38649  0.92340  0.01421  Biso   1.000  C
  H181     1.0000 0.40760  0.98740  0.00940  Biso   1.000  H
  C251     1.0000 0.36255  0.05040  0.07323  Biso   1.000  C
  H182     1.0000 0.36670  0.13130  0.05720  Biso   1.000  H
  H183     1.0000 0.32880  0.05690  0.07370  Biso   1.000  H
  C252     1.0000 0.40295  0.05280  0.12487  Biso   1.000  C
  C253     1.0000 0.40070  0.13170  0.15807  Biso   1.000  C
  H184     1.0000 0.37230  0.18970  0.14860  Biso   1.000  H
  C254     1.0000 0.43870  0.13380  0.20712  Biso   1.000  C
  H185     1.0000 0.43440  0.19240  0.22920  Biso   1.000  H
  C255     1.0000 0.48024  0.05730  0.22364  Biso   1.000  C
  C256     1.0000 0.49170  0.01180  0.18660  Biso   1.000  C
  H186     1.0000 0.52570  0.98570  0.19410  Biso   1.000  H
  C257     1.0000 0.45340  0.00450  0.13860  Biso   1.000  C
  H187     1.0000 0.46130  0.96620  0.11450  Biso   1.000  H
  Co7      1.0000 0.32232  0.53184  0.99798  Biso   1.000  Co
  N25      1.0000 0.34360  0.73390  0.01052  Biso   1.000  N
  N26      1.0000 0.35999  0.93800  0.04189  Biso   1.000  N
  N27      1.0000 0.89940  0.03690  0.54316  Biso   1.000  N
  N28      1.0000 0.19058  0.43820  0.69829  Biso   1.000  N
  O25      1.0000 0.33198  0.53160  0.93055  Biso   1.000  O
  O26      1.0000 0.25431  0.55500  0.92734  Biso   1.000  O
  O27      1.0000 0.29513  0.68500  0.56827  Biso   1.000  O
  O28      1.0000 0.29621  0.46650  0.55103  Biso   1.000  O
  C258     1.0000 0.46620  0.92910  0.19450  Biso   1.000  C
  H188     1.0000 0.48500  0.85070  0.20810  Biso   1.000  H
  C259     1.0000 0.42510  0.92840  0.14730  Biso   1.000  C
  H189     1.0000 0.41220  0.84770  0.13050  Biso   1.000  H
  C260     1.0000 0.78334  0.03720  0.90617  Biso   1.000  C
  C261     1.0000 0.75889  0.01810  0.85141  Biso   1.000  C
  C262     1.0000 0.78932  0.98970  0.82739  Biso   1.000  C
  H190     1.0000 0.82560  0.98750  0.84560  Biso   1.000  H
  C263     1.0000 0.76711  0.96470  0.77714  Biso   1.000  C
  H191     1.0000 0.78840  0.94550  0.76180  Biso   1.000  H
  C264     1.0000 0.71359  0.96790  0.74944  Biso   1.000  C
  C265     1.0000 0.68297  0.99990  0.77299  Biso   1.000  C
  H192     1.0000 0.64680  0.00480  0.75470  Biso   1.000  H
  C266     1.0000 0.70576  0.02420  0.82310  Biso   1.000  C
  H193     1.0000 0.68460  0.04540  0.83830  Biso   1.000  H
  C267     1.0000 0.78665  0.06370  0.57315  Biso   1.000  C
  C268     1.0000 0.76388  0.02890  0.60787  Biso   1.000  C
  C269     1.0000 0.74531  0.90220  0.60900  Biso   1.000  C
  H194     1.0000 0.74850  0.83520  0.58890  Biso   1.000  H
  C270     1.0000 0.72222  0.87240  0.63892  Biso   1.000  C
  H195     1.0000 0.70990  0.78570  0.63890  Biso   1.000  H
  C271     1.0000 0.71702  0.96920  0.66900  Biso   1.000  C
  C272     1.0000 0.73678  0.09690  0.66928  Biso   1.000  C
  H196     1.0000 0.73450  0.16290  0.69020  Biso   1.000  H
  C273     1.0000 0.75956  0.12610  0.63913  Biso   1.000  C
  H197     1.0000 0.77240  0.21240  0.63940  Biso   1.000  H
  C274     1.0000 0.42141  0.54940  0.59156  Biso   1.000  C
  H198     1.0000 0.40360  0.51390  0.60840  Biso   1.000  H
  C275     1.0000 0.46854  0.61060  0.61945  Biso   1.000  C
  H199     1.0000 0.48100  0.61800  0.65370  Biso   1.000  H
  C276     1.0000 0.49707  0.66050  0.59704  Biso   1.000  C
  C277     1.0000 0.47512  0.64560  0.54650  Biso   1.000  C
  H200     1.0000 0.49250  0.67790  0.52890  Biso   1.000  H
  C278     1.0000 0.42720  0.58260  0.52155  Biso   1.000  C
  H201     1.0000 0.41380  0.57210  0.48730  Biso   1.000  H
  C279     1.0000 0.54752  0.73140  0.62490  Biso   1.000  C
  C280     1.0000 0.56122  0.83500  0.60218  Biso   1.000  C
  H202     1.0000 0.53860  0.85820  0.56960  Biso   1.000  H
  C281     1.0000 0.60787  0.90490  0.62690  Biso   1.000  C
  H203     1.0000 0.61590  0.97580  0.61120  Biso   1.000  H
  C282     1.0000 0.64249  0.86900  0.67495  Biso   1.000  C
  C283     1.0000 0.62938  0.76650  0.69777  Biso   1.000  C
  H204     1.0000 0.65210  0.74190  0.73020  Biso   1.000  H
  C284     1.0000 0.58236  0.69990  0.67252  Biso   1.000  C
  H205     1.0000 0.57410  0.63060  0.68860  Biso   1.000  H
  C285     1.0000 0.83487  0.32180  0.03840  Biso   1.000  C
  H206     1.0000 0.81360  0.30540  0.05400  Biso   1.000  H
  C286     1.0000 0.87631  0.29880  0.99519  Biso   1.000  C
  H207     1.0000 0.88950  0.26170  0.97460  Biso   1.000  H
  C287     1.0000 0.88649  0.42340  0.01421  Biso   1.000  C
  H208     1.0000 0.90760  0.48740  0.00940  Biso   1.000  H
  C288     1.0000 0.86255  0.55040  0.07323  Biso   1.000  C
  H209     1.0000 0.86670  0.63130  0.05720  Biso   1.000  H
  H210     1.0000 0.82880  0.55690  0.07370  Biso   1.000  H
  C289     1.0000 0.90295  0.55280  0.12487  Biso   1.000  C
  C290     1.0000 0.90070  0.63170  0.15807  Biso   1.000  C
  H211     1.0000 0.87230  0.68970  0.14860  Biso   1.000  H
  C291     1.0000 0.93870  0.63380  0.20712  Biso   1.000  C
  H212     1.0000 0.93440  0.69240  0.22920  Biso   1.000  H
  C292     1.0000 0.98024  0.55730  0.22364  Biso   1.000  C
  C293     1.0000 0.99170  0.51180  0.18660  Biso   1.000  C
  H213     1.0000 0.02570  0.48570  0.19410  Biso   1.000  H
  C294     1.0000 0.95340  0.50450  0.13860  Biso   1.000  C
  H214     1.0000 0.96130  0.46620  0.11450  Biso   1.000  H
  Co8      1.0000 0.82232  0.03184  0.99798  Biso   1.000  Co
  N29      1.0000 0.84360  0.23390  0.01052  Biso   1.000  N
  N30      1.0000 0.85999  0.43800  0.04189  Biso   1.000  N
  N31      1.0000 0.39940  0.53690  0.54316  Biso   1.000  N
  N32      1.0000 0.69058  0.93820  0.69829  Biso   1.000  N
  O29      1.0000 0.83198  0.03160  0.93055  Biso   1.000  O
  O30      1.0000 0.75431  0.05500  0.92734  Biso   1.000  O
  O31      1.0000 0.79513  0.18500  0.56827  Biso   1.000  O
  O32      1.0000 0.79621  0.96650  0.55103  Biso   1.000  O
  C295     1.0000 0.96620  0.42910  0.19450  Biso   1.000  C
  H215     1.0000 0.98500  0.35070  0.20810  Biso   1.000  H
  C296     1.0000 0.92510  0.42840  0.14730  Biso   1.000  C
  H216     1.0000 0.91220  0.34770  0.13050  Biso   1.000  H
