data_image0
_cell_length_a       14.2232
_cell_length_b       26.5395
_cell_length_c       19.467
_cell_angle_alpha    90
_cell_angle_beta     107.701
_cell_angle_gamma    90

_symmetry_space_group_name_H-M    "P 1"
_symmetry_int_tables_number       1

loop_
  _symmetry_equiv_pos_as_xyz
  'x, y, z'

loop_
  _atom_site_label
  _atom_site_occupancy
  _atom_site_fract_x
  _atom_site_fract_y
  _atom_site_fract_z
  _atom_site_thermal_displace_type
  _atom_site_B_iso_or_equiv
  _atom_site_type_symbol
  C1       1.0000 0.80870  0.42480  0.12443  Biso   1.000  C
  C2       1.0000 0.71650  0.39537  0.10770  Biso   1.000  C
  C3       1.0000 0.69080  0.36024  0.05300  Biso   1.000  C
  H1       1.0000 0.73340  0.35460  0.02570  Biso   1.000  H
  C4       1.0000 0.60500  0.33357  0.03750  Biso   1.000  C
  H2       1.0000 0.58990  0.31040  0.99980  Biso   1.000  H
  C5       1.0000 0.54000  0.34058  0.07737  Biso   1.000  C
  C6       1.0000 0.56540  0.37527  0.13330  Biso   1.000  C
  H3       1.0000 0.52350  0.38050  0.16120  Biso   1.000  H
  C7       1.0000 0.65190  0.40189  0.14772  Biso   1.000  C
  H4       1.0000 0.66770  0.42500  0.18540  Biso   1.000  H
  C8       1.0000 0.13150  0.39362  0.14823  Biso   1.000  C
  C9       1.0000 0.21580  0.37300  0.12551  Biso   1.000  C
  C10      1.0000 0.25340  0.32598  0.14870  Biso   1.000  C
  H5       1.0000 0.22660  0.30710  0.17840  Biso   1.000  H
  C11      1.0000 0.33180  0.30652  0.12760  Biso   1.000  C
  H6       1.0000 0.35780  0.27500  0.14390  Biso   1.000  H
  C12      1.0000 0.37030  0.33393  0.08290  Biso   1.000  C
  C13      1.0000 0.33350  0.38083  0.06100  Biso   1.000  C
  H7       1.0000 0.36030  0.39980  0.03130  Biso   1.000  H
  C14      1.0000 0.25680  0.40033  0.08240  Biso   1.000  C
  H8       1.0000 0.23280  0.43240  0.06730  Biso   1.000  H
  C15      1.0000 0.41660  0.03448  0.92369  Biso   1.000  C
  H9       1.0000 0.42860  0.00510  0.95100  Biso   1.000  H
  C16      1.0000 0.42520  0.07954  0.95929  Biso   1.000  C
  H10      1.0000 0.44360  0.08030  0.00940  Biso   1.000  H
  C17      1.0000 0.40630  0.12404  0.92016  Biso   1.000  C
  C18      1.0000 0.37910  0.11966  0.84634  Biso   1.000  C
  H11      1.0000 0.36430  0.14830  0.81760  Biso   1.000  H
  C19      1.0000 0.37380  0.07275  0.81490  Biso   1.000  C
  H12      1.0000 0.35630  0.07100  0.76490  Biso   1.000  H
  C20      1.0000 0.41640  0.17321  0.95726  Biso   1.000  C
  C21      1.0000 0.49470  0.18196  0.01912  Biso   1.000  C
  H13      1.0000 0.53980  0.15630  0.03770  Biso   1.000  H
  C22      1.0000 0.50690  0.22797  0.05350  Biso   1.000  C
  H14      1.0000 0.56070  0.23330  0.09430  Biso   1.000  H
  C23      1.0000 0.43930  0.26628  0.02750  Biso   1.000  C
  C24      1.0000 0.35980  0.25712  0.96830  Biso   1.000  C
  H15      1.0000 0.31300  0.28230  0.95130  Biso   1.000  H
  C25      1.0000 0.34800  0.21165  0.93340  Biso   1.000  C
  H16      1.0000 0.29330  0.20640  0.89320  Biso   1.000  H
  C26      1.0000 0.91690  0.56593  0.12600  Biso   1.000  C
  H17      1.0000 0.87670  0.55750  0.15400  Biso   1.000  H
  C27      1.0000 0.91350  0.61445  0.10130  Biso   1.000  C
  H18      1.0000 0.87160  0.63770  0.11260  Biso   1.000  H
  C28      1.0000 0.97242  0.62907  0.05926  Biso   1.000  C
  C29      1.0000 0.03290  0.59147  0.04571  Biso   1.000  C
  H19      1.0000 0.07420  0.59880  0.01800  Biso   1.000  H
  C30      1.0000 0.03210  0.54438  0.07251  Biso   1.000  C
  H20      1.0000 0.07390  0.52040  0.06270  Biso   1.000  H
  C31      1.0000 0.96920  0.68041  0.02876  Biso   1.000  C
  C32      1.0000 0.91950  0.72004  0.05035  Biso   1.000  C
  H21      1.0000 0.89040  0.71450  0.08640  Biso   1.000  H
  C33      1.0000 0.91290  0.76673  0.01950  Biso   1.000  C
  H22      1.0000 0.87970  0.79230  0.03520  Biso   1.000  H
  C34      1.0000 0.95460  0.77643  0.96581  Biso   1.000  C
  C35      1.0000 0.00390  0.73811  0.94352  Biso   1.000  C
  H23      1.0000 0.03220  0.74390  0.90710  Biso   1.000  H
  C36      1.0000 0.01130  0.69093  0.97513  Biso   1.000  C
  H24      1.0000 0.04560  0.66570  0.95980  Biso   1.000  H
  C37      1.0000 0.56300  0.91440  0.84800  Biso   1.000  C
  C38      1.0000 0.66490  0.89265  0.87072  Biso   1.000  C
  C39      1.0000 0.67610  0.84295  0.86430  Biso   1.000  C
  H25      1.0000 0.62020  0.82310  0.84560  Biso   1.000  H
  C40      1.0000 0.76650  0.82033  0.88400  Biso   1.000  C
  H26      1.0000 0.77110  0.78570  0.87860  Biso   1.000  H
  C41      1.0000 0.85030  0.84806  0.91158  Biso   1.000  C
  C42      1.0000 0.84180  0.89869  0.91958  Biso   1.000  C
  H27      1.0000 0.89760  0.91860  0.93840  Biso   1.000  H
  C43      1.0000 0.74790  0.92004  0.89890  Biso   1.000  C
  H28      1.0000 0.74210  0.95460  0.90480  Biso   1.000  H
  C44      1.0000 0.27170  0.91306  0.86570  Biso   1.000  C
  C45      1.0000 0.18535  0.88828  0.88156  Biso   1.000  C
  C46      1.0000 0.09120  0.89200  0.83362  Biso   1.000  C
  H29      1.0000 0.08140  0.90870  0.79000  Biso   1.000  H
  C47      1.0000 0.01140  0.87112  0.84986  Biso   1.000  C
  H30      1.0000 0.94840  0.87400  0.81730  Biso   1.000  H
  C48      1.0000 0.02479  0.84600  0.91434  Biso   1.000  C
  C49      1.0000 0.11940  0.84193  0.96182  Biso   1.000  C
  H31      1.0000 0.12960  0.82450  0.00490  Biso   1.000  H
  C50      1.0000 0.19870  0.86346  0.94579  Biso   1.000  C
  H32      1.0000 0.26150  0.86110  0.97870  Biso   1.000  H
  C51      1.0000 0.99100  0.47727  0.30834  Biso   1.000  C
  H33      1.0000 0.92310  0.48190  0.29600  Biso   1.000  H
  C52      1.0000 0.14550  0.47173  0.37130  Biso   1.000  C
  H34      1.0000 0.20390  0.47110  0.40930  Biso   1.000  H
  C53      1.0000 0.13540  0.46489  0.30160  Biso   1.000  C
  H35      1.0000 0.18730  0.45920  0.28280  Biso   1.000  H
  C54      1.0000 0.08520  0.52090  0.49138  Biso   1.000  C
  H36      1.0000 0.14210  0.53480  0.48520  Biso   1.000  H
  C55      1.0000 0.02540  0.49005  0.43921  Biso   1.000  C
  C56      1.0000 0.94030  0.46914  0.44730  Biso   1.000  C
  H37      1.0000 0.90060  0.44850  0.41150  Biso   1.000  H
  C57      1.0000 0.29050  0.95247  0.64988  Biso   1.000  C
  H38      1.0000 0.23320  0.93960  0.65680  Biso   1.000  H
  C58      1.0000 0.30670  0.95758  0.58603  Biso   1.000  C
  H39      1.0000 0.26310  0.94950  0.54110  Biso   1.000  H
  C59      1.0000 0.43490  0.98342  0.67114  Biso   1.000  C
  H40      1.0000 0.49710  0.99650  0.69470  Biso   1.000  H
  C60      1.0000 0.39920  0.00618  0.48131  Biso   1.000  C
  H41      1.0000 0.33110  0.01030  0.46880  Biso   1.000  H
  C61      1.0000 0.45070  0.98815  0.54877  Biso   1.000  C
  C62      1.0000 0.55160  0.98196  0.56733  Biso   1.000  C
  H42      1.0000 0.58640  0.96980  0.61270  Biso   1.000  H
  N1       1.0000 0.39214  0.03012  0.85194  Biso   1.000  N
  N2       1.0000 0.45054  0.31405  0.06189  Biso   1.000  N
  N3       1.0000 0.97417  0.53037  0.11248  Biso   1.000  N
  N4       1.0000 0.94460  0.82431  0.93259  Biso   1.000  N
  N5       1.0000 0.03844  0.46744  0.26165  Biso   1.000  N
  N6       1.0000 0.05183  0.47986  0.37550  Biso   1.000  N
  N7       1.0000 0.37178  0.96928  0.70375  Biso   1.000  N
  N8       1.0000 0.39952  0.97684  0.59948  Biso   1.000  N
  O1       1.0000 0.87097  0.41555  0.09295  Biso   1.000  O
  O2       1.0000 0.82360  0.46004  0.17101  Biso   1.000  O
  O3       1.0000 0.09969  0.43694  0.12433  Biso   1.000  O
  O4       1.0000 0.09607  0.36861  0.18796  Biso   1.000  O
  O5       1.0000 0.26378  0.92456  0.80080  Biso   1.000  O
  O6       1.0000 0.34826  0.92226  0.91596  Biso   1.000  O
  O7       1.0000 0.55030  0.95740  0.85936  Biso   1.000  O
  O8       1.0000 0.49080  0.89054  0.81700  Biso   1.000  O
  Zn1      1.0000 0.39333  0.95818  0.81070  Biso   1.000  Zn
  Zn2      1.0000 0.98604  0.45856  0.15439  Biso   1.000  Zn
  C63      1.0000 0.19130  0.57520  0.87557  Biso   1.000  C
  C64      1.0000 0.28350  0.60463  0.89230  Biso   1.000  C
  C65      1.0000 0.30920  0.63976  0.94700  Biso   1.000  C
  H43      1.0000 0.26660  0.64540  0.97430  Biso   1.000  H
  C66      1.0000 0.39500  0.66643  0.96250  Biso   1.000  C
  H44      1.0000 0.41010  0.68960  0.00020  Biso   1.000  H
  C67      1.0000 0.46000  0.65942  0.92263  Biso   1.000  C
  C68      1.0000 0.43460  0.62473  0.86670  Biso   1.000  C
  H45      1.0000 0.47650  0.61950  0.83880  Biso   1.000  H
  C69      1.0000 0.34810  0.59811  0.85228  Biso   1.000  C
  H46      1.0000 0.33230  0.57500  0.81460  Biso   1.000  H
  C70      1.0000 0.86850  0.60638  0.85177  Biso   1.000  C
  C71      1.0000 0.78420  0.62700  0.87449  Biso   1.000  C
  C72      1.0000 0.74660  0.67402  0.85130  Biso   1.000  C
  H47      1.0000 0.77340  0.69290  0.82160  Biso   1.000  H
  C73      1.0000 0.66820  0.69348  0.87240  Biso   1.000  C
  H48      1.0000 0.64220  0.72500  0.85610  Biso   1.000  H
  C74      1.0000 0.62970  0.66607  0.91710  Biso   1.000  C
  C75      1.0000 0.66650  0.61917  0.93900  Biso   1.000  C
  H49      1.0000 0.63970  0.60020  0.96870  Biso   1.000  H
  C76      1.0000 0.74320  0.59967  0.91760  Biso   1.000  C
  H50      1.0000 0.76720  0.56760  0.93270  Biso   1.000  H
  C77      1.0000 0.58340  0.96552  0.07631  Biso   1.000  C
  H51      1.0000 0.57140  0.99490  0.04900  Biso   1.000  H
  C78      1.0000 0.57480  0.92046  0.04071  Biso   1.000  C
  H52      1.0000 0.55640  0.91970  0.99060  Biso   1.000  H
  C79      1.0000 0.59370  0.87596  0.07984  Biso   1.000  C
  C80      1.0000 0.62090  0.88034  0.15366  Biso   1.000  C
  H53      1.0000 0.63570  0.85170  0.18240  Biso   1.000  H
  C81      1.0000 0.62620  0.92725  0.18510  Biso   1.000  C
  H54      1.0000 0.64370  0.92900  0.23510  Biso   1.000  H
  C82      1.0000 0.58360  0.82679  0.04274  Biso   1.000  C
  C83      1.0000 0.50530  0.81804  0.98088  Biso   1.000  C
  H55      1.0000 0.46020  0.84370  0.96230  Biso   1.000  H
  C84      1.0000 0.49310  0.77203  0.94650  Biso   1.000  C
  H56      1.0000 0.43930  0.76670  0.90570  Biso   1.000  H
  C85      1.0000 0.56070  0.73372  0.97250  Biso   1.000  C
  C86      1.0000 0.64020  0.74288  0.03170  Biso   1.000  C
  H57      1.0000 0.68700  0.71770  0.04870  Biso   1.000  H
  C87      1.0000 0.65200  0.78835  0.06660  Biso   1.000  C
  H58      1.0000 0.70670  0.79360  0.10680  Biso   1.000  H
  C88      1.0000 0.08310  0.43407  0.87400  Biso   1.000  C
  H59      1.0000 0.12330  0.44250  0.84600  Biso   1.000  H
  C89      1.0000 0.08650  0.38555  0.89870  Biso   1.000  C
  H60      1.0000 0.12840  0.36230  0.88740  Biso   1.000  H
  C90      1.0000 0.02758  0.37093  0.94074  Biso   1.000  C
  C91      1.0000 0.96710  0.40853  0.95429  Biso   1.000  C
  H61      1.0000 0.92580  0.40120  0.98200  Biso   1.000  H
  C92      1.0000 0.96790  0.45562  0.92749  Biso   1.000  C
  H62      1.0000 0.92610  0.47960  0.93730  Biso   1.000  H
  C93      1.0000 0.03080  0.31959  0.97124  Biso   1.000  C
  C94      1.0000 0.08050  0.27996  0.94965  Biso   1.000  C
  H63      1.0000 0.10960  0.28550  0.91360  Biso   1.000  H
  C95      1.0000 0.08710  0.23327  0.98050  Biso   1.000  C
  H64      1.0000 0.12030  0.20770  0.96480  Biso   1.000  H
  C96      1.0000 0.04540  0.22357  0.03419  Biso   1.000  C
  C97      1.0000 0.99610  0.26189  0.05648  Biso   1.000  C
  H65      1.0000 0.96780  0.25610  0.09290  Biso   1.000  H
  C98      1.0000 0.98870  0.30907  0.02487  Biso   1.000  C
  H66      1.0000 0.95440  0.33430  0.04020  Biso   1.000  H
  C99      1.0000 0.43700  0.08560  0.15200  Biso   1.000  C
  C100     1.0000 0.33510  0.10735  0.12928  Biso   1.000  C
  C101     1.0000 0.32390  0.15705  0.13570  Biso   1.000  C
  H67      1.0000 0.37980  0.17690  0.15440  Biso   1.000  H
  C102     1.0000 0.23350  0.17967  0.11600  Biso   1.000  C
  H68      1.0000 0.22890  0.21430  0.12140  Biso   1.000  H
  C103     1.0000 0.14970  0.15194  0.08842  Biso   1.000  C
  C104     1.0000 0.15820  0.10131  0.08042  Biso   1.000  C
  H69      1.0000 0.10240  0.08140  0.06160  Biso   1.000  H
  C105     1.0000 0.25210  0.07996  0.10110  Biso   1.000  C
  H70      1.0000 0.25790  0.04540  0.09520  Biso   1.000  H
  C106     1.0000 0.72830  0.08694  0.13430  Biso   1.000  C
  C107     1.0000 0.81465  0.11172  0.11844  Biso   1.000  C
  C108     1.0000 0.90880  0.10800  0.16638  Biso   1.000  C
  H71      1.0000 0.91860  0.09130  0.21000  Biso   1.000  H
  C109     1.0000 0.98860  0.12888  0.15014  Biso   1.000  C
  H72      1.0000 0.05160  0.12600  0.18270  Biso   1.000  H
  C110     1.0000 0.97521  0.15400  0.08566  Biso   1.000  C
  C111     1.0000 0.88060  0.15807  0.03818  Biso   1.000  C
  H73      1.0000 0.87040  0.17550  0.99510  Biso   1.000  H
  C112     1.0000 0.80130  0.13654  0.05421  Biso   1.000  C
  H74      1.0000 0.73850  0.13890  0.02130  Biso   1.000  H
  C113     1.0000 0.00900  0.52273  0.69166  Biso   1.000  C
  H75      1.0000 0.07690  0.51810  0.70400  Biso   1.000  H
  C114     1.0000 0.85450  0.52827  0.62870  Biso   1.000  C
  H76      1.0000 0.79610  0.52890  0.59070  Biso   1.000  H
  C115     1.0000 0.86460  0.53511  0.69840  Biso   1.000  C
  H77      1.0000 0.81270  0.54080  0.71720  Biso   1.000  H
  C116     1.0000 0.91480  0.47910  0.50862  Biso   1.000  C
  H78      1.0000 0.85790  0.46520  0.51480  Biso   1.000  H
  C117     1.0000 0.97460  0.50995  0.56079  Biso   1.000  C
  C118     1.0000 0.05970  0.53086  0.55270  Biso   1.000  C
  H79      1.0000 0.09940  0.55150  0.58850  Biso   1.000  H
  C119     1.0000 0.70950  0.04753  0.35012  Biso   1.000  C
  H80      1.0000 0.76680  0.06040  0.34320  Biso   1.000  H
  C120     1.0000 0.69330  0.04242  0.41397  Biso   1.000  C
  H81      1.0000 0.73690  0.05050  0.45890  Biso   1.000  H
  C121     1.0000 0.56510  0.01658  0.32886  Biso   1.000  C
  H82      1.0000 0.50290  0.00350  0.30530  Biso   1.000  H
  C122     1.0000 0.60080  0.99382  0.51869  Biso   1.000  C
  H83      1.0000 0.66890  0.98970  0.53120  Biso   1.000  H
  C123     1.0000 0.54930  0.01185  0.45123  Biso   1.000  C
  C124     1.0000 0.44840  0.01804  0.43267  Biso   1.000  C
  H84      1.0000 0.41360  0.03020  0.38730  Biso   1.000  H
  N9       1.0000 0.60786  0.96988  0.14806  Biso   1.000  N
  N10      1.0000 0.54946  0.68595  0.93811  Biso   1.000  N
  N11      1.0000 0.02583  0.46963  0.88752  Biso   1.000  N
  N12      1.0000 0.05540  0.17569  0.06741  Biso   1.000  N
  N13      1.0000 0.96156  0.53256  0.73835  Biso   1.000  N
  N14      1.0000 0.94817  0.52014  0.62450  Biso   1.000  N
  N15      1.0000 0.62822  0.03072  0.29625  Biso   1.000  N
  N16      1.0000 0.60048  0.02316  0.40052  Biso   1.000  N
  O9       1.0000 0.12903  0.58445  0.90705  Biso   1.000  O
  O10      1.0000 0.17640  0.53996  0.82899  Biso   1.000  O
  O11      1.0000 0.90031  0.56306  0.87567  Biso   1.000  O
  O12      1.0000 0.90393  0.63139  0.81204  Biso   1.000  O
  O13      1.0000 0.73622  0.07544  0.19920  Biso   1.000  O
  O14      1.0000 0.65174  0.07774  0.08404  Biso   1.000  O
  O15      1.0000 0.44970  0.04260  0.14064  Biso   1.000  O
  O16      1.0000 0.50920  0.10946  0.18300  Biso   1.000  O
  Zn3      1.0000 0.60667  0.04182  0.18930  Biso   1.000  Zn
  Zn4      1.0000 0.01396  0.54144  0.84561  Biso   1.000  Zn
  C125     1.0000 0.19130  0.92480  0.37557  Biso   1.000  C
  C126     1.0000 0.28350  0.89537  0.39230  Biso   1.000  C
  C127     1.0000 0.30920  0.86024  0.44700  Biso   1.000  C
  H85      1.0000 0.26660  0.85460  0.47430  Biso   1.000  H
  C128     1.0000 0.39500  0.83357  0.46250  Biso   1.000  C
  H86      1.0000 0.41010  0.81040  0.50020  Biso   1.000  H
  C129     1.0000 0.46000  0.84058  0.42263  Biso   1.000  C
  C130     1.0000 0.43460  0.87527  0.36670  Biso   1.000  C
  H87      1.0000 0.47650  0.88050  0.33880  Biso   1.000  H
  C131     1.0000 0.34810  0.90189  0.35228  Biso   1.000  C
  H88      1.0000 0.33230  0.92500  0.31460  Biso   1.000  H
  C132     1.0000 0.86850  0.89362  0.35177  Biso   1.000  C
  C133     1.0000 0.78420  0.87300  0.37449  Biso   1.000  C
  C134     1.0000 0.74660  0.82598  0.35130  Biso   1.000  C
  H89      1.0000 0.77340  0.80710  0.32160  Biso   1.000  H
  C135     1.0000 0.66820  0.80652  0.37240  Biso   1.000  C
  H90      1.0000 0.64220  0.77500  0.35610  Biso   1.000  H
  C136     1.0000 0.62970  0.83393  0.41710  Biso   1.000  C
  C137     1.0000 0.66650  0.88083  0.43900  Biso   1.000  C
  H91      1.0000 0.63970  0.89980  0.46870  Biso   1.000  H
  C138     1.0000 0.74320  0.90033  0.41760  Biso   1.000  C
  H92      1.0000 0.76720  0.93240  0.43270  Biso   1.000  H
  C139     1.0000 0.58340  0.53448  0.57631  Biso   1.000  C
  H93      1.0000 0.57140  0.50510  0.54900  Biso   1.000  H
  C140     1.0000 0.57480  0.57954  0.54071  Biso   1.000  C
  H94      1.0000 0.55640  0.58030  0.49060  Biso   1.000  H
  C141     1.0000 0.59370  0.62404  0.57984  Biso   1.000  C
  C142     1.0000 0.62090  0.61966  0.65366  Biso   1.000  C
  H95      1.0000 0.63570  0.64830  0.68240  Biso   1.000  H
  C143     1.0000 0.62620  0.57275  0.68510  Biso   1.000  C
  H96      1.0000 0.64370  0.57100  0.73510  Biso   1.000  H
  C144     1.0000 0.58360  0.67321  0.54274  Biso   1.000  C
  C145     1.0000 0.50530  0.68196  0.48088  Biso   1.000  C
  H97      1.0000 0.46020  0.65630  0.46230  Biso   1.000  H
  C146     1.0000 0.49310  0.72797  0.44650  Biso   1.000  C
  H98      1.0000 0.43930  0.73330  0.40570  Biso   1.000  H
  C147     1.0000 0.56070  0.76628  0.47250  Biso   1.000  C
  C148     1.0000 0.64020  0.75712  0.53170  Biso   1.000  C
  H99      1.0000 0.68700  0.78230  0.54870  Biso   1.000  H
  C149     1.0000 0.65200  0.71165  0.56660  Biso   1.000  C
  H100     1.0000 0.70670  0.70640  0.60680  Biso   1.000  H
  C150     1.0000 0.08310  0.06593  0.37400  Biso   1.000  C
  H101     1.0000 0.12330  0.05750  0.34600  Biso   1.000  H
  C151     1.0000 0.08650  0.11445  0.39870  Biso   1.000  C
  H102     1.0000 0.12840  0.13770  0.38740  Biso   1.000  H
  C152     1.0000 0.02758  0.12907  0.44074  Biso   1.000  C
  C153     1.0000 0.96710  0.09147  0.45429  Biso   1.000  C
  H103     1.0000 0.92580  0.09880  0.48200  Biso   1.000  H
  C154     1.0000 0.96790  0.04438  0.42749  Biso   1.000  C
  H104     1.0000 0.92610  0.02040  0.43730  Biso   1.000  H
  C155     1.0000 0.03080  0.18041  0.47124  Biso   1.000  C
  C156     1.0000 0.08050  0.22004  0.44965  Biso   1.000  C
  H105     1.0000 0.10960  0.21450  0.41360  Biso   1.000  H
  C157     1.0000 0.08710  0.26673  0.48050  Biso   1.000  C
  H106     1.0000 0.12030  0.29230  0.46480  Biso   1.000  H
  C158     1.0000 0.04540  0.27643  0.53419  Biso   1.000  C
  C159     1.0000 0.99610  0.23811  0.55648  Biso   1.000  C
  H107     1.0000 0.96780  0.24390  0.59290  Biso   1.000  H
  C160     1.0000 0.98870  0.19093  0.52487  Biso   1.000  C
  H108     1.0000 0.95440  0.16570  0.54020  Biso   1.000  H
  C161     1.0000 0.43700  0.41440  0.65200  Biso   1.000  C
  C162     1.0000 0.33510  0.39265  0.62928  Biso   1.000  C
  C163     1.0000 0.32390  0.34295  0.63570  Biso   1.000  C
  H109     1.0000 0.37980  0.32310  0.65440  Biso   1.000  H
  C164     1.0000 0.23350  0.32033  0.61600  Biso   1.000  C
  H110     1.0000 0.22890  0.28570  0.62140  Biso   1.000  H
  C165     1.0000 0.14970  0.34806  0.58842  Biso   1.000  C
  C166     1.0000 0.15820  0.39869  0.58042  Biso   1.000  C
  H111     1.0000 0.10240  0.41860  0.56160  Biso   1.000  H
  C167     1.0000 0.25210  0.42004  0.60110  Biso   1.000  C
  H112     1.0000 0.25790  0.45460  0.59520  Biso   1.000  H
  C168     1.0000 0.72830  0.41306  0.63430  Biso   1.000  C
  C169     1.0000 0.81465  0.38828  0.61844  Biso   1.000  C
  C170     1.0000 0.90880  0.39200  0.66638  Biso   1.000  C
  H113     1.0000 0.91860  0.40870  0.71000  Biso   1.000  H
  C171     1.0000 0.98860  0.37112  0.65014  Biso   1.000  C
  H114     1.0000 0.05160  0.37400  0.68270  Biso   1.000  H
  C172     1.0000 0.97521  0.34600  0.58566  Biso   1.000  C
  C173     1.0000 0.88060  0.34193  0.53818  Biso   1.000  C
  H115     1.0000 0.87040  0.32450  0.49510  Biso   1.000  H
  C174     1.0000 0.80130  0.36346  0.55421  Biso   1.000  C
  H116     1.0000 0.73850  0.36110  0.52130  Biso   1.000  H
  C175     1.0000 0.00900  0.97727  0.19166  Biso   1.000  C
  H117     1.0000 0.07690  0.98190  0.20400  Biso   1.000  H
  C176     1.0000 0.85450  0.97173  0.12870  Biso   1.000  C
  H118     1.0000 0.79610  0.97110  0.09070  Biso   1.000  H
  C177     1.0000 0.86460  0.96489  0.19840  Biso   1.000  C
  H119     1.0000 0.81270  0.95920  0.21720  Biso   1.000  H
  C178     1.0000 0.91480  0.02090  0.00862  Biso   1.000  C
  H120     1.0000 0.85790  0.03480  0.01480  Biso   1.000  H
  C179     1.0000 0.97460  0.99005  0.06079  Biso   1.000  C
  C180     1.0000 0.05970  0.96914  0.05270  Biso   1.000  C
  H121     1.0000 0.09940  0.94850  0.08850  Biso   1.000  H
  C181     1.0000 0.70950  0.45247  0.85012  Biso   1.000  C
  H122     1.0000 0.76680  0.43960  0.84320  Biso   1.000  H
  C182     1.0000 0.69330  0.45758  0.91397  Biso   1.000  C
  H123     1.0000 0.73690  0.44950  0.95890  Biso   1.000  H
  C183     1.0000 0.56510  0.48342  0.82886  Biso   1.000  C
  H124     1.0000 0.50290  0.49650  0.80530  Biso   1.000  H
  C184     1.0000 0.60080  0.50618  0.01869  Biso   1.000  C
  H125     1.0000 0.66890  0.51030  0.03120  Biso   1.000  H
  C185     1.0000 0.54930  0.48815  0.95123  Biso   1.000  C
  C186     1.0000 0.44840  0.48196  0.93267  Biso   1.000  C
  H126     1.0000 0.41360  0.46980  0.88730  Biso   1.000  H
  N17      1.0000 0.60786  0.53012  0.64806  Biso   1.000  N
  N18      1.0000 0.54946  0.81405  0.43811  Biso   1.000  N
  N19      1.0000 0.02583  0.03037  0.38752  Biso   1.000  N
  N20      1.0000 0.05540  0.32431  0.56741  Biso   1.000  N
  N21      1.0000 0.96156  0.96744  0.23835  Biso   1.000  N
  N22      1.0000 0.94817  0.97986  0.12450  Biso   1.000  N
  N23      1.0000 0.62822  0.46928  0.79625  Biso   1.000  N
  N24      1.0000 0.60048  0.47684  0.90052  Biso   1.000  N
  O17      1.0000 0.12903  0.91555  0.40705  Biso   1.000  O
  O18      1.0000 0.17640  0.96004  0.32899  Biso   1.000  O
  O19      1.0000 0.90031  0.93694  0.37567  Biso   1.000  O
  O20      1.0000 0.90393  0.86861  0.31204  Biso   1.000  O
  O21      1.0000 0.73622  0.42456  0.69920  Biso   1.000  O
  O22      1.0000 0.65174  0.42226  0.58404  Biso   1.000  O
  O23      1.0000 0.44970  0.45740  0.64064  Biso   1.000  O
  O24      1.0000 0.50920  0.39054  0.68300  Biso   1.000  O
  Zn5      1.0000 0.60667  0.45818  0.68930  Biso   1.000  Zn
  Zn6      1.0000 0.01396  0.95856  0.34561  Biso   1.000  Zn
  C187     1.0000 0.80870  0.07520  0.62443  Biso   1.000  C
  C188     1.0000 0.71650  0.10463  0.60770  Biso   1.000  C
  C189     1.0000 0.69080  0.13976  0.55300  Biso   1.000  C
  H127     1.0000 0.73340  0.14540  0.52570  Biso   1.000  H
  C190     1.0000 0.60500  0.16643  0.53750  Biso   1.000  C
  H128     1.0000 0.58990  0.18960  0.49980  Biso   1.000  H
  C191     1.0000 0.54000  0.15942  0.57737  Biso   1.000  C
  C192     1.0000 0.56540  0.12473  0.63330  Biso   1.000  C
  H129     1.0000 0.52350  0.11950  0.66120  Biso   1.000  H
  C193     1.0000 0.65190  0.09811  0.64772  Biso   1.000  C
  H130     1.0000 0.66770  0.07500  0.68540  Biso   1.000  H
  C194     1.0000 0.13150  0.10638  0.64823  Biso   1.000  C
  C195     1.0000 0.21580  0.12700  0.62551  Biso   1.000  C
  C196     1.0000 0.25340  0.17402  0.64870  Biso   1.000  C
  H131     1.0000 0.22660  0.19290  0.67840  Biso   1.000  H
  C197     1.0000 0.33180  0.19348  0.62760  Biso   1.000  C
  H132     1.0000 0.35780  0.22500  0.64390  Biso   1.000  H
  C198     1.0000 0.37030  0.16607  0.58290  Biso   1.000  C
  C199     1.0000 0.33350  0.11917  0.56100  Biso   1.000  C
  H133     1.0000 0.36030  0.10020  0.53130  Biso   1.000  H
  C200     1.0000 0.25680  0.09967  0.58240  Biso   1.000  C
  H134     1.0000 0.23280  0.06760  0.56730  Biso   1.000  H
  C201     1.0000 0.41660  0.46552  0.42369  Biso   1.000  C
  H135     1.0000 0.42860  0.49490  0.45100  Biso   1.000  H
  C202     1.0000 0.42520  0.42046  0.45929  Biso   1.000  C
  H136     1.0000 0.44360  0.41970  0.50940  Biso   1.000  H
  C203     1.0000 0.40630  0.37596  0.42016  Biso   1.000  C
  C204     1.0000 0.37910  0.38034  0.34634  Biso   1.000  C
  H137     1.0000 0.36430  0.35170  0.31760  Biso   1.000  H
  C205     1.0000 0.37380  0.42725  0.31490  Biso   1.000  C
  H138     1.0000 0.35630  0.42900  0.26490  Biso   1.000  H
  C206     1.0000 0.41640  0.32679  0.45726  Biso   1.000  C
  C207     1.0000 0.49470  0.31804  0.51912  Biso   1.000  C
  H139     1.0000 0.53980  0.34370  0.53770  Biso   1.000  H
  C208     1.0000 0.50690  0.27203  0.55350  Biso   1.000  C
  H140     1.0000 0.56070  0.26670  0.59430  Biso   1.000  H
  C209     1.0000 0.43930  0.23372  0.52750  Biso   1.000  C
  C210     1.0000 0.35980  0.24288  0.46830  Biso   1.000  C
  H141     1.0000 0.31300  0.21770  0.45130  Biso   1.000  H
  C211     1.0000 0.34800  0.28835  0.43340  Biso   1.000  C
  H142     1.0000 0.29330  0.29360  0.39320  Biso   1.000  H
  C212     1.0000 0.91690  0.93407  0.62600  Biso   1.000  C
  H143     1.0000 0.87670  0.94250  0.65400  Biso   1.000  H
  C213     1.0000 0.91350  0.88555  0.60130  Biso   1.000  C
  H144     1.0000 0.87160  0.86230  0.61260  Biso   1.000  H
  C214     1.0000 0.97242  0.87093  0.55926  Biso   1.000  C
  C215     1.0000 0.03290  0.90853  0.54571  Biso   1.000  C
  H145     1.0000 0.07420  0.90120  0.51800  Biso   1.000  H
  C216     1.0000 0.03210  0.95562  0.57251  Biso   1.000  C
  H146     1.0000 0.07390  0.97960  0.56270  Biso   1.000  H
  C217     1.0000 0.96920  0.81959  0.52876  Biso   1.000  C
  C218     1.0000 0.91950  0.77996  0.55035  Biso   1.000  C
  H147     1.0000 0.89040  0.78550  0.58640  Biso   1.000  H
  C219     1.0000 0.91290  0.73327  0.51950  Biso   1.000  C
  H148     1.0000 0.87970  0.70770  0.53520  Biso   1.000  H
  C220     1.0000 0.95460  0.72357  0.46581  Biso   1.000  C
  C221     1.0000 0.00390  0.76189  0.44352  Biso   1.000  C
  H149     1.0000 0.03220  0.75610  0.40710  Biso   1.000  H
  C222     1.0000 0.01130  0.80907  0.47513  Biso   1.000  C
  H150     1.0000 0.04560  0.83430  0.45980  Biso   1.000  H
  C223     1.0000 0.56300  0.58560  0.34800  Biso   1.000  C
  C224     1.0000 0.66490  0.60735  0.37072  Biso   1.000  C
  C225     1.0000 0.67610  0.65705  0.36430  Biso   1.000  C
  H151     1.0000 0.62020  0.67690  0.34560  Biso   1.000  H
  C226     1.0000 0.76650  0.67967  0.38400  Biso   1.000  C
  H152     1.0000 0.77110  0.71430  0.37860  Biso   1.000  H
  C227     1.0000 0.85030  0.65194  0.41158  Biso   1.000  C
  C228     1.0000 0.84180  0.60131  0.41958  Biso   1.000  C
  H153     1.0000 0.89760  0.58140  0.43840  Biso   1.000  H
  C229     1.0000 0.74790  0.57996  0.39890  Biso   1.000  C
  H154     1.0000 0.74210  0.54540  0.40480  Biso   1.000  H
  C230     1.0000 0.27170  0.58694  0.36570  Biso   1.000  C
  C231     1.0000 0.18535  0.61172  0.38156  Biso   1.000  C
  C232     1.0000 0.09120  0.60800  0.33362  Biso   1.000  C
  H155     1.0000 0.08140  0.59130  0.29000  Biso   1.000  H
  C233     1.0000 0.01140  0.62888  0.34986  Biso   1.000  C
  H156     1.0000 0.94840  0.62600  0.31730  Biso   1.000  H
  C234     1.0000 0.02479  0.65400  0.41434  Biso   1.000  C
  C235     1.0000 0.11940  0.65807  0.46182  Biso   1.000  C
  H157     1.0000 0.12960  0.67550  0.50490  Biso   1.000  H
  C236     1.0000 0.19870  0.63654  0.44579  Biso   1.000  C
  H158     1.0000 0.26150  0.63890  0.47870  Biso   1.000  H
  C237     1.0000 0.99100  0.02273  0.80834  Biso   1.000  C
  H159     1.0000 0.92310  0.01810  0.79600  Biso   1.000  H
  C238     1.0000 0.14550  0.02827  0.87130  Biso   1.000  C
  H160     1.0000 0.20390  0.02890  0.90930  Biso   1.000  H
  C239     1.0000 0.13540  0.03511  0.80160  Biso   1.000  C
  H161     1.0000 0.18730  0.04080  0.78280  Biso   1.000  H
  C240     1.0000 0.08520  0.97910  0.99138  Biso   1.000  C
  H162     1.0000 0.14210  0.96520  0.98520  Biso   1.000  H
  C241     1.0000 0.02540  0.00995  0.93921  Biso   1.000  C
  C242     1.0000 0.94030  0.03086  0.94730  Biso   1.000  C
  H163     1.0000 0.90060  0.05150  0.91150  Biso   1.000  H
  C243     1.0000 0.29050  0.54753  0.14988  Biso   1.000  C
  H164     1.0000 0.23320  0.56040  0.15680  Biso   1.000  H
  C244     1.0000 0.30670  0.54242  0.08603  Biso   1.000  C
  H165     1.0000 0.26310  0.55050  0.04110  Biso   1.000  H
  C245     1.0000 0.43490  0.51658  0.17114  Biso   1.000  C
  H166     1.0000 0.49710  0.50350  0.19470  Biso   1.000  H
  C246     1.0000 0.39920  0.49382  0.98131  Biso   1.000  C
  H167     1.0000 0.33110  0.48970  0.96880  Biso   1.000  H
  C247     1.0000 0.45070  0.51185  0.04877  Biso   1.000  C
  C248     1.0000 0.55160  0.51804  0.06733  Biso   1.000  C
  H168     1.0000 0.58640  0.53020  0.11270  Biso   1.000  H
  N25      1.0000 0.39214  0.46988  0.35194  Biso   1.000  N
  N26      1.0000 0.45054  0.18595  0.56189  Biso   1.000  N
  N27      1.0000 0.97417  0.96963  0.61248  Biso   1.000  N
  N28      1.0000 0.94460  0.67569  0.43259  Biso   1.000  N
  N29      1.0000 0.03844  0.03256  0.76165  Biso   1.000  N
  N30      1.0000 0.05183  0.02014  0.87550  Biso   1.000  N
  N31      1.0000 0.37178  0.53072  0.20375  Biso   1.000  N
  N32      1.0000 0.39952  0.52316  0.09948  Biso   1.000  N
  O25      1.0000 0.87097  0.08445  0.59295  Biso   1.000  O
  O26      1.0000 0.82360  0.03996  0.67101  Biso   1.000  O
  O27      1.0000 0.09969  0.06306  0.62433  Biso   1.000  O
  O28      1.0000 0.09607  0.13139  0.68796  Biso   1.000  O
  O29      1.0000 0.26378  0.57544  0.30080  Biso   1.000  O
  O30      1.0000 0.34826  0.57774  0.41596  Biso   1.000  O
  O31      1.0000 0.55030  0.54260  0.35936  Biso   1.000  O
  O32      1.0000 0.49080  0.60946  0.31700  Biso   1.000  O
  Zn7      1.0000 0.39333  0.54182  0.31070  Biso   1.000  Zn
  Zn8      1.0000 0.98604  0.04144  0.65439  Biso   1.000  Zn
