data_image0
_cell_length_a       13.73
_cell_length_b       14.03
_cell_length_c       14.1
_cell_angle_alpha    115.655
_cell_angle_beta     111.027
_cell_angle_gamma    100.397

_symmetry_space_group_name_H-M    "P 1"
_symmetry_int_tables_number       1

loop_
  _symmetry_equiv_pos_as_xyz
  'x, y, z'

loop_
  _atom_site_label
  _atom_site_occupancy
  _atom_site_fract_x
  _atom_site_fract_y
  _atom_site_fract_z
  _atom_site_thermal_displace_type
  _atom_site_B_iso_or_equiv
  _atom_site_type_symbol
  Mn1      1.0000 0.79480  0.61810  0.62120  Biso   1.000  Mn
  Si1      1.0000 0.52080  0.84940  0.11710  Biso   1.000  Si
  O1       1.0000 0.78330  0.77440  0.76930  Biso   1.000  O
  O2       1.0000 0.66510  0.59350  0.67480  Biso   1.000  O
  O3       1.0000 0.97900  0.70500  0.69490  Biso   1.000  O
  O4       1.0000 0.93280  0.63710  0.79700  Biso   1.000  O
  O5       1.0000 0.55990  0.62900  0.46790  Biso   1.000  O
  O6       1.0000 0.73350  0.65980  0.48970  Biso   1.000  O
  O7       1.0000 0.59200  0.41150  0.42900  Biso   1.000  O
  O8       1.0000 0.77310  0.44840  0.51950  Biso   1.000  O
  C1       1.0000 0.70400  0.69970  0.75800  Biso   1.000  C
  C2       1.0000 0.66430  0.73790  0.84990  Biso   1.000  C
  C3       1.0000 0.70720  0.85370  0.94010  Biso   1.000  C
  H1       1.0000 0.76320  0.90960  0.94530  Biso   1.000  H
  C4       1.0000 0.66820  0.88770  0.02280  Biso   1.000  C
  H2       1.0000 0.69750  0.96690  0.08450  Biso   1.000  H
  C5       1.0000 0.58630  0.80600  0.01520  Biso   1.000  C
  C6       1.0000 0.54340  0.69020  0.92490  Biso   1.000  C
  H3       1.0000 0.48740  0.63430  0.91970  Biso   1.000  H
  C7       1.0000 0.58240  0.65610  0.84230  Biso   1.000  C
  H4       1.0000 0.55310  0.57700  0.78060  Biso   1.000  H
  C8       1.0000 0.00510  0.68500  0.77900  Biso   1.000  C
  C9       1.0000 0.13030  0.72480  0.86130  Biso   1.000  C
  C10      1.0000 0.16500  0.71390  0.96030  Biso   1.000  C
  H5       1.0000 0.11000  0.68300  0.97660  Biso   1.000  H
  C11      1.0000 0.28010  0.74820  0.03550  Biso   1.000  C
  H6       1.0000 0.30370  0.74070  0.10310  Biso   1.000  H
  C12      1.0000 0.36050  0.79340  0.01160  Biso   1.000  C
  C13      1.0000 0.32580  0.80430  0.91260  Biso   1.000  C
  H7       1.0000 0.38080  0.83520  0.89640  Biso   1.000  H
  C14      1.0000 0.21080  0.77000  0.83750  Biso   1.000  C
  H8       1.0000 0.18710  0.77740  0.76980  Biso   1.000  H
  C15      1.0000 0.64000  0.66100  0.44800  Biso   1.000  C
  C16      1.0000 0.60560  0.70050  0.36150  Biso   1.000  C
  C17      1.0000 0.65050  0.68400  0.28430  Biso   1.000  C
  H9       1.0000 0.69990  0.64450  0.28320  Biso   1.000  H
  C18      1.0000 0.62310  0.72520  0.20890  Biso   1.000  C
  H10      1.0000 0.65380  0.71390  0.15610  Biso   1.000  H
  C19      1.0000 0.55080  0.78290  0.21060  Biso   1.000  C
  C20      1.0000 0.50590  0.79940  0.28770  Biso   1.000  C
  H11      1.0000 0.45640  0.83890  0.28890  Biso   1.000  H
  C21      1.0000 0.53330  0.75820  0.36320  Biso   1.000  C
  H12      1.0000 0.50260  0.76950  0.41590  Biso   1.000  H
  C22      1.0000 0.67090  0.37490  0.44700  Biso   1.000  C
  C23      1.0000 0.64030  0.24700  0.37240  Biso   1.000  C
  C24      1.0000 0.52540  0.17690  0.29220  Biso   1.000  C
  H13      1.0000 0.47050  0.20980  0.28860  Biso   1.000  H
  C25      1.0000 0.49080  0.05860  0.21710  Biso   1.000  C
  H14      1.0000 0.41220  0.01070  0.16230  Biso   1.000  H
  C26      1.0000 0.57110  0.01050  0.22230  Biso   1.000  C
  C27      1.0000 0.68610  0.08060  0.30260  Biso   1.000  C
  H15      1.0000 0.74100  0.04770  0.30610  Biso   1.000  H
  C28      1.0000 0.72070  0.19880  0.37760  Biso   1.000  C
  H16      1.0000 0.79920  0.24680  0.43240  Biso   1.000  H
  Mn2      1.0000 0.20520  0.38190  0.37880  Biso   1.000  Mn
  Si2      1.0000 0.47920  0.15060  0.88290  Biso   1.000  Si
  O9       1.0000 0.21670  0.22560  0.23070  Biso   1.000  O
  O10      1.0000 0.33490  0.40650  0.32520  Biso   1.000  O
  O11      1.0000 0.02100  0.29500  0.30510  Biso   1.000  O
  O12      1.0000 0.06720  0.36290  0.20300  Biso   1.000  O
  O13      1.0000 0.44010  0.37100  0.53210  Biso   1.000  O
  O14      1.0000 0.26650  0.34020  0.51030  Biso   1.000  O
  O15      1.0000 0.40800  0.58850  0.57100  Biso   1.000  O
  O16      1.0000 0.22690  0.55160  0.48050  Biso   1.000  O
  C29      1.0000 0.29600  0.30030  0.24200  Biso   1.000  C
  C30      1.0000 0.33570  0.26210  0.15010  Biso   1.000  C
  C31      1.0000 0.29280  0.14630  0.05990  Biso   1.000  C
  H17      1.0000 0.23680  0.09040  0.05470  Biso   1.000  H
  C32      1.0000 0.33180  0.11230  0.97720  Biso   1.000  C
  H18      1.0000 0.30250  0.03310  0.91550  Biso   1.000  H
  C33      1.0000 0.41370  0.19400  0.98480  Biso   1.000  C
  C34      1.0000 0.45660  0.30980  0.07510  Biso   1.000  C
  H19      1.0000 0.51260  0.36570  0.08030  Biso   1.000  H
  C35      1.0000 0.41760  0.34390  0.15770  Biso   1.000  C
  H20      1.0000 0.44690  0.42300  0.21940  Biso   1.000  H
  C36      1.0000 0.99490  0.31500  0.22100  Biso   1.000  C
  C37      1.0000 0.86970  0.27520  0.13870  Biso   1.000  C
  C38      1.0000 0.83500  0.28610  0.03970  Biso   1.000  C
  H21      1.0000 0.89000  0.31700  0.02340  Biso   1.000  H
  C39      1.0000 0.71990  0.25180  0.96450  Biso   1.000  C
  H22      1.0000 0.69630  0.25930  0.89690  Biso   1.000  H
  C40      1.0000 0.63950  0.20660  0.98840  Biso   1.000  C
  C41      1.0000 0.67420  0.19570  0.08740  Biso   1.000  C
  H23      1.0000 0.61920  0.16480  0.10360  Biso   1.000  H
  C42      1.0000 0.78920  0.23000  0.16250  Biso   1.000  C
  H24      1.0000 0.81290  0.22260  0.23020  Biso   1.000  H
  C43      1.0000 0.36000  0.33900  0.55200  Biso   1.000  C
  C44      1.0000 0.39440  0.29950  0.63850  Biso   1.000  C
  C45      1.0000 0.34950  0.31600  0.71570  Biso   1.000  C
  H25      1.0000 0.30010  0.35550  0.71680  Biso   1.000  H
  C46      1.0000 0.37690  0.27480  0.79110  Biso   1.000  C
  H26      1.0000 0.34620  0.28610  0.84390  Biso   1.000  H
  C47      1.0000 0.44920  0.21710  0.78940  Biso   1.000  C
  C48      1.0000 0.49410  0.20060  0.71230  Biso   1.000  C
  H27      1.0000 0.54360  0.16110  0.71110  Biso   1.000  H
  C49      1.0000 0.46670  0.24180  0.63680  Biso   1.000  C
  H28      1.0000 0.49740  0.23050  0.58410  Biso   1.000  H
  C50      1.0000 0.32910  0.62510  0.55300  Biso   1.000  C
  C51      1.0000 0.35970  0.75300  0.62760  Biso   1.000  C
  C52      1.0000 0.47460  0.82310  0.70780  Biso   1.000  C
  H29      1.0000 0.52950  0.79020  0.71140  Biso   1.000  H
  C53      1.0000 0.50920  0.94140  0.78290  Biso   1.000  C
  H30      1.0000 0.58780  0.98930  0.83770  Biso   1.000  H
  C54      1.0000 0.42890  0.98950  0.77770  Biso   1.000  C
  C55      1.0000 0.31390  0.91940  0.69740  Biso   1.000  C
  H31      1.0000 0.25900  0.95230  0.69390  Biso   1.000  H
  C56      1.0000 0.27930  0.80120  0.62240  Biso   1.000  C
  H32      1.0000 0.20080  0.75320  0.56760  Biso   1.000  H
  Mn3      1.0000 0.50000  0.50000  0.50000  Biso   1.000  Mn
