data_image0
_cell_length_a       13.736
_cell_length_b       22.64
_cell_length_c       23.01
_cell_angle_alpha    65.026
_cell_angle_beta     75.118
_cell_angle_gamma    87.591

_symmetry_space_group_name_H-M    "P 1"
_symmetry_int_tables_number       1

loop_
  _symmetry_equiv_pos_as_xyz
  'x, y, z'

loop_
  _atom_site_label
  _atom_site_occupancy
  _atom_site_fract_x
  _atom_site_fract_y
  _atom_site_fract_z
  _atom_site_thermal_displace_type
  _atom_site_B_iso_or_equiv
  _atom_site_type_symbol
  Mn1      1.0000 0.04356  0.75145  0.34270  Biso   1.000  Mn
  O1       1.0000 0.00680  0.76600  0.42640  Biso   1.000  O
  O2       1.0000 0.08960  0.84450  0.27420  Biso   1.000  O
  O3       1.0000 0.90180  0.73490  0.33120  Biso   1.000  O
  O4       1.0000 0.95160  0.64610  0.39640  Biso   1.000  O
  O5       1.0000 0.17070  0.70570  0.35990  Biso   1.000  O
  C1       1.0000 0.95090  0.80920  0.43200  Biso   1.000  C
  C2       1.0000 0.03070  0.88160  0.24470  Biso   1.000  C
  Mn2      1.0000 0.82175  0.82402  0.33290  Biso   1.000  Mn
  O6       1.0000 0.89760  0.84080  0.39370  Biso   1.000  O
  C3       1.0000 0.95300  0.82730  0.48790  Biso   1.000  C
  O7       1.0000 0.94000  0.87310  0.24970  Biso   1.000  O
  C4       1.0000 0.08300  0.95010  0.19460  Biso   1.000  C
  O8       1.0000 0.71080  0.76350  0.41400  Biso   1.000  O
  O9       1.0000 0.73900  0.91470  0.32760  Biso   1.000  O
  O10      1.0000 0.73120  0.82280  0.27070  Biso   1.000  O
  C5       1.0000 0.90760  0.88260  0.49020  Biso   1.000  C
  C6       1.0000 0.99220  0.78600  0.53970  Biso   1.000  C
  C7       1.0000 0.04080  0.98440  0.14200  Biso   1.000  C
  C8       1.0000 0.16360  0.97890  0.20200  Biso   1.000  C
  C9       1.0000 0.62190  0.75110  0.43510  Biso   1.000  C
  Mn3      1.0000 0.58951  0.88790  0.33595  Biso   1.000  Mn
  H1       1.0000 0.88080  0.91080  0.45480  Biso   1.000  H
  C10      1.0000 0.90140  0.89650  0.54430  Biso   1.000  C
  C11      1.0000 0.98600  0.80000  0.59380  Biso   1.000  C
  H2       1.0000 0.02330  0.74820  0.53820  Biso   1.000  H
  H3       1.0000 0.98580  0.96470  0.13700  Biso   1.000  H
  C12      1.0000 0.07910  0.04760  0.09690  Biso   1.000  C
  C13      1.0000 0.20180  0.04220  0.15690  Biso   1.000  C
  H4       1.0000 0.19240  0.95550  0.23790  Biso   1.000  H
  O11      1.0000 0.55620  0.79610  0.41260  Biso   1.000  O
  C14      1.0000 0.57250  0.69030  0.48820  Biso   1.000  C
  O12      1.0000 0.43430  0.90740  0.35900  Biso   1.000  O
  O13      1.0000 0.53320  0.99640  0.28590  Biso   1.000  O
  O14      1.0000 0.61810  0.89070  0.24410  Biso   1.000  O
  H5       1.0000 0.87030  0.93430  0.54580  Biso   1.000  H
  C15      1.0000 0.94060  0.85520  0.59610  Biso   1.000  C
  H6       1.0000 0.01280  0.77170  0.62920  Biso   1.000  H
  H7       1.0000 0.05020  0.07110  0.06100  Biso   1.000  H
  C16      1.0000 0.15960  0.07650  0.10430  Biso   1.000  C
  H8       1.0000 0.25690  0.06190  0.16190  Biso   1.000  H
  C17      1.0000 0.63450  0.63950  0.50850  Biso   1.000  C
  C18      1.0000 0.46870  0.67970  0.51630  Biso   1.000  C
  C19      1.0000 0.44790  0.96500  0.32300  Biso   1.000  C
  Si1      1.0000 0.92440  0.87244  0.67140  Biso   1.000  Si
  Si2      1.0000 0.20900  0.16210  0.03870  Biso   1.000  Si
  H9       1.0000 0.70540  0.64670  0.48930  Biso   1.000  H
  C20      1.0000 0.59260  0.57810  0.55690  Biso   1.000  C
  C21      1.0000 0.42690  0.61830  0.56470  Biso   1.000  C
  H10      1.0000 0.42640  0.71440  0.50250  Biso   1.000  H
  C22      1.0000 0.35770  0.00680  0.31900  Biso   1.000  C
  C23      1.0000 0.81100  0.92100  0.67940  Biso   1.000  C
  C24      1.0000 0.03670  0.92280  0.66390  Biso   1.000  C
  C25      1.0000 0.90470  0.79130  0.74490  Biso   1.000  C
  C26      1.0000 0.10950  0.22210  0.03710  Biso   1.000  C
  C27      1.0000 0.24140  0.15500  0.95620  Biso   1.000  C
  C28      1.0000 0.32570  0.18940  0.05170  Biso   1.000  C
  H11      1.0000 0.63500  0.54340  0.57080  Biso   1.000  H
  C29      1.0000 0.48880  0.56760  0.58500  Biso   1.000  C
  H12      1.0000 0.35600  0.61110  0.58390  Biso   1.000  H
  C30      1.0000 0.26280  0.97550  0.35660  Biso   1.000  C
  C31      1.0000 0.36830  0.07420  0.28220  Biso   1.000  C
  C32      1.0000 0.82160  0.98840  0.64260  Biso   1.000  C
  C33      1.0000 0.71600  0.88970  0.71700  Biso   1.000  C
  C34      1.0000 0.02680  0.95340  0.70620  Biso   1.000  C
  C35      1.0000 0.12490  0.93430  0.61350  Biso   1.000  C
  C36      1.0000 0.82840  0.74640  0.75570  Biso   1.000  C
  C37      1.0000 0.97190  0.77320  0.78440  Biso   1.000  C
  C38      1.0000 0.14380  0.28780  0.00330  Biso   1.000  C
  C39      1.0000 0.00650  0.20420  0.06050  Biso   1.000  C
  C40      1.0000 0.19530  0.19450  0.90740  Biso   1.000  C
  C41      1.0000 0.30900  0.11130  0.94450  Biso   1.000  C
  C42      1.0000 0.32010  0.20150  0.10690  Biso   1.000  C
  C43      1.0000 0.41770  0.19910  0.00480  Biso   1.000  C
  Si3      1.0000 0.43920  0.48496  0.65610  Biso   1.000  Si
  H13      1.0000 0.25550  0.92940  0.38170  Biso   1.000  H
  H14      1.0000 0.43320  0.09570  0.25650  Biso   1.000  H
  H15      1.0000 0.88640  0.00980  0.61690  Biso   1.000  H
  H16      1.0000 0.70880  0.84360  0.74210  Biso   1.000  H
  C44      1.0000 0.10520  0.99550  0.69790  Biso   1.000  C
  H17      1.0000 0.96650  0.94550  0.74060  Biso   1.000  H
  H18      1.0000 0.13170  0.91350  0.58470  Biso   1.000  H
  C45      1.0000 0.20330  0.97640  0.60530  Biso   1.000  C
  C46      1.0000 0.81930  0.68360  0.80600  Biso   1.000  C
  H19      1.0000 0.78250  0.75880  0.72870  Biso   1.000  H
  H20      1.0000 0.02410  0.80380  0.77700  Biso   1.000  H
  C47      1.0000 0.96280  0.71030  0.83470  Biso   1.000  C
  C48      1.0000 0.07490  0.33550  0.99300  Biso   1.000  C
  H21      1.0000 0.21420  0.30010  0.98730  Biso   1.000  H
  H22      1.0000 0.98310  0.15930  0.08350  Biso   1.000  H
  C49      1.0000 0.93760  0.25190  0.05020  Biso   1.000  C
  C50      1.0000 0.21670  0.19030  0.84690  Biso   1.000  C
  H23      1.0000 0.14910  0.22430  0.91550  Biso   1.000  H
  H24      1.0000 0.34060  0.08430  0.97790  Biso   1.000  H
  C51      1.0000 0.33050  0.10720  0.88400  Biso   1.000  C
  C52      1.0000 0.40650  0.22330  0.11510  Biso   1.000  C
  H25      1.0000 0.25720  0.19480  0.13890  Biso   1.000  H
  H26      1.0000 0.42150  0.19080  0.96710  Biso   1.000  H
  C53      1.0000 0.50410  0.22090  0.01310  Biso   1.000  C
  C54      1.0000 0.37920  0.49380  0.73380  Biso   1.000  C
  C55      1.0000 0.34510  0.43880  0.63960  Biso   1.000  C
  C56      1.0000 0.55270  0.43420  0.66580  Biso   1.000  C
  C57      1.0000 0.19350  0.00700  0.64750  Biso   1.000  C
  H27      1.0000 0.09850  0.01630  0.72680  Biso   1.000  H
  H28      1.0000 0.26360  0.98430  0.57080  Biso   1.000  H
  C58      1.0000 0.88660  0.66550  0.84560  Biso   1.000  C
  H29      1.0000 0.76720  0.65290  0.81340  Biso   1.000  H
  H30      1.0000 0.00880  0.69800  0.86170  Biso   1.000  H
  C59      1.0000 0.97180  0.31760  0.01640  Biso   1.000  C
  H31      1.0000 0.09830  0.38040  0.97000  Biso   1.000  H
  H32      1.0000 0.86710  0.23960  0.06620  Biso   1.000  H
  C60      1.0000 0.28440  0.14670  0.83520  Biso   1.000  C
  H33      1.0000 0.18520  0.21730  0.81360  Biso   1.000  H
  H34      1.0000 0.37670  0.07730  0.87600  Biso   1.000  H
  C61      1.0000 0.49850  0.23300  0.06820  Biso   1.000  C
  H35      1.0000 0.40260  0.23150  0.15280  Biso   1.000  H
  H36      1.0000 0.56690  0.22760  0.98100  Biso   1.000  H
  C62      1.0000 0.42560  0.53360  0.75270  Biso   1.000  C
  C63      1.0000 0.28570  0.46090  0.77260  Biso   1.000  C
  C64      1.0000 0.33490  0.37110  0.67430  Biso   1.000  C
  C65      1.0000 0.27800  0.47060  0.60230  Biso   1.000  C
  C66      1.0000 0.59270  0.41170  0.61770  Biso   1.000  C
  C67      1.0000 0.59380  0.41790  0.71940  Biso   1.000  C
  C68      1.0000 0.27750  0.05380  0.63760  Biso   1.000  C
  C69      1.0000 0.87560  0.59620  0.89920  Biso   1.000  C
  C70      1.0000 0.89390  0.36960  0.00370  Biso   1.000  C
  C71      1.0000 0.31320  0.14400  0.77210  Biso   1.000  C
  C72      1.0000 0.59420  0.25680  0.07540  Biso   1.000  C
  C73      1.0000 0.37870  0.54050  0.81050  Biso   1.000  C
  H37      1.0000 0.48950  0.55620  0.72620  Biso   1.000  H
  H38      1.0000 0.25390  0.43370  0.75970  Biso   1.000  H
  C74      1.0000 0.23870  0.46770  0.83040  Biso   1.000  C
  C75      1.0000 0.25770  0.33530  0.67180  Biso   1.000  C
  H39      1.0000 0.38080  0.34940  0.69980  Biso   1.000  H
  H40      1.0000 0.28500  0.51680  0.57850  Biso   1.000  H
  C76      1.0000 0.20080  0.43470  0.59980  Biso   1.000  C
  C77      1.0000 0.67400  0.37280  0.62310  Biso   1.000  C
  H41      1.0000 0.56460  0.42280  0.58110  Biso   1.000  H
  H42      1.0000 0.56650  0.43330  0.75230  Biso   1.000  H
  C78      1.0000 0.67510  0.37900  0.72490  Biso   1.000  C
  O15      1.0000 0.35750  0.06010  0.59730  Biso   1.000  O
  O16      1.0000 0.95870  0.57890  0.91910  Biso   1.000  O
  O17      1.0000 0.80390  0.56010  0.91360  Biso   1.000  O
  O18      1.0000 0.92750  0.42820  0.98080  Biso   1.000  O
  O19      1.0000 0.80520  0.35180  0.01850  Biso   1.000  O
  O20      1.0000 0.66850  0.27650  0.02280  Biso   1.000  O
  O21      1.0000 0.58950  0.26250  0.12700  Biso   1.000  O
  C79      1.0000 0.28520  0.50750  0.84930  Biso   1.000  C
  H43      1.0000 0.41040  0.56760  0.82350  Biso   1.000  H
  H44      1.0000 0.17480  0.44520  0.85690  Biso   1.000  H
  C80      1.0000 0.19060  0.36710  0.63450  Biso   1.000  C
  H45      1.0000 0.25070  0.28900  0.69560  Biso   1.000  H
  H46      1.0000 0.15500  0.45650  0.57430  Biso   1.000  H
  C81      1.0000 0.71510  0.35640  0.67670  Biso   1.000  C
  H47      1.0000 0.70130  0.35730  0.59020  Biso   1.000  H
  H48      1.0000 0.70320  0.36780  0.76150  Biso   1.000  H
  Mn4      1.0000 0.77215  0.45925  0.96885  Biso   1.000  Mn
  C82      1.0000 0.22710  0.51530  0.91090  Biso   1.000  C
  C83      1.0000 0.10530  0.32310  0.63710  Biso   1.000  C
  C84      1.0000 0.80360  0.31390  0.68430  Biso   1.000  C
  O22      1.0000 0.72190  0.46010  0.06240  Biso   1.000  O
  O23      1.0000 0.86000  0.50280  0.06490  Biso   1.000  O
  O24      1.0000 0.84560  0.30180  0.72690  Biso   1.000  O
  Mn5      1.0000 0.95644  0.24855  0.65730  Biso   1.000  Mn
  O25      1.0000 0.99320  0.23400  0.57360  Biso   1.000  O
  O26      1.0000 0.91040  0.15550  0.72580  Biso   1.000  O
  O27      1.0000 0.09820  0.26510  0.66880  Biso   1.000  O
  O28      1.0000 0.04840  0.35390  0.60360  Biso   1.000  O
  O29      1.0000 0.82930  0.29430  0.64010  Biso   1.000  O
  C85      1.0000 0.04910  0.19080  0.56800  Biso   1.000  C
  C86      1.0000 0.96930  0.11840  0.75530  Biso   1.000  C
  Mn6      1.0000 0.17825  0.17598  0.66710  Biso   1.000  Mn
  O30      1.0000 0.10240  0.15920  0.60630  Biso   1.000  O
  C87      1.0000 0.04700  0.17270  0.51210  Biso   1.000  C
  O31      1.0000 0.06000  0.12690  0.75030  Biso   1.000  O
  C88      1.0000 0.91700  0.04990  0.80540  Biso   1.000  C
  O32      1.0000 0.28920  0.23650  0.58600  Biso   1.000  O
  O33      1.0000 0.26100  0.08530  0.67240  Biso   1.000  O
  O34      1.0000 0.26880  0.17720  0.72930  Biso   1.000  O
  C89      1.0000 0.09240  0.11740  0.50980  Biso   1.000  C
  C90      1.0000 0.00780  0.21400  0.46030  Biso   1.000  C
  C91      1.0000 0.95920  0.01560  0.85800  Biso   1.000  C
  C92      1.0000 0.83640  0.02110  0.79800  Biso   1.000  C
  C93      1.0000 0.37810  0.24890  0.56490  Biso   1.000  C
  Mn7      1.0000 0.41049  0.11210  0.66405  Biso   1.000  Mn
  H49      1.0000 0.11920  0.08920  0.54520  Biso   1.000  H
  C94      1.0000 0.09860  0.10350  0.45570  Biso   1.000  C
  C95      1.0000 0.01400  0.20000  0.40620  Biso   1.000  C
  H50      1.0000 0.97670  0.25180  0.46180  Biso   1.000  H
  H51      1.0000 0.01420  0.03530  0.86300  Biso   1.000  H
  C96      1.0000 0.92090  0.95240  0.90310  Biso   1.000  C
  C97      1.0000 0.79820  0.95780  0.84310  Biso   1.000  C
  H52      1.0000 0.80760  0.04450  0.76210  Biso   1.000  H
  O35      1.0000 0.44380  0.20390  0.58740  Biso   1.000  O
  C98      1.0000 0.42750  0.30970  0.51180  Biso   1.000  C
  O36      1.0000 0.56570  0.09260  0.64100  Biso   1.000  O
  O37      1.0000 0.46680  0.00360  0.71410  Biso   1.000  O
  O38      1.0000 0.38190  0.10930  0.75590  Biso   1.000  O
  H53      1.0000 0.12970  0.06570  0.45420  Biso   1.000  H
  C99      1.0000 0.05940  0.14480  0.40390  Biso   1.000  C
  H54      1.0000 0.98720  0.22830  0.37080  Biso   1.000  H
  H55      1.0000 0.94980  0.92890  0.93900  Biso   1.000  H
  C100     1.0000 0.84040  0.92350  0.89570  Biso   1.000  C
  H56      1.0000 0.74310  0.93810  0.83810  Biso   1.000  H
  C101     1.0000 0.36550  0.36050  0.49150  Biso   1.000  C
  C102     1.0000 0.53130  0.32030  0.48370  Biso   1.000  C
  C103     1.0000 0.55210  0.03500  0.67700  Biso   1.000  C
  Si4      1.0000 0.07560  0.12756  0.32860  Biso   1.000  Si
  Si5      1.0000 0.79100  0.83790  0.96130  Biso   1.000  Si
  H57      1.0000 0.29460  0.35330  0.51070  Biso   1.000  H
  C104     1.0000 0.40740  0.42190  0.44310  Biso   1.000  C
  C105     1.0000 0.57310  0.38170  0.43530  Biso   1.000  C
  H58      1.0000 0.57360  0.28560  0.49750  Biso   1.000  H
  C106     1.0000 0.64230  0.99320  0.68100  Biso   1.000  C
  C107     1.0000 0.18900  0.07900  0.32060  Biso   1.000  C
  C108     1.0000 0.96330  0.07720  0.33610  Biso   1.000  C
  C109     1.0000 0.09530  0.20870  0.25510  Biso   1.000  C
  C110     1.0000 0.89050  0.77790  0.96290  Biso   1.000  C
  C111     1.0000 0.75860  0.84500  0.04380  Biso   1.000  C
  C112     1.0000 0.67430  0.81060  0.94830  Biso   1.000  C
  H59      1.0000 0.36500  0.45660  0.42920  Biso   1.000  H
  C113     1.0000 0.51120  0.43240  0.41500  Biso   1.000  C
  H60      1.0000 0.64400  0.38890  0.41610  Biso   1.000  H
  C114     1.0000 0.73720  0.02450  0.64340  Biso   1.000  C
  C115     1.0000 0.63170  0.92580  0.71780  Biso   1.000  C
  C116     1.0000 0.17840  0.01160  0.35740  Biso   1.000  C
  C117     1.0000 0.28400  0.11030  0.28300  Biso   1.000  C
  C118     1.0000 0.97320  0.04660  0.29380  Biso   1.000  C
  C119     1.0000 0.87510  0.06570  0.38650  Biso   1.000  C
  C120     1.0000 0.17160  0.25360  0.24430  Biso   1.000  C
  C121     1.0000 0.02810  0.22680  0.21560  Biso   1.000  C
  C122     1.0000 0.85620  0.71220  0.99670  Biso   1.000  C
  C123     1.0000 0.99350  0.79580  0.93950  Biso   1.000  C
  C124     1.0000 0.80470  0.80550  0.09260  Biso   1.000  C
  C125     1.0000 0.69100  0.88870  0.05550  Biso   1.000  C
  C126     1.0000 0.67990  0.79850  0.89310  Biso   1.000  C
  C127     1.0000 0.58230  0.80090  0.99520  Biso   1.000  C
  Si6      1.0000 0.56080  0.51504  0.34390  Biso   1.000  Si
  H61      1.0000 0.74450  0.07060  0.61830  Biso   1.000  H
  H62      1.0000 0.56680  0.90430  0.74350  Biso   1.000  H
  H63      1.0000 0.11360  0.99020  0.38310  Biso   1.000  H
  H64      1.0000 0.29120  0.15640  0.25790  Biso   1.000  H
  C128     1.0000 0.89480  0.00450  0.30210  Biso   1.000  C
  H65      1.0000 0.03350  0.05450  0.25940  Biso   1.000  H
  H66      1.0000 0.86830  0.08650  0.41530  Biso   1.000  H
  C129     1.0000 0.79670  0.02360  0.39470  Biso   1.000  C
  C130     1.0000 0.18070  0.31640  0.19400  Biso   1.000  C
  H67      1.0000 0.21750  0.24120  0.27130  Biso   1.000  H
  H68      1.0000 0.97590  0.19620  0.22300  Biso   1.000  H
  C131     1.0000 0.03720  0.28970  0.16530  Biso   1.000  C
  C132     1.0000 0.92510  0.66450  0.00700  Biso   1.000  C
  H69      1.0000 0.78580  0.69990  0.01270  Biso   1.000  H
  H70      1.0000 0.01690  0.84070  0.91650  Biso   1.000  H
  C133     1.0000 0.06240  0.74810  0.94980  Biso   1.000  C
  C134     1.0000 0.78330  0.80970  0.15310  Biso   1.000  C
  H71      1.0000 0.85090  0.77570  0.08450  Biso   1.000  H
  H72      1.0000 0.65940  0.91570  0.02210  Biso   1.000  H
  C135     1.0000 0.66950  0.89280  0.11600  Biso   1.000  C
  C136     1.0000 0.59350  0.77670  0.88490  Biso   1.000  C
  H73      1.0000 0.74280  0.80520  0.86110  Biso   1.000  H
  H74      1.0000 0.57850  0.80920  0.03290  Biso   1.000  H
  C137     1.0000 0.49590  0.77910  0.98690  Biso   1.000  C
  C138     1.0000 0.62080  0.50620  0.26620  Biso   1.000  C
  C139     1.0000 0.65490  0.56120  0.36040  Biso   1.000  C
  C140     1.0000 0.44730  0.56580  0.33420  Biso   1.000  C
  C141     1.0000 0.80650  0.99300  0.35250  Biso   1.000  C
  H75      1.0000 0.90150  0.98370  0.27320  Biso   1.000  H
  H76      1.0000 0.73640  0.01570  0.42920  Biso   1.000  H
  C142     1.0000 0.11340  0.33450  0.15440  Biso   1.000  C
  H77      1.0000 0.23280  0.34710  0.18660  Biso   1.000  H
  H78      1.0000 0.99120  0.30200  0.13830  Biso   1.000  H
  C143     1.0000 0.02820  0.68240  0.98360  Biso   1.000  C
  H79      1.0000 0.90170  0.61960  0.03000  Biso   1.000  H
  H80      1.0000 0.13290  0.76040  0.93380  Biso   1.000  H
  C144     1.0000 0.71560  0.85330  0.16480  Biso   1.000  C
  H81      1.0000 0.81480  0.78270  0.18640  Biso   1.000  H
  H82      1.0000 0.62330  0.92270  0.12400  Biso   1.000  H
  C145     1.0000 0.50150  0.76700  0.93180  Biso   1.000  C
  H83      1.0000 0.59740  0.76850  0.84720  Biso   1.000  H
  H84      1.0000 0.43310  0.77240  0.01900  Biso   1.000  H
  C146     1.0000 0.57440  0.46640  0.24730  Biso   1.000  C
  C147     1.0000 0.71430  0.53910  0.22740  Biso   1.000  C
  C148     1.0000 0.66510  0.62890  0.32570  Biso   1.000  C
  C149     1.0000 0.72200  0.52940  0.39770  Biso   1.000  C
  C150     1.0000 0.40730  0.58830  0.38230  Biso   1.000  C
  C151     1.0000 0.40620  0.58210  0.28060  Biso   1.000  C
  C152     1.0000 0.72250  0.94620  0.36240  Biso   1.000  C
  C153     1.0000 0.12440  0.40380  0.10080  Biso   1.000  C
  C154     1.0000 0.10610  0.63040  0.99630  Biso   1.000  C
  C155     1.0000 0.68680  0.85600  0.22790  Biso   1.000  C
  C156     1.0000 0.40580  0.74320  0.92460  Biso   1.000  C
  C157     1.0000 0.62130  0.45950  0.18950  Biso   1.000  C
  H85      1.0000 0.51050  0.44380  0.27380  Biso   1.000  H
  H86      1.0000 0.74610  0.56630  0.24030  Biso   1.000  H
  C158     1.0000 0.76130  0.53230  0.16960  Biso   1.000  C
  C159     1.0000 0.74230  0.66470  0.32820  Biso   1.000  C
  H87      1.0000 0.61920  0.65060  0.30020  Biso   1.000  H
  H88      1.0000 0.71500  0.48320  0.42150  Biso   1.000  H
  C160     1.0000 0.79920  0.56530  0.40020  Biso   1.000  C
  C161     1.0000 0.32600  0.62720  0.37690  Biso   1.000  C
  H89      1.0000 0.43540  0.57720  0.41890  Biso   1.000  H
  H90      1.0000 0.43350  0.56670  0.24770  Biso   1.000  H
  C162     1.0000 0.32490  0.62100  0.27510  Biso   1.000  C
  O39      1.0000 0.64250  0.93990  0.40270  Biso   1.000  O
  O40      1.0000 0.04130  0.42110  0.08090  Biso   1.000  O
  O41      1.0000 0.19610  0.43990  0.08640  Biso   1.000  O
  O42      1.0000 0.07250  0.57180  0.01920  Biso   1.000  O
  O43      1.0000 0.19480  0.64820  0.98150  Biso   1.000  O
  O44      1.0000 0.33150  0.72350  0.97720  Biso   1.000  O
  O45      1.0000 0.41050  0.73750  0.87300  Biso   1.000  O
  C163     1.0000 0.71480  0.49250  0.15070  Biso   1.000  C
  H91      1.0000 0.58960  0.43240  0.17650  Biso   1.000  H
  H92      1.0000 0.82520  0.55480  0.14310  Biso   1.000  H
  C164     1.0000 0.80940  0.63290  0.36550  Biso   1.000  C
  H93      1.0000 0.74930  0.71100  0.30440  Biso   1.000  H
  H94      1.0000 0.84500  0.54350  0.42570  Biso   1.000  H
  C165     1.0000 0.28490  0.64360  0.32330  Biso   1.000  C
  H95      1.0000 0.29870  0.64270  0.40980  Biso   1.000  H
  H96      1.0000 0.29680  0.63220  0.23850  Biso   1.000  H
  Mn8      1.0000 0.22785  0.54075  0.03115  Biso   1.000  Mn
  C166     1.0000 0.77290  0.48470  0.08910  Biso   1.000  C
  C167     1.0000 0.89470  0.67690  0.36290  Biso   1.000  C
  C168     1.0000 0.19640  0.68610  0.31570  Biso   1.000  C
  O46      1.0000 0.27810  0.53990  0.93760  Biso   1.000  O
  O47      1.0000 0.14000  0.49720  0.93510  Biso   1.000  O
  O48      1.0000 0.15440  0.69820  0.27310  Biso   1.000  O
  Mn9      1.0000 0.00000  0.50000  0.00000  Biso   1.000  Mn
