data_IQUNAJ_clean
_audit_creation_date              2014-07-02
_audit_creation_method            'Materials Studio'
_symmetry_space_group_name_H-M    'P1'
_symmetry_Int_Tables_number       1
_symmetry_cell_setting            triclinic
loop_
_symmetry_equiv_pos_as_xyz
  x,y,z
_cell_length_a                    8.9040
_cell_length_b                    9.2466
_cell_length_c                    9.2466
_cell_angle_alpha                 76.5959
_cell_angle_beta                  61.2183
_cell_angle_gamma                 61.2183
loop_
_atom_site_label
_atom_site_type_symbol
_atom_site_fract_x
_atom_site_fract_y
_atom_site_fract_z
_atom_site_U_iso_or_equiv
_atom_site_adp_type
_atom_site_occupancy
K1     K     0.87500   0.25000   0.25000   0.01267  Uiso   1.00
K2     K     0.12500   0.75000   0.75000   0.01267  Uiso   1.00
Y1     Y     0.62500   0.75000   0.75000   0.01267  Uiso   1.00
Y2     Y     0.37500   0.25000   0.25000   0.01267  Uiso   1.00
C1     C     0.57850   0.47850   0.02550   0.01267  Uiso   1.00
C2     C     0.58250   0.02150   0.47450   0.01267  Uiso   1.00
C3     C     0.60400   0.97450   0.97850   0.01267  Uiso   1.00
C4     C     0.05700   0.52550   0.52150   0.01267  Uiso   1.00
C5     C     0.42150   0.52150   0.97450   0.01267  Uiso   1.00
C6     C     0.41750   0.97850   0.52550   0.01267  Uiso   1.00
C7     C     0.39600   0.02550   0.02150   0.01267  Uiso   1.00
C8     C     0.94300   0.47450   0.47850   0.01267  Uiso   1.00
O1     O     0.69190   0.54360   0.94060   0.01267  Uiso   1.00
O2     O     0.60870   0.35340   0.11800   0.01267  Uiso   1.00
O3     O     0.67610   0.95640   0.55940   0.01267  Uiso   1.00
O4     O     0.58010   0.14660   0.38200   0.01267  Uiso   1.00
O5     O     0.63250   0.05940   0.04360   0.01267  Uiso   1.00
O6     O     0.72670   0.88200   0.85340   0.01267  Uiso   1.00
O7     O     0.23550   0.44060   0.45640   0.01267  Uiso   1.00
O8     O     0.96210   0.61800   0.64660   0.01267  Uiso   1.00
O9     O     0.30810   0.45640   0.05940   0.01267  Uiso   1.00
O10    O     0.39130   0.64660   0.88200   0.01267  Uiso   1.00
O11    O     0.32390   0.04360   0.44060   0.01267  Uiso   1.00
O12    O     0.41990   0.85340   0.61800   0.01267  Uiso   1.00
O13    O     0.36750   0.94060   0.95640   0.01267  Uiso   1.00
O14    O     0.27330   0.11800   0.14660   0.01267  Uiso   1.00
O15    O     0.76450   0.55940   0.54360   0.01267  Uiso   1.00
O16    O     0.03790   0.38200   0.35340   0.01267  Uiso   1.00
