data_IQUNAJ01_clean
_audit_creation_date              2014-07-02
_audit_creation_method            'Materials Studio'
_symmetry_space_group_name_H-M    'P1'
_symmetry_Int_Tables_number       1
_symmetry_cell_setting            triclinic
loop_
_symmetry_equiv_pos_as_xyz
  x,y,z
_cell_length_a                    8.9206
_cell_length_b                    9.2582
_cell_length_c                    9.2582
_cell_angle_alpha                 76.5792
_cell_angle_beta                  61.1990
_cell_angle_gamma                 61.1990
loop_
_atom_site_label
_atom_site_type_symbol
_atom_site_fract_x
_atom_site_fract_y
_atom_site_fract_z
_atom_site_U_iso_or_equiv
_atom_site_adp_type
_atom_site_occupancy
K1     K     0.62500   0.75000   0.75000   0.01267  Uiso   1.00
K2     K     0.37500   0.25000   0.25000   0.01267  Uiso   1.00
Y1     Y     0.12500   0.75000   0.75000   0.01267  Uiso   1.00
Y2     Y     0.87500   0.25000   0.25000   0.01267  Uiso   1.00
C1     C     0.55630   0.52150   0.52570   0.01267  Uiso   1.00
C2     C     0.10350   0.97850   0.97430   0.01267  Uiso   1.00
C3     C     0.08200   0.47430   0.02150   0.01267  Uiso   1.00
C4     C     0.07780   0.02570   0.47850   0.01267  Uiso   1.00
C5     C     0.44370   0.47850   0.47430   0.01267  Uiso   1.00
C6     C     0.89650   0.02150   0.02570   0.01267  Uiso   1.00
C7     C     0.91800   0.52570   0.97850   0.01267  Uiso   1.00
C8     C     0.92220   0.97430   0.52150   0.01267  Uiso   1.00
O1     O     0.46300   0.62710   0.63650   0.01267  Uiso   1.00
O2     O     0.18040   0.95150   0.55510   0.01267  Uiso   1.00
O3     O     0.22660   0.87290   0.86350   0.01267  Uiso   1.00
O4     O     0.18700   0.54850   0.94490   0.01267  Uiso   1.00
O5     O     0.09950   0.36350   0.12710   0.01267  Uiso   1.00
O6     O     0.73550   0.44490   0.45150   0.01267  Uiso   1.00
O7     O     0.09010   0.13650   0.37290   0.01267  Uiso   1.00
O8     O     0.13190   0.05510   0.04850   0.01267  Uiso   1.00
O9     O     0.53700   0.37290   0.36350   0.01267  Uiso   1.00
O10    O     0.81960   0.04850   0.44490   0.01267  Uiso   1.00
O11    O     0.77340   0.12710   0.13650   0.01267  Uiso   1.00
O12    O     0.81300   0.45150   0.05510   0.01267  Uiso   1.00
O13    O     0.90050   0.63650   0.87290   0.01267  Uiso   1.00
O14    O     0.26450   0.55510   0.54850   0.01267  Uiso   1.00
O15    O     0.90990   0.86350   0.62710   0.01267  Uiso   1.00
O16    O     0.86810   0.94490   0.95150   0.01267  Uiso   1.00
