data_image0
_cell_length_a       8.6503
_cell_length_b       10.1871
_cell_length_c       16.921
_cell_angle_alpha    90
_cell_angle_beta     94.688
_cell_angle_gamma    90

_symmetry_space_group_name_H-M    "P 1"
_symmetry_int_tables_number       1

loop_
  _symmetry_equiv_pos_as_xyz
  'x, y, z'

loop_
  _atom_site_label
  _atom_site_occupancy
  _atom_site_fract_x
  _atom_site_fract_y
  _atom_site_fract_z
  _atom_site_thermal_displace_type
  _atom_site_B_iso_or_equiv
  _atom_site_type_symbol
  Ga1      1.0000 0.23211  0.82679  0.79826  Biso   1.000  Ga
  Ga2      1.0000 0.08362  0.85117  0.59704  Biso   1.000  Ga
  Ga3      1.0000 0.57616  0.65885  0.76886  Biso   1.000  Ga
  P1       1.0000 0.87628  0.85223  0.74123  Biso   1.000  P
  P2       1.0000 0.22196  0.12408  0.83632  Biso   1.000  P
  P3       1.0000 0.40509  0.64238  0.92795  Biso   1.000  P
  O1       1.0000 0.26980  0.98380  0.85930  Biso   1.000  O
  O2       1.0000 0.26730  0.72140  0.89210  Biso   1.000  O
  O3       1.0000 0.01020  0.83350  0.80530  Biso   1.000  O
  O4       1.0000 0.20460  0.66510  0.73780  Biso   1.000  O
  F1       1.0000 0.20380  0.91870  0.69640  Biso   1.000  F
  F2       1.0000 0.45280  0.82710  0.77980  Biso   1.000  F
  O5       1.0000 0.91980  0.81570  0.65820  Biso   1.000  O
  O6       1.0000 0.34800  0.50360  0.94910  Biso   1.000  O
  O7       1.0000 0.27610  0.21270  0.90750  Biso   1.000  O
  O8       1.0000 0.46940  0.71170  0.00360  Biso   1.000  O
  O9       1.0000 0.74890  0.75820  0.76170  Biso   1.000  O
  O10      1.0000 0.53440  0.62430  0.87200  Biso   1.000  O
  O11      1.0000 0.04330  0.13520  0.82580  Biso   1.000  O
  O12      1.0000 0.81270  0.99370  0.73990  Biso   1.000  O
  N1       1.0000 0.47400  0.79700  0.01600  Biso   1.000  N
  Ga4      1.0000 0.26789  0.32679  0.70174  Biso   1.000  Ga
  Ga5      1.0000 0.41638  0.35117  0.90296  Biso   1.000  Ga
  Ga6      1.0000 0.92384  0.15885  0.73114  Biso   1.000  Ga
  P4       1.0000 0.62372  0.35223  0.75877  Biso   1.000  P
  P5       1.0000 0.27804  0.62408  0.66368  Biso   1.000  P
  P6       1.0000 0.09491  0.14238  0.57205  Biso   1.000  P
  O13      1.0000 0.23020  0.48380  0.64070  Biso   1.000  O
  O14      1.0000 0.23270  0.22140  0.60790  Biso   1.000  O
  O15      1.0000 0.48980  0.33350  0.69470  Biso   1.000  O
  O16      1.0000 0.29540  0.16510  0.76220  Biso   1.000  O
  F3       1.0000 0.29620  0.41870  0.80360  Biso   1.000  F
  F4       1.0000 0.04720  0.32710  0.72020  Biso   1.000  F
  O17      1.0000 0.58020  0.31570  0.84180  Biso   1.000  O
  O18      1.0000 0.15200  0.00360  0.55090  Biso   1.000  O
  O19      1.0000 0.22390  0.71270  0.59250  Biso   1.000  O
  O20      1.0000 0.03060  0.21170  0.49640  Biso   1.000  O
  O21      1.0000 0.75110  0.25820  0.73830  Biso   1.000  O
  O22      1.0000 0.96560  0.12430  0.62800  Biso   1.000  O
  O23      1.0000 0.45670  0.63520  0.67420  Biso   1.000  O
  O24      1.0000 0.68730  0.49370  0.76010  Biso   1.000  O
  N2       1.0000 0.02600  0.29700  0.48400  Biso   1.000  N
  Ga7      1.0000 0.76789  0.17321  0.20174  Biso   1.000  Ga
  Ga8      1.0000 0.91638  0.14883  0.40296  Biso   1.000  Ga
  Ga9      1.0000 0.42384  0.34115  0.23114  Biso   1.000  Ga
  P7       1.0000 0.12372  0.14777  0.25877  Biso   1.000  P
  P8       1.0000 0.77804  0.87592  0.16368  Biso   1.000  P
  P9       1.0000 0.59491  0.35762  0.07205  Biso   1.000  P
  O25      1.0000 0.73020  0.01620  0.14070  Biso   1.000  O
  O26      1.0000 0.73270  0.27860  0.10790  Biso   1.000  O
  O27      1.0000 0.98980  0.16650  0.19470  Biso   1.000  O
  O28      1.0000 0.79540  0.33490  0.26220  Biso   1.000  O
  F5       1.0000 0.79620  0.08130  0.30360  Biso   1.000  F
  F6       1.0000 0.54720  0.17290  0.22020  Biso   1.000  F
  O29      1.0000 0.08020  0.18430  0.34180  Biso   1.000  O
  O30      1.0000 0.65200  0.49640  0.05090  Biso   1.000  O
  O31      1.0000 0.72390  0.78730  0.09250  Biso   1.000  O
  O32      1.0000 0.53060  0.28830  0.99640  Biso   1.000  O
  O33      1.0000 0.25110  0.24180  0.23830  Biso   1.000  O
  O34      1.0000 0.46560  0.37570  0.12800  Biso   1.000  O
  O35      1.0000 0.95670  0.86480  0.17420  Biso   1.000  O
  O36      1.0000 0.18730  0.00630  0.26010  Biso   1.000  O
  N3       1.0000 0.52600  0.20300  0.98400  Biso   1.000  N
  Ga10     1.0000 0.73211  0.67321  0.29826  Biso   1.000  Ga
  Ga11     1.0000 0.58362  0.64883  0.09704  Biso   1.000  Ga
  Ga12     1.0000 0.07616  0.84115  0.26886  Biso   1.000  Ga
  P10      1.0000 0.37628  0.64777  0.24123  Biso   1.000  P
  P11      1.0000 0.72196  0.37592  0.33632  Biso   1.000  P
  P12      1.0000 0.90509  0.85762  0.42795  Biso   1.000  P
  O37      1.0000 0.76980  0.51620  0.35930  Biso   1.000  O
  O38      1.0000 0.76730  0.77860  0.39210  Biso   1.000  O
  O39      1.0000 0.51020  0.66650  0.30530  Biso   1.000  O
  O40      1.0000 0.70460  0.83490  0.23780  Biso   1.000  O
  F7       1.0000 0.70380  0.58130  0.19640  Biso   1.000  F
  F8       1.0000 0.95280  0.67290  0.27980  Biso   1.000  F
  O41      1.0000 0.41980  0.68430  0.15820  Biso   1.000  O
  O42      1.0000 0.84800  0.99640  0.44910  Biso   1.000  O
  O43      1.0000 0.77610  0.28730  0.40750  Biso   1.000  O
  O44      1.0000 0.96940  0.78830  0.50360  Biso   1.000  O
  O45      1.0000 0.24890  0.74180  0.26170  Biso   1.000  O
  O46      1.0000 0.03440  0.87570  0.37200  Biso   1.000  O
  O47      1.0000 0.54330  0.36480  0.32580  Biso   1.000  O
  O48      1.0000 0.31270  0.50630  0.23990  Biso   1.000  O
  N4       1.0000 0.97400  0.70300  0.51600  Biso   1.000  N
