data_image0
_cell_length_a       20.355
_cell_length_b       15.6488
_cell_length_c       9.0517
_cell_angle_alpha    90
_cell_angle_beta     105.781
_cell_angle_gamma    90

_symmetry_space_group_name_H-M    "P 1"
_symmetry_int_tables_number       1

loop_
  _symmetry_equiv_pos_as_xyz
  'x, y, z'

loop_
  _atom_site_label
  _atom_site_occupancy
  _atom_site_fract_x
  _atom_site_fract_y
  _atom_site_fract_z
  _atom_site_thermal_displace_type
  _atom_site_B_iso_or_equiv
  _atom_site_type_symbol
  Ga1      1.0000 0.33968  0.36254  0.16782  Biso   1.000  Ga
  Ga2      1.0000 0.24750  0.11722  0.43387  Biso   1.000  Ga
  P1       1.0000 0.29287  0.51985  0.36591  Biso   1.000  P
  P2       1.0000 0.35614  0.26263  0.49504  Biso   1.000  P
  O1       1.0000 0.33270  0.46340  0.28510  Biso   1.000  O
  O2       1.0000 0.43762  0.36090  0.22970  Biso   1.000  O
  O3       1.0000 0.34313  0.56880  0.49250  Biso   1.000  O
  O4       1.0000 0.33189  0.28380  0.32720  Biso   1.000  O
  O5       1.0000 0.23646  0.34610  0.08480  Biso   1.000  O
  O6       1.0000 0.16208  0.24740  0.96210  Biso   1.000  O
  O7       1.0000 0.32240  0.17880  0.52510  Biso   1.000  O
  O8       1.0000 0.24672  0.58270  0.25230  Biso   1.000  O
  O9       1.0000 0.24184  0.46940  0.43020  Biso   1.000  O
  O10      1.0000 0.33512  0.33230  0.59300  Biso   1.000  O
  O11      1.0000 0.43244  0.25180  0.55490  Biso   1.000  O
  O12      1.0000 0.49300  0.24650  0.11190  Biso   1.000  O
  H1       1.0000 0.35600  0.43400  0.24100  Biso   1.000  H
  C1       1.0000 0.22060  0.27660  0.01370  Biso   1.000  C
  Ga3      1.0000 0.83968  0.86254  0.16782  Biso   1.000  Ga
  Ga4      1.0000 0.74750  0.61722  0.43387  Biso   1.000  Ga
  P3       1.0000 0.79287  0.01985  0.36591  Biso   1.000  P
  P4       1.0000 0.85614  0.76263  0.49504  Biso   1.000  P
  O13      1.0000 0.83270  0.96340  0.28510  Biso   1.000  O
  O14      1.0000 0.93762  0.86090  0.22970  Biso   1.000  O
  O15      1.0000 0.84313  0.06880  0.49250  Biso   1.000  O
  O16      1.0000 0.83189  0.78380  0.32720  Biso   1.000  O
  O17      1.0000 0.73646  0.84610  0.08480  Biso   1.000  O
  O18      1.0000 0.66208  0.74740  0.96210  Biso   1.000  O
  O19      1.0000 0.82240  0.67880  0.52510  Biso   1.000  O
  O20      1.0000 0.74672  0.08270  0.25230  Biso   1.000  O
  O21      1.0000 0.74184  0.96940  0.43020  Biso   1.000  O
  O22      1.0000 0.83512  0.83230  0.59300  Biso   1.000  O
  O23      1.0000 0.93244  0.75180  0.55490  Biso   1.000  O
  O24      1.0000 0.99300  0.74650  0.11190  Biso   1.000  O
  H2       1.0000 0.85600  0.93400  0.24100  Biso   1.000  H
  C2       1.0000 0.72060  0.77660  0.01370  Biso   1.000  C
  Ga5      1.0000 0.66032  0.36254  0.33218  Biso   1.000  Ga
  Ga6      1.0000 0.75250  0.11722  0.06613  Biso   1.000  Ga
  P5       1.0000 0.70713  0.51985  0.13409  Biso   1.000  P
  P6       1.0000 0.64386  0.26263  0.00496  Biso   1.000  P
  O25      1.0000 0.66730  0.46340  0.21490  Biso   1.000  O
  O26      1.0000 0.56238  0.36090  0.27030  Biso   1.000  O
  O27      1.0000 0.65687  0.56880  0.00750  Biso   1.000  O
  O28      1.0000 0.66811  0.28380  0.17280  Biso   1.000  O
  O29      1.0000 0.76354  0.34610  0.41520  Biso   1.000  O
  O30      1.0000 0.83792  0.24740  0.53790  Biso   1.000  O
  O31      1.0000 0.67760  0.17880  0.97490  Biso   1.000  O
  O32      1.0000 0.75328  0.58270  0.24770  Biso   1.000  O
  O33      1.0000 0.75816  0.46940  0.06980  Biso   1.000  O
  O34      1.0000 0.66488  0.33230  0.90700  Biso   1.000  O
  O35      1.0000 0.56756  0.25180  0.94510  Biso   1.000  O
  O36      1.0000 0.50700  0.24650  0.38810  Biso   1.000  O
  H3       1.0000 0.64400  0.43400  0.25900  Biso   1.000  H
  C3       1.0000 0.77940  0.27660  0.48630  Biso   1.000  C
  Ga7      1.0000 0.16032  0.86254  0.33218  Biso   1.000  Ga
  Ga8      1.0000 0.25250  0.61722  0.06613  Biso   1.000  Ga
  P7       1.0000 0.20713  0.01985  0.13409  Biso   1.000  P
  P8       1.0000 0.14386  0.76263  0.00496  Biso   1.000  P
  O37      1.0000 0.16730  0.96340  0.21490  Biso   1.000  O
  O38      1.0000 0.06238  0.86090  0.27030  Biso   1.000  O
  O39      1.0000 0.15687  0.06880  0.00750  Biso   1.000  O
  O40      1.0000 0.16811  0.78380  0.17280  Biso   1.000  O
  O41      1.0000 0.26354  0.84610  0.41520  Biso   1.000  O
  O42      1.0000 0.33792  0.74740  0.53790  Biso   1.000  O
  O43      1.0000 0.17760  0.67880  0.97490  Biso   1.000  O
  O44      1.0000 0.25328  0.08270  0.24770  Biso   1.000  O
  O45      1.0000 0.25816  0.96940  0.06980  Biso   1.000  O
  O46      1.0000 0.16488  0.83230  0.90700  Biso   1.000  O
  O47      1.0000 0.06756  0.75180  0.94510  Biso   1.000  O
  O48      1.0000 0.00700  0.74650  0.38810  Biso   1.000  O
  H4       1.0000 0.14400  0.93400  0.25900  Biso   1.000  H
  C4       1.0000 0.27940  0.77660  0.48630  Biso   1.000  C
  Ga9      1.0000 0.66032  0.63746  0.83218  Biso   1.000  Ga
  Ga10     1.0000 0.75250  0.88278  0.56613  Biso   1.000  Ga
  P9       1.0000 0.70713  0.48015  0.63409  Biso   1.000  P
  P10      1.0000 0.64386  0.73737  0.50496  Biso   1.000  P
  O49      1.0000 0.66730  0.53660  0.71490  Biso   1.000  O
  O50      1.0000 0.56238  0.63910  0.77030  Biso   1.000  O
  O51      1.0000 0.65687  0.43120  0.50750  Biso   1.000  O
  O52      1.0000 0.66811  0.71620  0.67280  Biso   1.000  O
  O53      1.0000 0.76354  0.65390  0.91520  Biso   1.000  O
  O54      1.0000 0.83792  0.75260  0.03790  Biso   1.000  O
  O55      1.0000 0.67760  0.82120  0.47490  Biso   1.000  O
  O56      1.0000 0.75328  0.41730  0.74770  Biso   1.000  O
  O57      1.0000 0.75816  0.53060  0.56980  Biso   1.000  O
  O58      1.0000 0.66488  0.66770  0.40700  Biso   1.000  O
  O59      1.0000 0.56756  0.74820  0.44510  Biso   1.000  O
  O60      1.0000 0.50700  0.75350  0.88810  Biso   1.000  O
  H5       1.0000 0.64400  0.56600  0.75900  Biso   1.000  H
  C5       1.0000 0.77940  0.72340  0.98630  Biso   1.000  C
  Ga11     1.0000 0.16032  0.13746  0.83218  Biso   1.000  Ga
  Ga12     1.0000 0.25250  0.38278  0.56613  Biso   1.000  Ga
  P11      1.0000 0.20713  0.98015  0.63409  Biso   1.000  P
  P12      1.0000 0.14386  0.23737  0.50496  Biso   1.000  P
  O61      1.0000 0.16730  0.03660  0.71490  Biso   1.000  O
  O62      1.0000 0.06238  0.13910  0.77030  Biso   1.000  O
  O63      1.0000 0.15687  0.93120  0.50750  Biso   1.000  O
  O64      1.0000 0.16811  0.21620  0.67280  Biso   1.000  O
  O65      1.0000 0.26354  0.15390  0.91520  Biso   1.000  O
  O66      1.0000 0.33792  0.25260  0.03790  Biso   1.000  O
  O67      1.0000 0.17760  0.32120  0.47490  Biso   1.000  O
  O68      1.0000 0.25328  0.91730  0.74770  Biso   1.000  O
  O69      1.0000 0.25816  0.03060  0.56980  Biso   1.000  O
  O70      1.0000 0.16488  0.16770  0.40700  Biso   1.000  O
  O71      1.0000 0.06756  0.24820  0.44510  Biso   1.000  O
  O72      1.0000 0.00700  0.25350  0.88810  Biso   1.000  O
  H6       1.0000 0.14400  0.06600  0.75900  Biso   1.000  H
  C6       1.0000 0.27940  0.22340  0.98630  Biso   1.000  C
  Ga13     1.0000 0.33968  0.63746  0.66782  Biso   1.000  Ga
  Ga14     1.0000 0.24750  0.88278  0.93387  Biso   1.000  Ga
  P13      1.0000 0.29287  0.48015  0.86591  Biso   1.000  P
  P14      1.0000 0.35614  0.73737  0.99504  Biso   1.000  P
  O73      1.0000 0.33270  0.53660  0.78510  Biso   1.000  O
  O74      1.0000 0.43762  0.63910  0.72970  Biso   1.000  O
  O75      1.0000 0.34313  0.43120  0.99250  Biso   1.000  O
  O76      1.0000 0.33189  0.71620  0.82720  Biso   1.000  O
  O77      1.0000 0.23646  0.65390  0.58480  Biso   1.000  O
  O78      1.0000 0.16208  0.75260  0.46210  Biso   1.000  O
  O79      1.0000 0.32240  0.82120  0.02510  Biso   1.000  O
  O80      1.0000 0.24672  0.41730  0.75230  Biso   1.000  O
  O81      1.0000 0.24184  0.53060  0.93020  Biso   1.000  O
  O82      1.0000 0.33512  0.66770  0.09300  Biso   1.000  O
  O83      1.0000 0.43244  0.74820  0.05490  Biso   1.000  O
  O84      1.0000 0.49300  0.75350  0.61190  Biso   1.000  O
  H7       1.0000 0.35600  0.56600  0.74100  Biso   1.000  H
  C7       1.0000 0.22060  0.72340  0.51370  Biso   1.000  C
  Ga15     1.0000 0.83968  0.13746  0.66782  Biso   1.000  Ga
  Ga16     1.0000 0.74750  0.38278  0.93387  Biso   1.000  Ga
  P15      1.0000 0.79287  0.98015  0.86591  Biso   1.000  P
  P16      1.0000 0.85614  0.23737  0.99504  Biso   1.000  P
  O85      1.0000 0.83270  0.03660  0.78510  Biso   1.000  O
  O86      1.0000 0.93762  0.13910  0.72970  Biso   1.000  O
  O87      1.0000 0.84313  0.93120  0.99250  Biso   1.000  O
  O88      1.0000 0.83189  0.21620  0.82720  Biso   1.000  O
  O89      1.0000 0.73646  0.15390  0.58480  Biso   1.000  O
  O90      1.0000 0.66208  0.25260  0.46210  Biso   1.000  O
  O91      1.0000 0.82240  0.32120  0.02510  Biso   1.000  O
  O92      1.0000 0.74672  0.91730  0.75230  Biso   1.000  O
  O93      1.0000 0.74184  0.03060  0.93020  Biso   1.000  O
  O94      1.0000 0.83512  0.16770  0.09300  Biso   1.000  O
  O95      1.0000 0.93244  0.24820  0.05490  Biso   1.000  O
  O96      1.0000 0.99300  0.25350  0.61190  Biso   1.000  O
  H8       1.0000 0.85600  0.06600  0.74100  Biso   1.000  H
  C8       1.0000 0.72060  0.22340  0.51370  Biso   1.000  C
  P17      1.0000 0.50000  0.30519  0.25000  Biso   1.000  P
  P18      1.0000 0.00000  0.80519  0.25000  Biso   1.000  P
  P19      1.0000 0.50000  0.69481  0.75000  Biso   1.000  P
  P20      1.0000 0.00000  0.19481  0.75000  Biso   1.000  P
