data_image0
_cell_length_a       13.3422
_cell_length_b       13.3422
_cell_length_c       17.8687
_cell_angle_alpha    90
_cell_angle_beta     90
_cell_angle_gamma    120

_symmetry_space_group_name_H-M    "P 1"
_symmetry_int_tables_number       1

loop_
  _symmetry_equiv_pos_as_xyz
  'x, y, z'

loop_
  _atom_site_label
  _atom_site_occupancy
  _atom_site_fract_x
  _atom_site_fract_y
  _atom_site_fract_z
  _atom_site_thermal_displace_type
  _atom_site_B_iso_or_equiv
  _atom_site_type_symbol
  Ga1      1.0000 0.85958  0.56737  0.46033  Biso   1.000  Ga
  P1       1.0000 0.97456  0.81342  0.37109  Biso   1.000  P
  H1       1.0000 0.03670  0.80610  0.34720  Biso   1.000  H
  P2       1.0000 0.87253  0.36784  0.55354  Biso   1.000  P
  H2       1.0000 0.82970  0.32380  0.59780  Biso   1.000  H
  O1       1.0000 0.92550  0.85980  0.31110  Biso   1.000  O
  O2       1.0000 0.02850  0.89340  0.43870  Biso   1.000  O
  O3       1.0000 0.83030  0.45190  0.53610  Biso   1.000  O
  O4       1.0000 0.71980  0.56740  0.49170  Biso   1.000  O
  O5       1.0000 0.00050  0.57260  0.42640  Biso   1.000  O
  O6       1.0000 0.77490  0.45060  0.38260  Biso   1.000  O
  O7       1.0000 0.88110  0.69210  0.39230  Biso   1.000  O
  Ga2      1.0000 0.43263  0.29221  0.46033  Biso   1.000  Ga
  P3       1.0000 0.18658  0.16114  0.37109  Biso   1.000  P
  H3       1.0000 0.19390  0.23060  0.34720  Biso   1.000  H
  P4       1.0000 0.63216  0.50469  0.55354  Biso   1.000  P
  H4       1.0000 0.67620  0.50590  0.59780  Biso   1.000  H
  O8       1.0000 0.14020  0.06570  0.31110  Biso   1.000  O
  O9       1.0000 0.10660  0.13510  0.43870  Biso   1.000  O
  O10      1.0000 0.54810  0.37840  0.53610  Biso   1.000  O
  O11      1.0000 0.43260  0.15240  0.49170  Biso   1.000  O
  O12      1.0000 0.42740  0.42790  0.42640  Biso   1.000  O
  O13      1.0000 0.54940  0.32430  0.38260  Biso   1.000  O
  O14      1.0000 0.30790  0.18900  0.39230  Biso   1.000  O
  Ga3      1.0000 0.70779  0.14042  0.46033  Biso   1.000  Ga
  P5       1.0000 0.83886  0.02544  0.37109  Biso   1.000  P
  H5       1.0000 0.76940  0.96330  0.34720  Biso   1.000  H
  P6       1.0000 0.49531  0.12747  0.55354  Biso   1.000  P
  H6       1.0000 0.49410  0.17030  0.59780  Biso   1.000  H
  O15      1.0000 0.93430  0.07450  0.31110  Biso   1.000  O
  O16      1.0000 0.86490  0.97150  0.43870  Biso   1.000  O
  O17      1.0000 0.62160  0.16970  0.53610  Biso   1.000  O
  O18      1.0000 0.84760  0.28020  0.49170  Biso   1.000  O
  O19      1.0000 0.57210  0.99950  0.42640  Biso   1.000  O
  O20      1.0000 0.67570  0.22510  0.38260  Biso   1.000  O
  O21      1.0000 0.81100  0.11890  0.39230  Biso   1.000  O
  Ga4      1.0000 0.56737  0.85958  0.03967  Biso   1.000  Ga
  P7       1.0000 0.81342  0.97456  0.12891  Biso   1.000  P
  H7       1.0000 0.80610  0.03670  0.15280  Biso   1.000  H
  P8       1.0000 0.36784  0.87253  0.94646  Biso   1.000  P
  H8       1.0000 0.32380  0.82970  0.90220  Biso   1.000  H
  O22      1.0000 0.85980  0.92550  0.18890  Biso   1.000  O
  O23      1.0000 0.89340  0.02850  0.06130  Biso   1.000  O
  O24      1.0000 0.45190  0.83030  0.96390  Biso   1.000  O
  O25      1.0000 0.56740  0.71980  0.00830  Biso   1.000  O
  O26      1.0000 0.57260  0.00050  0.07360  Biso   1.000  O
  O27      1.0000 0.45060  0.77490  0.11740  Biso   1.000  O
  O28      1.0000 0.69210  0.88110  0.10770  Biso   1.000  O
  Ga5      1.0000 0.29221  0.43263  0.03967  Biso   1.000  Ga
  P9       1.0000 0.16114  0.18658  0.12891  Biso   1.000  P
  H9       1.0000 0.23060  0.19390  0.15280  Biso   1.000  H
  P10      1.0000 0.50469  0.63216  0.94646  Biso   1.000  P
  H10      1.0000 0.50590  0.67620  0.90220  Biso   1.000  H
  O29      1.0000 0.06570  0.14020  0.18890  Biso   1.000  O
  O30      1.0000 0.13510  0.10660  0.06130  Biso   1.000  O
  O31      1.0000 0.37840  0.54810  0.96390  Biso   1.000  O
  O32      1.0000 0.15240  0.43260  0.00830  Biso   1.000  O
  O33      1.0000 0.42790  0.42740  0.07360  Biso   1.000  O
  O34      1.0000 0.32430  0.54940  0.11740  Biso   1.000  O
  O35      1.0000 0.18900  0.30790  0.10770  Biso   1.000  O
  Ga6      1.0000 0.14042  0.70779  0.03967  Biso   1.000  Ga
  P11      1.0000 0.02544  0.83886  0.12891  Biso   1.000  P
  H11      1.0000 0.96330  0.76940  0.15280  Biso   1.000  H
  P12      1.0000 0.12747  0.49531  0.94646  Biso   1.000  P
  H12      1.0000 0.17030  0.49410  0.90220  Biso   1.000  H
  O36      1.0000 0.07450  0.93430  0.18890  Biso   1.000  O
  O37      1.0000 0.97150  0.86490  0.06130  Biso   1.000  O
  O38      1.0000 0.16970  0.62160  0.96390  Biso   1.000  O
  O39      1.0000 0.28020  0.84760  0.00830  Biso   1.000  O
  O40      1.0000 0.99950  0.57210  0.07360  Biso   1.000  O
  O41      1.0000 0.22510  0.67570  0.11740  Biso   1.000  O
  O42      1.0000 0.11890  0.81100  0.10770  Biso   1.000  O
  Ga7      1.0000 0.14042  0.43263  0.53967  Biso   1.000  Ga
  P13      1.0000 0.02544  0.18658  0.62891  Biso   1.000  P
  H13      1.0000 0.96330  0.19390  0.65280  Biso   1.000  H
  P14      1.0000 0.12747  0.63216  0.44646  Biso   1.000  P
  H14      1.0000 0.17030  0.67620  0.40220  Biso   1.000  H
  O43      1.0000 0.07450  0.14020  0.68890  Biso   1.000  O
  O44      1.0000 0.97150  0.10660  0.56130  Biso   1.000  O
  O45      1.0000 0.16970  0.54810  0.46390  Biso   1.000  O
  O46      1.0000 0.28020  0.43260  0.50830  Biso   1.000  O
  O47      1.0000 0.99950  0.42740  0.57360  Biso   1.000  O
  O48      1.0000 0.22510  0.54940  0.61740  Biso   1.000  O
  O49      1.0000 0.11890  0.30790  0.60770  Biso   1.000  O
  Ga8      1.0000 0.56737  0.70779  0.53967  Biso   1.000  Ga
  P15      1.0000 0.81342  0.83886  0.62891  Biso   1.000  P
  H15      1.0000 0.80610  0.76940  0.65280  Biso   1.000  H
  P16      1.0000 0.36784  0.49531  0.44646  Biso   1.000  P
  H16      1.0000 0.32380  0.49410  0.40220  Biso   1.000  H
  O50      1.0000 0.85980  0.93430  0.68890  Biso   1.000  O
  O51      1.0000 0.89340  0.86490  0.56130  Biso   1.000  O
  O52      1.0000 0.45190  0.62160  0.46390  Biso   1.000  O
  O53      1.0000 0.56740  0.84760  0.50830  Biso   1.000  O
  O54      1.0000 0.57260  0.57210  0.57360  Biso   1.000  O
  O55      1.0000 0.45060  0.67570  0.61740  Biso   1.000  O
  O56      1.0000 0.69210  0.81100  0.60770  Biso   1.000  O
  Ga9      1.0000 0.29221  0.85958  0.53967  Biso   1.000  Ga
  P17      1.0000 0.16114  0.97456  0.62891  Biso   1.000  P
  H17      1.0000 0.23060  0.03670  0.65280  Biso   1.000  H
  P18      1.0000 0.50469  0.87253  0.44646  Biso   1.000  P
  H18      1.0000 0.50590  0.82970  0.40220  Biso   1.000  H
  O57      1.0000 0.06570  0.92550  0.68890  Biso   1.000  O
  O58      1.0000 0.13510  0.02850  0.56130  Biso   1.000  O
  O59      1.0000 0.37840  0.83030  0.46390  Biso   1.000  O
  O60      1.0000 0.15240  0.71980  0.50830  Biso   1.000  O
  O61      1.0000 0.42790  0.00050  0.57360  Biso   1.000  O
  O62      1.0000 0.32430  0.77490  0.61740  Biso   1.000  O
  O63      1.0000 0.18900  0.88110  0.60770  Biso   1.000  O
  Ga10     1.0000 0.43263  0.14042  0.96033  Biso   1.000  Ga
  P19      1.0000 0.18658  0.02544  0.87109  Biso   1.000  P
  H19      1.0000 0.19390  0.96330  0.84720  Biso   1.000  H
  P20      1.0000 0.63216  0.12747  0.05354  Biso   1.000  P
  H20      1.0000 0.67620  0.17030  0.09780  Biso   1.000  H
  O64      1.0000 0.14020  0.07450  0.81110  Biso   1.000  O
  O65      1.0000 0.10660  0.97150  0.93870  Biso   1.000  O
  O66      1.0000 0.54810  0.16970  0.03610  Biso   1.000  O
  O67      1.0000 0.43260  0.28020  0.99170  Biso   1.000  O
  O68      1.0000 0.42740  0.99950  0.92640  Biso   1.000  O
  O69      1.0000 0.54940  0.22510  0.88260  Biso   1.000  O
  O70      1.0000 0.30790  0.11890  0.89230  Biso   1.000  O
  Ga11     1.0000 0.70779  0.56737  0.96033  Biso   1.000  Ga
  P21      1.0000 0.83886  0.81342  0.87109  Biso   1.000  P
  H21      1.0000 0.76940  0.80610  0.84720  Biso   1.000  H
  P22      1.0000 0.49531  0.36784  0.05354  Biso   1.000  P
  H22      1.0000 0.49410  0.32380  0.09780  Biso   1.000  H
  O71      1.0000 0.93430  0.85980  0.81110  Biso   1.000  O
  O72      1.0000 0.86490  0.89340  0.93870  Biso   1.000  O
  O73      1.0000 0.62160  0.45190  0.03610  Biso   1.000  O
  O74      1.0000 0.84760  0.56740  0.99170  Biso   1.000  O
  O75      1.0000 0.57210  0.57260  0.92640  Biso   1.000  O
  O76      1.0000 0.67570  0.45060  0.88260  Biso   1.000  O
  O77      1.0000 0.81100  0.69210  0.89230  Biso   1.000  O
  Ga12     1.0000 0.85958  0.29221  0.96033  Biso   1.000  Ga
  P23      1.0000 0.97456  0.16114  0.87109  Biso   1.000  P
  H23      1.0000 0.03670  0.23060  0.84720  Biso   1.000  H
  P24      1.0000 0.87253  0.50469  0.05354  Biso   1.000  P
  H24      1.0000 0.82970  0.50590  0.09780  Biso   1.000  H
  O78      1.0000 0.92550  0.06570  0.81110  Biso   1.000  O
  O79      1.0000 0.02850  0.13510  0.93870  Biso   1.000  O
  O80      1.0000 0.83030  0.37840  0.03610  Biso   1.000  O
  O81      1.0000 0.71980  0.15240  0.99170  Biso   1.000  O
  O82      1.0000 0.00050  0.42790  0.92640  Biso   1.000  O
  O83      1.0000 0.77490  0.32430  0.88260  Biso   1.000  O
  O84      1.0000 0.88110  0.18900  0.89230  Biso   1.000  O
  Ga13     1.0000 0.00000  0.00000  0.25000  Biso   1.000  Ga
  Ga14     1.0000 0.00000  0.00000  0.75000  Biso   1.000  Ga
  Ga15     1.0000 0.00000  0.00000  0.50000  Biso   1.000  Ga
  Ga16     1.0000 0.00000  0.00000  0.00000  Biso   1.000  Ga
  P25      1.0000 0.66667  0.33333  0.36290  Biso   1.000  P
  H25      1.0000 0.66667  0.33333  0.30810  Biso   1.000  H
  P26      1.0000 0.33333  0.66667  0.13710  Biso   1.000  P
  H26      1.0000 0.33333  0.66667  0.19190  Biso   1.000  H
  P27      1.0000 0.33333  0.66667  0.63710  Biso   1.000  P
  H27      1.0000 0.33333  0.66667  0.69190  Biso   1.000  H
  P28      1.0000 0.66667  0.33333  0.86290  Biso   1.000  P
  H28      1.0000 0.66667  0.33333  0.80810  Biso   1.000  H
