data_image0
_cell_length_a       20.695
_cell_length_b       9.9595
_cell_length_c       23.715
_cell_angle_alpha    90
_cell_angle_beta     101
_cell_angle_gamma    90

_symmetry_space_group_name_H-M    "P 1"
_symmetry_int_tables_number       1

loop_
  _symmetry_equiv_pos_as_xyz
  'x, y, z'

loop_
  _atom_site_label
  _atom_site_occupancy
  _atom_site_fract_x
  _atom_site_fract_y
  _atom_site_fract_z
  _atom_site_thermal_displace_type
  _atom_site_B_iso_or_equiv
  _atom_site_type_symbol
  V1       1.0000 0.43990  0.57763  0.56418  Biso   1.000  V
  V2       1.0000 0.27876  0.40827  0.72234  Biso   1.000  V
  V3       1.0000 0.32622  0.90373  0.67284  Biso   1.000  V
  P1       1.0000 0.44188  0.31474  0.49544  Biso   1.000  P
  P2       1.0000 0.39394  0.87118  0.56065  Biso   1.000  P
  P3       1.0000 0.28552  0.62312  0.82518  Biso   1.000  P
  P4       1.0000 0.31030  0.61583  0.62369  Biso   1.000  P
  O1       1.0000 0.40511  0.44540  0.50299  Biso   1.000  O
  O2       1.0000 0.40745  0.25270  0.43585  Biso   1.000  O
  O3       1.0000 0.43284  0.21470  0.54137  Biso   1.000  O
  O4       1.0000 0.51436  0.34133  0.49547  Biso   1.000  O
  O5       1.0000 0.34485  0.81310  0.50956  Biso   1.000  O
  O6       1.0000 0.43638  0.76030  0.59200  Biso   1.000  O
  O7       1.0000 0.43961  0.96640  0.53367  Biso   1.000  O
  O8       1.0000 0.35963  0.95015  0.60139  Biso   1.000  O
  O9       1.0000 0.27590  0.58231  0.76128  Biso   1.000  O
  O10      1.0000 0.35518  0.58834  0.85614  Biso   1.000  O
  O11      1.0000 0.23541  0.55040  0.85511  Biso   1.000  O
  O12      1.0000 0.27420  0.77508  0.82874  Biso   1.000  O
  O13      1.0000 0.26888  0.51281  0.64969  Biso   1.000  O
  O14      1.0000 0.34869  0.70825  0.67040  Biso   1.000  O
  O15      1.0000 0.26134  0.70290  0.58276  Biso   1.000  O
  O16      1.0000 0.35719  0.53824  0.59298  Biso   1.000  O
  O17      1.0000 0.24201  0.33338  0.78664  Biso   1.000  O
  O18      1.0000 0.22280  0.93420  0.52463  Biso   1.000  O
  H1       1.0000 0.18370  0.94660  0.51150  Biso   1.000  H
  V4       1.0000 0.93990  0.07763  0.56418  Biso   1.000  V
  V5       1.0000 0.77876  0.90827  0.72234  Biso   1.000  V
  V6       1.0000 0.82622  0.40373  0.67284  Biso   1.000  V
  P5       1.0000 0.94188  0.81474  0.49544  Biso   1.000  P
  P6       1.0000 0.89394  0.37118  0.56065  Biso   1.000  P
  P7       1.0000 0.78552  0.12312  0.82518  Biso   1.000  P
  P8       1.0000 0.81030  0.11583  0.62369  Biso   1.000  P
  O19      1.0000 0.90511  0.94540  0.50299  Biso   1.000  O
  O20      1.0000 0.90745  0.75270  0.43585  Biso   1.000  O
  O21      1.0000 0.93284  0.71470  0.54137  Biso   1.000  O
  O22      1.0000 0.01436  0.84133  0.49547  Biso   1.000  O
  O23      1.0000 0.84485  0.31310  0.50956  Biso   1.000  O
  O24      1.0000 0.93638  0.26030  0.59200  Biso   1.000  O
  O25      1.0000 0.93961  0.46640  0.53367  Biso   1.000  O
  O26      1.0000 0.85963  0.45015  0.60139  Biso   1.000  O
  O27      1.0000 0.77590  0.08231  0.76128  Biso   1.000  O
  O28      1.0000 0.85518  0.08834  0.85614  Biso   1.000  O
  O29      1.0000 0.73541  0.05040  0.85511  Biso   1.000  O
  O30      1.0000 0.77420  0.27508  0.82874  Biso   1.000  O
  O31      1.0000 0.76888  0.01281  0.64969  Biso   1.000  O
  O32      1.0000 0.84869  0.20825  0.67040  Biso   1.000  O
  O33      1.0000 0.76134  0.20290  0.58276  Biso   1.000  O
  O34      1.0000 0.85719  0.03824  0.59298  Biso   1.000  O
  O35      1.0000 0.74201  0.83338  0.78664  Biso   1.000  O
  O36      1.0000 0.72280  0.43420  0.52463  Biso   1.000  O
  H2       1.0000 0.68370  0.44660  0.51150  Biso   1.000  H
  V7       1.0000 0.56010  0.57763  0.93582  Biso   1.000  V
  V8       1.0000 0.72124  0.40827  0.77766  Biso   1.000  V
  V9       1.0000 0.67378  0.90373  0.82716  Biso   1.000  V
  P9       1.0000 0.55812  0.31474  0.00456  Biso   1.000  P
  P10      1.0000 0.60606  0.87118  0.93935  Biso   1.000  P
  P11      1.0000 0.71448  0.62312  0.67482  Biso   1.000  P
  P12      1.0000 0.68970  0.61583  0.87631  Biso   1.000  P
  O37      1.0000 0.59489  0.44540  0.99701  Biso   1.000  O
  O38      1.0000 0.59255  0.25270  0.06415  Biso   1.000  O
  O39      1.0000 0.56716  0.21470  0.95863  Biso   1.000  O
  O40      1.0000 0.48564  0.34133  0.00453  Biso   1.000  O
  O41      1.0000 0.65515  0.81310  0.99044  Biso   1.000  O
  O42      1.0000 0.56362  0.76030  0.90800  Biso   1.000  O
  O43      1.0000 0.56039  0.96640  0.96633  Biso   1.000  O
  O44      1.0000 0.64037  0.95015  0.89861  Biso   1.000  O
  O45      1.0000 0.72410  0.58231  0.73872  Biso   1.000  O
  O46      1.0000 0.64482  0.58834  0.64386  Biso   1.000  O
  O47      1.0000 0.76459  0.55040  0.64489  Biso   1.000  O
  O48      1.0000 0.72580  0.77508  0.67126  Biso   1.000  O
  O49      1.0000 0.73112  0.51281  0.85031  Biso   1.000  O
  O50      1.0000 0.65131  0.70825  0.82960  Biso   1.000  O
  O51      1.0000 0.73866  0.70290  0.91724  Biso   1.000  O
  O52      1.0000 0.64281  0.53824  0.90702  Biso   1.000  O
  O53      1.0000 0.75799  0.33338  0.71336  Biso   1.000  O
  O54      1.0000 0.77720  0.93420  0.97537  Biso   1.000  O
  H3       1.0000 0.81630  0.94660  0.98850  Biso   1.000  H
  V10      1.0000 0.06010  0.07763  0.93582  Biso   1.000  V
  V11      1.0000 0.22124  0.90827  0.77766  Biso   1.000  V
  V12      1.0000 0.17378  0.40373  0.82716  Biso   1.000  V
  P13      1.0000 0.05812  0.81474  0.00456  Biso   1.000  P
  P14      1.0000 0.10606  0.37118  0.93935  Biso   1.000  P
  P15      1.0000 0.21448  0.12312  0.67482  Biso   1.000  P
  P16      1.0000 0.18970  0.11583  0.87631  Biso   1.000  P
  O55      1.0000 0.09489  0.94540  0.99701  Biso   1.000  O
  O56      1.0000 0.09255  0.75270  0.06415  Biso   1.000  O
  O57      1.0000 0.06716  0.71470  0.95863  Biso   1.000  O
  O58      1.0000 0.98564  0.84133  0.00453  Biso   1.000  O
  O59      1.0000 0.15515  0.31310  0.99044  Biso   1.000  O
  O60      1.0000 0.06362  0.26030  0.90800  Biso   1.000  O
  O61      1.0000 0.06039  0.46640  0.96633  Biso   1.000  O
  O62      1.0000 0.14037  0.45015  0.89861  Biso   1.000  O
  O63      1.0000 0.22410  0.08231  0.73872  Biso   1.000  O
  O64      1.0000 0.14482  0.08834  0.64386  Biso   1.000  O
  O65      1.0000 0.26459  0.05040  0.64489  Biso   1.000  O
  O66      1.0000 0.22580  0.27508  0.67126  Biso   1.000  O
  O67      1.0000 0.23112  0.01281  0.85031  Biso   1.000  O
  O68      1.0000 0.15131  0.20825  0.82960  Biso   1.000  O
  O69      1.0000 0.23866  0.20290  0.91724  Biso   1.000  O
  O70      1.0000 0.14281  0.03824  0.90702  Biso   1.000  O
  O71      1.0000 0.25799  0.83338  0.71336  Biso   1.000  O
  O72      1.0000 0.27720  0.43420  0.97537  Biso   1.000  O
  H4       1.0000 0.31630  0.44660  0.98850  Biso   1.000  H
  V13      1.0000 0.56010  0.42237  0.43582  Biso   1.000  V
  V14      1.0000 0.72124  0.59173  0.27766  Biso   1.000  V
  V15      1.0000 0.67378  0.09627  0.32716  Biso   1.000  V
  P17      1.0000 0.55812  0.68526  0.50456  Biso   1.000  P
  P18      1.0000 0.60606  0.12882  0.43935  Biso   1.000  P
  P19      1.0000 0.71448  0.37688  0.17482  Biso   1.000  P
  P20      1.0000 0.68970  0.38417  0.37631  Biso   1.000  P
  O73      1.0000 0.59489  0.55460  0.49701  Biso   1.000  O
  O74      1.0000 0.59255  0.74730  0.56415  Biso   1.000  O
  O75      1.0000 0.56716  0.78530  0.45863  Biso   1.000  O
  O76      1.0000 0.48564  0.65867  0.50453  Biso   1.000  O
  O77      1.0000 0.65515  0.18690  0.49044  Biso   1.000  O
  O78      1.0000 0.56362  0.23970  0.40800  Biso   1.000  O
  O79      1.0000 0.56039  0.03360  0.46633  Biso   1.000  O
  O80      1.0000 0.64037  0.04985  0.39861  Biso   1.000  O
  O81      1.0000 0.72410  0.41769  0.23872  Biso   1.000  O
  O82      1.0000 0.64482  0.41166  0.14386  Biso   1.000  O
  O83      1.0000 0.76459  0.44960  0.14489  Biso   1.000  O
  O84      1.0000 0.72580  0.22492  0.17126  Biso   1.000  O
  O85      1.0000 0.73112  0.48719  0.35031  Biso   1.000  O
  O86      1.0000 0.65131  0.29175  0.32960  Biso   1.000  O
  O87      1.0000 0.73866  0.29710  0.41724  Biso   1.000  O
  O88      1.0000 0.64281  0.46176  0.40702  Biso   1.000  O
  O89      1.0000 0.75799  0.66662  0.21336  Biso   1.000  O
  O90      1.0000 0.77720  0.06580  0.47537  Biso   1.000  O
  H5       1.0000 0.81630  0.05340  0.48850  Biso   1.000  H
  V16      1.0000 0.06010  0.92237  0.43582  Biso   1.000  V
  V17      1.0000 0.22124  0.09173  0.27766  Biso   1.000  V
  V18      1.0000 0.17378  0.59627  0.32716  Biso   1.000  V
  P21      1.0000 0.05812  0.18526  0.50456  Biso   1.000  P
  P22      1.0000 0.10606  0.62882  0.43935  Biso   1.000  P
  P23      1.0000 0.21448  0.87688  0.17482  Biso   1.000  P
  P24      1.0000 0.18970  0.88417  0.37631  Biso   1.000  P
  O91      1.0000 0.09489  0.05460  0.49701  Biso   1.000  O
  O92      1.0000 0.09255  0.24730  0.56415  Biso   1.000  O
  O93      1.0000 0.06716  0.28530  0.45863  Biso   1.000  O
  O94      1.0000 0.98564  0.15867  0.50453  Biso   1.000  O
  O95      1.0000 0.15515  0.68690  0.49044  Biso   1.000  O
  O96      1.0000 0.06362  0.73970  0.40800  Biso   1.000  O
  O97      1.0000 0.06039  0.53360  0.46633  Biso   1.000  O
  O98      1.0000 0.14037  0.54985  0.39861  Biso   1.000  O
  O99      1.0000 0.22410  0.91769  0.23872  Biso   1.000  O
  O100     1.0000 0.14482  0.91166  0.14386  Biso   1.000  O
  O101     1.0000 0.26459  0.94960  0.14489  Biso   1.000  O
  O102     1.0000 0.22580  0.72492  0.17126  Biso   1.000  O
  O103     1.0000 0.23112  0.98719  0.35031  Biso   1.000  O
  O104     1.0000 0.15131  0.79175  0.32960  Biso   1.000  O
  O105     1.0000 0.23866  0.79710  0.41724  Biso   1.000  O
  O106     1.0000 0.14281  0.96176  0.40702  Biso   1.000  O
  O107     1.0000 0.25799  0.16662  0.21336  Biso   1.000  O
  O108     1.0000 0.27720  0.56580  0.47537  Biso   1.000  O
  H6       1.0000 0.31630  0.55340  0.48850  Biso   1.000  H
  V19      1.0000 0.43990  0.42237  0.06418  Biso   1.000  V
  V20      1.0000 0.27876  0.59173  0.22234  Biso   1.000  V
  V21      1.0000 0.32622  0.09627  0.17284  Biso   1.000  V
  P25      1.0000 0.44188  0.68526  0.99544  Biso   1.000  P
  P26      1.0000 0.39394  0.12882  0.06065  Biso   1.000  P
  P27      1.0000 0.28552  0.37688  0.32518  Biso   1.000  P
  P28      1.0000 0.31030  0.38417  0.12369  Biso   1.000  P
  O109     1.0000 0.40511  0.55460  0.00299  Biso   1.000  O
  O110     1.0000 0.40745  0.74730  0.93585  Biso   1.000  O
  O111     1.0000 0.43284  0.78530  0.04137  Biso   1.000  O
  O112     1.0000 0.51436  0.65867  0.99547  Biso   1.000  O
  O113     1.0000 0.34485  0.18690  0.00956  Biso   1.000  O
  O114     1.0000 0.43638  0.23970  0.09200  Biso   1.000  O
  O115     1.0000 0.43961  0.03360  0.03367  Biso   1.000  O
  O116     1.0000 0.35963  0.04985  0.10139  Biso   1.000  O
  O117     1.0000 0.27590  0.41769  0.26128  Biso   1.000  O
  O118     1.0000 0.35518  0.41166  0.35614  Biso   1.000  O
  O119     1.0000 0.23541  0.44960  0.35511  Biso   1.000  O
  O120     1.0000 0.27420  0.22492  0.32874  Biso   1.000  O
  O121     1.0000 0.26888  0.48719  0.14969  Biso   1.000  O
  O122     1.0000 0.34869  0.29175  0.17040  Biso   1.000  O
  O123     1.0000 0.26134  0.29710  0.08276  Biso   1.000  O
  O124     1.0000 0.35719  0.46176  0.09298  Biso   1.000  O
  O125     1.0000 0.24201  0.66662  0.28664  Biso   1.000  O
  O126     1.0000 0.22280  0.06580  0.02463  Biso   1.000  O
  H7       1.0000 0.18370  0.05340  0.01150  Biso   1.000  H
  V22      1.0000 0.93990  0.92237  0.06418  Biso   1.000  V
  V23      1.0000 0.77876  0.09173  0.22234  Biso   1.000  V
  V24      1.0000 0.82622  0.59627  0.17284  Biso   1.000  V
  P29      1.0000 0.94188  0.18526  0.99544  Biso   1.000  P
  P30      1.0000 0.89394  0.62882  0.06065  Biso   1.000  P
  P31      1.0000 0.78552  0.87688  0.32518  Biso   1.000  P
  P32      1.0000 0.81030  0.88417  0.12369  Biso   1.000  P
  O127     1.0000 0.90511  0.05460  0.00299  Biso   1.000  O
  O128     1.0000 0.90745  0.24730  0.93585  Biso   1.000  O
  O129     1.0000 0.93284  0.28530  0.04137  Biso   1.000  O
  O130     1.0000 0.01436  0.15867  0.99547  Biso   1.000  O
  O131     1.0000 0.84485  0.68690  0.00956  Biso   1.000  O
  O132     1.0000 0.93638  0.73970  0.09200  Biso   1.000  O
  O133     1.0000 0.93961  0.53360  0.03367  Biso   1.000  O
  O134     1.0000 0.85963  0.54985  0.10139  Biso   1.000  O
  O135     1.0000 0.77590  0.91769  0.26128  Biso   1.000  O
  O136     1.0000 0.85518  0.91166  0.35614  Biso   1.000  O
  O137     1.0000 0.73541  0.94960  0.35511  Biso   1.000  O
  O138     1.0000 0.77420  0.72492  0.32874  Biso   1.000  O
  O139     1.0000 0.76888  0.98719  0.14969  Biso   1.000  O
  O140     1.0000 0.84869  0.79175  0.17040  Biso   1.000  O
  O141     1.0000 0.76134  0.79710  0.08276  Biso   1.000  O
  O142     1.0000 0.85719  0.96176  0.09298  Biso   1.000  O
  O143     1.0000 0.74201  0.16662  0.28664  Biso   1.000  O
  O144     1.0000 0.72280  0.56580  0.02463  Biso   1.000  O
  H8       1.0000 0.68370  0.55340  0.01150  Biso   1.000  H
  V25      1.0000 0.25000  0.75000  0.50000  Biso   1.000  V
  V26      1.0000 0.75000  0.75000  0.00000  Biso   1.000  V
  V27      1.0000 0.75000  0.25000  0.50000  Biso   1.000  V
  V28      1.0000 0.25000  0.25000  0.00000  Biso   1.000  V
