data_image0
_cell_length_a       10.861
_cell_length_b       6.3914
_cell_length_c       17.003
_cell_angle_alpha    90
_cell_angle_beta     105.828
_cell_angle_gamma    90

_symmetry_space_group_name_H-M    "P 1"
_symmetry_int_tables_number       1

loop_
  _symmetry_equiv_pos_as_xyz
  'x, y, z'

loop_
  _atom_site_label
  _atom_site_occupancy
  _atom_site_fract_x
  _atom_site_fract_y
  _atom_site_fract_z
  _atom_site_thermal_displace_type
  _atom_site_B_iso_or_equiv
  _atom_site_type_symbol
  Zn1      1.0000 0.46915  0.99808  0.08438  Biso   1.000  Zn
  O1       1.0000 0.34450  0.53230  0.04990  Biso   1.000  O
  O2       1.0000 0.27600  0.86080  0.03460  Biso   1.000  O
  O3       1.0000 0.35970  0.62790  0.34460  Biso   1.000  O
  O4       1.0000 0.38250  0.96070  0.38080  Biso   1.000  O
  O5       1.0000 0.55510  0.80940  0.01670  Biso   1.000  O
  H1       1.0000 0.64690  0.80940  0.04460  Biso   1.000  H
  C1       1.0000 0.25660  0.67010  0.03600  Biso   1.000  C
  C2       1.0000 0.12350  0.58370  0.01990  Biso   1.000  C
  C3       1.0000 0.03640  0.65270  0.06200  Biso   1.000  C
  C4       1.0000 0.91360  0.56890  0.03920  Biso   1.000  C
  H2       1.0000 0.85390  0.61800  0.06500  Biso   1.000  H
  C5       1.0000 0.07610  0.80230  0.13110  Biso   1.000  C
  C6       1.0000 0.01870  0.99360  0.13100  Biso   1.000  C
  H3       1.0000 0.94940  0.03090  0.08760  Biso   1.000  H
  C7       1.0000 0.06370  0.13100  0.19530  Biso   1.000  C
  H4       1.0000 0.02530  0.26130  0.19460  Biso   1.000  H
  C8       1.0000 0.16550  0.07560  0.26040  Biso   1.000  C
  H5       1.0000 0.19660  0.17090  0.30240  Biso   1.000  H
  C9       1.0000 0.22200  0.88040  0.26410  Biso   1.000  C
  C10      1.0000 0.17560  0.74420  0.19840  Biso   1.000  C
  H6       1.0000 0.21190  0.61200  0.19960  Biso   1.000  H
  C11      1.0000 0.33060  0.81540  0.33530  Biso   1.000  C
  Zn2      1.0000 0.53085  0.49808  0.41562  Biso   1.000  Zn
  O6       1.0000 0.65550  0.03230  0.45010  Biso   1.000  O
  O7       1.0000 0.72400  0.36080  0.46540  Biso   1.000  O
  O8       1.0000 0.64030  0.12790  0.15540  Biso   1.000  O
  O9       1.0000 0.61750  0.46070  0.11920  Biso   1.000  O
  O10      1.0000 0.44490  0.30940  0.48330  Biso   1.000  O
  H7       1.0000 0.35310  0.30940  0.45540  Biso   1.000  H
  C12      1.0000 0.74340  0.17010  0.46400  Biso   1.000  C
  C13      1.0000 0.87650  0.08370  0.48010  Biso   1.000  C
  C14      1.0000 0.96360  0.15270  0.43800  Biso   1.000  C
  C15      1.0000 0.08640  0.06890  0.46080  Biso   1.000  C
  H8       1.0000 0.14610  0.11800  0.43500  Biso   1.000  H
  C16      1.0000 0.92390  0.30230  0.36890  Biso   1.000  C
  C17      1.0000 0.98130  0.49360  0.36900  Biso   1.000  C
  H9       1.0000 0.05060  0.53090  0.41240  Biso   1.000  H
  C18      1.0000 0.93630  0.63100  0.30470  Biso   1.000  C
  H10      1.0000 0.97470  0.76130  0.30540  Biso   1.000  H
  C19      1.0000 0.83450  0.57560  0.23960  Biso   1.000  C
  H11      1.0000 0.80340  0.67090  0.19760  Biso   1.000  H
  C20      1.0000 0.77800  0.38040  0.23590  Biso   1.000  C
  C21      1.0000 0.82440  0.24420  0.30160  Biso   1.000  C
  H12      1.0000 0.78810  0.11200  0.30040  Biso   1.000  H
  C22      1.0000 0.66940  0.31540  0.16470  Biso   1.000  C
  Zn3      1.0000 0.53085  0.00192  0.91562  Biso   1.000  Zn
  O11      1.0000 0.65550  0.46770  0.95010  Biso   1.000  O
  O12      1.0000 0.72400  0.13920  0.96540  Biso   1.000  O
  O13      1.0000 0.64030  0.37210  0.65540  Biso   1.000  O
  O14      1.0000 0.61750  0.03930  0.61920  Biso   1.000  O
  O15      1.0000 0.44490  0.19060  0.98330  Biso   1.000  O
  H13      1.0000 0.35310  0.19060  0.95540  Biso   1.000  H
  C23      1.0000 0.74340  0.32990  0.96400  Biso   1.000  C
  C24      1.0000 0.87650  0.41630  0.98010  Biso   1.000  C
  C25      1.0000 0.96360  0.34730  0.93800  Biso   1.000  C
  C26      1.0000 0.08640  0.43110  0.96080  Biso   1.000  C
  H14      1.0000 0.14610  0.38200  0.93500  Biso   1.000  H
  C27      1.0000 0.92390  0.19770  0.86890  Biso   1.000  C
  C28      1.0000 0.98130  0.00640  0.86900  Biso   1.000  C
  H15      1.0000 0.05060  0.96910  0.91240  Biso   1.000  H
  C29      1.0000 0.93630  0.86900  0.80470  Biso   1.000  C
  H16      1.0000 0.97470  0.73870  0.80540  Biso   1.000  H
  C30      1.0000 0.83450  0.92440  0.73960  Biso   1.000  C
  H17      1.0000 0.80340  0.82910  0.69760  Biso   1.000  H
  C31      1.0000 0.77800  0.11960  0.73590  Biso   1.000  C
  C32      1.0000 0.82440  0.25580  0.80160  Biso   1.000  C
  H18      1.0000 0.78810  0.38800  0.80040  Biso   1.000  H
  C33      1.0000 0.66940  0.18460  0.66470  Biso   1.000  C
  Zn4      1.0000 0.46915  0.50192  0.58438  Biso   1.000  Zn
  O16      1.0000 0.34450  0.96770  0.54990  Biso   1.000  O
  O17      1.0000 0.27600  0.63920  0.53460  Biso   1.000  O
  O18      1.0000 0.35970  0.87210  0.84460  Biso   1.000  O
  O19      1.0000 0.38250  0.53930  0.88080  Biso   1.000  O
  O20      1.0000 0.55510  0.69060  0.51670  Biso   1.000  O
  H19      1.0000 0.64690  0.69060  0.54460  Biso   1.000  H
  C34      1.0000 0.25660  0.82990  0.53600  Biso   1.000  C
  C35      1.0000 0.12350  0.91630  0.51990  Biso   1.000  C
  C36      1.0000 0.03640  0.84730  0.56200  Biso   1.000  C
  C37      1.0000 0.91360  0.93110  0.53920  Biso   1.000  C
  H20      1.0000 0.85390  0.88200  0.56500  Biso   1.000  H
  C38      1.0000 0.07610  0.69770  0.63110  Biso   1.000  C
  C39      1.0000 0.01870  0.50640  0.63100  Biso   1.000  C
  H21      1.0000 0.94940  0.46910  0.58760  Biso   1.000  H
  C40      1.0000 0.06370  0.36900  0.69530  Biso   1.000  C
  H22      1.0000 0.02530  0.23870  0.69460  Biso   1.000  H
  C41      1.0000 0.16550  0.42440  0.76040  Biso   1.000  C
  H23      1.0000 0.19660  0.32910  0.80240  Biso   1.000  H
  C42      1.0000 0.22200  0.61960  0.76410  Biso   1.000  C
  C43      1.0000 0.17560  0.75580  0.69840  Biso   1.000  C
  H24      1.0000 0.21190  0.88800  0.69960  Biso   1.000  H
  C44      1.0000 0.33060  0.68460  0.83530  Biso   1.000  C
  Zn5      1.0000 0.50000  0.50000  0.00000  Biso   1.000  Zn
  Zn6      1.0000 0.50000  0.00000  0.50000  Biso   1.000  Zn
