data_image0
_cell_length_a       15.8206
_cell_length_b       9.0295
_cell_length_c       18.3005
_cell_angle_alpha    90
_cell_angle_beta     90
_cell_angle_gamma    90

_symmetry_space_group_name_H-M    "P 1"
_symmetry_int_tables_number       1

loop_
  _symmetry_equiv_pos_as_xyz
  'x, y, z'

loop_
  _atom_site_label
  _atom_site_occupancy
  _atom_site_fract_x
  _atom_site_fract_y
  _atom_site_fract_z
  _atom_site_thermal_displace_type
  _atom_site_B_iso_or_equiv
  _atom_site_type_symbol
  V1       1.0000 0.20914  0.24857  0.16342  Biso   1.000  V
  V2       1.0000 0.78752  0.24621  0.08746  Biso   1.000  V
  P1       1.0000 0.25759  0.50750  0.03592  Biso   1.000  P
  P2       1.0000 0.24452  0.00390  0.28658  Biso   1.000  P
  P3       1.0000 0.00380  0.34080  0.10802  Biso   1.000  P
  O1       1.0000 0.30510  0.10360  0.32960  Biso   1.000  O
  O2       1.0000 0.18270  0.09600  0.23990  Biso   1.000  O
  O3       1.0000 0.20120  0.40600  0.08280  Biso   1.000  O
  O4       1.0000 0.19690  0.60550  0.99230  Biso   1.000  O
  O5       1.0000 0.06570  0.27580  0.16140  Biso   1.000  O
  O6       1.0000 0.93090  0.24050  0.08860  Biso   1.000  O
  O7       1.0000 0.19020  0.91250  0.33950  Biso   1.000  O
  O8       1.0000 0.31710  0.59770  0.08490  Biso   1.000  O
  O9       1.0000 0.31370  0.41400  0.98460  Biso   1.000  O
  O10      1.0000 0.30020  0.90500  0.24010  Biso   1.000  O
  O11      1.0000 0.96850  0.49150  0.14000  Biso   1.000  O
  H1       1.0000 0.90910  0.48600  0.15000  Biso   1.000  H
  O12      1.0000 0.05070  0.38530  0.03610  Biso   1.000  O
  H2       1.0000 0.09200  0.46200  0.02900  Biso   1.000  H
  Nb1      1.0000 0.29086  0.74857  0.16342  Biso   1.000  Nb
  V3       1.0000 0.29086  0.75143  0.66342  Biso   1.000  V
  V4       1.0000 0.71248  0.75379  0.58746  Biso   1.000  V
  P4       1.0000 0.24241  0.49250  0.53592  Biso   1.000  P
  P5       1.0000 0.25548  0.99610  0.78658  Biso   1.000  P
  P6       1.0000 0.49620  0.65920  0.60802  Biso   1.000  P
  O13      1.0000 0.19490  0.89640  0.82960  Biso   1.000  O
  O14      1.0000 0.31730  0.90400  0.73990  Biso   1.000  O
  O15      1.0000 0.29880  0.59400  0.58280  Biso   1.000  O
  O16      1.0000 0.30310  0.39450  0.49230  Biso   1.000  O
  O17      1.0000 0.43430  0.72420  0.66140  Biso   1.000  O
  O18      1.0000 0.56910  0.75950  0.58860  Biso   1.000  O
  O19      1.0000 0.30980  0.08750  0.83950  Biso   1.000  O
  O20      1.0000 0.18290  0.40230  0.58490  Biso   1.000  O
  O21      1.0000 0.18630  0.58600  0.48460  Biso   1.000  O
  O22      1.0000 0.19980  0.09500  0.74010  Biso   1.000  O
  O23      1.0000 0.53150  0.50850  0.64000  Biso   1.000  O
  H3       1.0000 0.59090  0.51400  0.65000  Biso   1.000  H
  O24      1.0000 0.44930  0.61470  0.53610  Biso   1.000  O
  H4       1.0000 0.40800  0.53800  0.52900  Biso   1.000  H
  Nb2      1.0000 0.20914  0.25143  0.66342  Biso   1.000  Nb
  V5       1.0000 0.79086  0.74857  0.33658  Biso   1.000  V
  V6       1.0000 0.21248  0.74621  0.41254  Biso   1.000  V
  P7       1.0000 0.74241  0.00750  0.46408  Biso   1.000  P
  P8       1.0000 0.75548  0.50390  0.21342  Biso   1.000  P
  P9       1.0000 0.99620  0.84080  0.39198  Biso   1.000  P
  O25      1.0000 0.69490  0.60360  0.17040  Biso   1.000  O
  O26      1.0000 0.81730  0.59600  0.26010  Biso   1.000  O
  O27      1.0000 0.79880  0.90600  0.41720  Biso   1.000  O
  O28      1.0000 0.80310  0.10550  0.50770  Biso   1.000  O
  O29      1.0000 0.93430  0.77580  0.33860  Biso   1.000  O
  O30      1.0000 0.06910  0.74050  0.41140  Biso   1.000  O
  O31      1.0000 0.80980  0.41250  0.16050  Biso   1.000  O
  O32      1.0000 0.68290  0.09770  0.41510  Biso   1.000  O
  O33      1.0000 0.68630  0.91400  0.51540  Biso   1.000  O
  O34      1.0000 0.69980  0.40500  0.25990  Biso   1.000  O
  O35      1.0000 0.03150  0.99150  0.36000  Biso   1.000  O
  H5       1.0000 0.09090  0.98600  0.35000  Biso   1.000  H
  O36      1.0000 0.94930  0.88530  0.46390  Biso   1.000  O
  H6       1.0000 0.90800  0.96200  0.47100  Biso   1.000  H
  Nb3      1.0000 0.70914  0.24857  0.33658  Biso   1.000  Nb
  V7       1.0000 0.70914  0.25143  0.83658  Biso   1.000  V
  V8       1.0000 0.28752  0.25379  0.91254  Biso   1.000  V
  P10      1.0000 0.75759  0.99250  0.96408  Biso   1.000  P
  P11      1.0000 0.74452  0.49610  0.71342  Biso   1.000  P
  P12      1.0000 0.50380  0.15920  0.89198  Biso   1.000  P
  O37      1.0000 0.80510  0.39640  0.67040  Biso   1.000  O
  O38      1.0000 0.68270  0.40400  0.76010  Biso   1.000  O
  O39      1.0000 0.70120  0.09400  0.91720  Biso   1.000  O
  O40      1.0000 0.69690  0.89450  0.00770  Biso   1.000  O
  O41      1.0000 0.56570  0.22420  0.83860  Biso   1.000  O
  O42      1.0000 0.43090  0.25950  0.91140  Biso   1.000  O
  O43      1.0000 0.69020  0.58750  0.66050  Biso   1.000  O
  O44      1.0000 0.81710  0.90230  0.91510  Biso   1.000  O
  O45      1.0000 0.81370  0.08600  0.01540  Biso   1.000  O
  O46      1.0000 0.80020  0.59500  0.75990  Biso   1.000  O
  O47      1.0000 0.46850  0.00850  0.86000  Biso   1.000  O
  H7       1.0000 0.40910  0.01400  0.85000  Biso   1.000  H
  O48      1.0000 0.55070  0.11470  0.96390  Biso   1.000  O
  H8       1.0000 0.59200  0.03800  0.97100  Biso   1.000  H
  Nb4      1.0000 0.79086  0.75143  0.83658  Biso   1.000  Nb
  V9       1.0000 0.21248  0.75379  0.91254  Biso   1.000  V
  P13      1.0000 0.74241  0.49250  0.96408  Biso   1.000  P
  P14      1.0000 0.75548  0.99610  0.71342  Biso   1.000  P
  P15      1.0000 0.99620  0.65920  0.89198  Biso   1.000  P
  O49      1.0000 0.69490  0.89640  0.67040  Biso   1.000  O
  O50      1.0000 0.81730  0.90400  0.76010  Biso   1.000  O
  O51      1.0000 0.79880  0.59400  0.91720  Biso   1.000  O
  O52      1.0000 0.80310  0.39450  0.00770  Biso   1.000  O
  O53      1.0000 0.93430  0.72420  0.83860  Biso   1.000  O
  O54      1.0000 0.06910  0.75950  0.91140  Biso   1.000  O
  O55      1.0000 0.80980  0.08750  0.66050  Biso   1.000  O
  O56      1.0000 0.68290  0.40230  0.91510  Biso   1.000  O
  O57      1.0000 0.68630  0.58600  0.01540  Biso   1.000  O
  O58      1.0000 0.69980  0.09500  0.75990  Biso   1.000  O
  O59      1.0000 0.03150  0.50850  0.86000  Biso   1.000  O
  H9       1.0000 0.09090  0.51400  0.85000  Biso   1.000  H
  O60      1.0000 0.94930  0.61470  0.96390  Biso   1.000  O
  H10      1.0000 0.90800  0.53800  0.97100  Biso   1.000  H
  V10      1.0000 0.28752  0.24621  0.41254  Biso   1.000  V
  P16      1.0000 0.75759  0.50750  0.46408  Biso   1.000  P
  P17      1.0000 0.74452  0.00390  0.21342  Biso   1.000  P
  P18      1.0000 0.50380  0.34080  0.39198  Biso   1.000  P
  O61      1.0000 0.80510  0.10360  0.17040  Biso   1.000  O
  O62      1.0000 0.68270  0.09600  0.26010  Biso   1.000  O
  O63      1.0000 0.70120  0.40600  0.41720  Biso   1.000  O
  O64      1.0000 0.69690  0.60550  0.50770  Biso   1.000  O
  O65      1.0000 0.56570  0.27580  0.33860  Biso   1.000  O
  O66      1.0000 0.43090  0.24050  0.41140  Biso   1.000  O
  O67      1.0000 0.69020  0.91250  0.16050  Biso   1.000  O
  O68      1.0000 0.81710  0.59770  0.41510  Biso   1.000  O
  O69      1.0000 0.81370  0.41400  0.51540  Biso   1.000  O
  O70      1.0000 0.80020  0.90500  0.25990  Biso   1.000  O
  O71      1.0000 0.46850  0.49150  0.36000  Biso   1.000  O
  H11      1.0000 0.40910  0.48600  0.35000  Biso   1.000  H
  O72      1.0000 0.55070  0.38530  0.46390  Biso   1.000  O
  H12      1.0000 0.59200  0.46200  0.47100  Biso   1.000  H
  V11      1.0000 0.78752  0.25379  0.58746  Biso   1.000  V
  P19      1.0000 0.25759  0.99250  0.53592  Biso   1.000  P
  P20      1.0000 0.24452  0.49610  0.78658  Biso   1.000  P
  P21      1.0000 0.00380  0.15920  0.60802  Biso   1.000  P
  O73      1.0000 0.30510  0.39640  0.82960  Biso   1.000  O
  O74      1.0000 0.18270  0.40400  0.73990  Biso   1.000  O
  O75      1.0000 0.20120  0.09400  0.58280  Biso   1.000  O
  O76      1.0000 0.19690  0.89450  0.49230  Biso   1.000  O
  O77      1.0000 0.06570  0.22420  0.66140  Biso   1.000  O
  O78      1.0000 0.93090  0.25950  0.58860  Biso   1.000  O
  O79      1.0000 0.19020  0.58750  0.83950  Biso   1.000  O
  O80      1.0000 0.31710  0.90230  0.58490  Biso   1.000  O
  O81      1.0000 0.31370  0.08600  0.48460  Biso   1.000  O
  O82      1.0000 0.30020  0.59500  0.74010  Biso   1.000  O
  O83      1.0000 0.96850  0.00850  0.64000  Biso   1.000  O
  H13      1.0000 0.90910  0.01400  0.65000  Biso   1.000  H
  O84      1.0000 0.05070  0.11470  0.53610  Biso   1.000  O
  H14      1.0000 0.09200  0.03800  0.52900  Biso   1.000  H
  V12      1.0000 0.71248  0.74621  0.08746  Biso   1.000  V
  P22      1.0000 0.24241  0.00750  0.03592  Biso   1.000  P
  P23      1.0000 0.25548  0.50390  0.28658  Biso   1.000  P
  P24      1.0000 0.49620  0.84080  0.10802  Biso   1.000  P
  O85      1.0000 0.19490  0.60360  0.32960  Biso   1.000  O
  O86      1.0000 0.31730  0.59600  0.23990  Biso   1.000  O
  O87      1.0000 0.29880  0.90600  0.08280  Biso   1.000  O
  O88      1.0000 0.30310  0.10550  0.99230  Biso   1.000  O
  O89      1.0000 0.43430  0.77580  0.16140  Biso   1.000  O
  O90      1.0000 0.56910  0.74050  0.08860  Biso   1.000  O
  O91      1.0000 0.30980  0.41250  0.33950  Biso   1.000  O
  O92      1.0000 0.18290  0.09770  0.08490  Biso   1.000  O
  O93      1.0000 0.18630  0.91400  0.98460  Biso   1.000  O
  O94      1.0000 0.19980  0.40500  0.24010  Biso   1.000  O
  O95      1.0000 0.53150  0.99150  0.14000  Biso   1.000  O
  H15      1.0000 0.59090  0.98600  0.15000  Biso   1.000  H
  O96      1.0000 0.44930  0.88530  0.03610  Biso   1.000  O
  H16      1.0000 0.40800  0.96200  0.02900  Biso   1.000  H
