data_image0
_cell_length_a       11.6896
_cell_length_b       11.6896
_cell_length_c       9.2357
_cell_angle_alpha    90
_cell_angle_beta     90
_cell_angle_gamma    90

_symmetry_space_group_name_H-M    "P 1"
_symmetry_int_tables_number       1

loop_
  _symmetry_equiv_pos_as_xyz
  'x, y, z'

loop_
  _atom_site_label
  _atom_site_occupancy
  _atom_site_fract_x
  _atom_site_fract_y
  _atom_site_fract_z
  _atom_site_thermal_displace_type
  _atom_site_B_iso_or_equiv
  _atom_site_type_symbol
  Bi1      1.0000 0.00000  0.75000  0.12500  Biso   1.000  Bi
  Bi2      1.0000 0.50000  0.25000  0.62500  Biso   1.000  Bi
  Bi3      1.0000 0.50000  0.75000  0.37500  Biso   1.000  Bi
  Bi4      1.0000 0.00000  0.25000  0.87500  Biso   1.000  Bi
  O1       1.0000 0.00000  0.62620  0.90900  Biso   1.000  O
  O2       1.0000 0.00000  0.45360  0.82000  Biso   1.000  O
  C1       1.0000 0.00000  0.51900  0.92300  Biso   1.000  C
  O3       1.0000 0.50000  0.12620  0.40900  Biso   1.000  O
  O4       1.0000 0.50000  0.95360  0.32000  Biso   1.000  O
  C2       1.0000 0.50000  0.01900  0.42300  Biso   1.000  C
  O5       1.0000 0.50000  0.37380  0.40900  Biso   1.000  O
  O6       1.0000 0.50000  0.54640  0.32000  Biso   1.000  O
  C3       1.0000 0.50000  0.48100  0.42300  Biso   1.000  C
  O7       1.0000 0.00000  0.87380  0.90900  Biso   1.000  O
  O8       1.0000 0.00000  0.04640  0.82000  Biso   1.000  O
  C4       1.0000 0.00000  0.98100  0.92300  Biso   1.000  C
  O9       1.0000 0.62380  0.75000  0.15900  Biso   1.000  O
  O10      1.0000 0.79640  0.75000  0.07000  Biso   1.000  O
  C5       1.0000 0.73100  0.75000  0.17300  Biso   1.000  C
  O11      1.0000 0.87620  0.25000  0.65900  Biso   1.000  O
  O12      1.0000 0.70360  0.25000  0.57000  Biso   1.000  O
  C6       1.0000 0.76900  0.25000  0.67300  Biso   1.000  C
  O13      1.0000 0.50000  0.62620  0.59100  Biso   1.000  O
  O14      1.0000 0.50000  0.45360  0.68000  Biso   1.000  O
  C7       1.0000 0.50000  0.51900  0.57700  Biso   1.000  C
  O15      1.0000 0.00000  0.12620  0.09100  Biso   1.000  O
  O16      1.0000 0.00000  0.95360  0.18000  Biso   1.000  O
  C8       1.0000 0.00000  0.01900  0.07700  Biso   1.000  C
  O17      1.0000 0.00000  0.37380  0.09100  Biso   1.000  O
  O18      1.0000 0.00000  0.54640  0.18000  Biso   1.000  O
  C9       1.0000 0.00000  0.48100  0.07700  Biso   1.000  C
  O19      1.0000 0.50000  0.87380  0.59100  Biso   1.000  O
  O20      1.0000 0.50000  0.04640  0.68000  Biso   1.000  O
  C10      1.0000 0.50000  0.98100  0.57700  Biso   1.000  C
  O21      1.0000 0.87620  0.75000  0.34100  Biso   1.000  O
  O22      1.0000 0.70360  0.75000  0.43000  Biso   1.000  O
  C11      1.0000 0.76900  0.75000  0.32700  Biso   1.000  C
  O23      1.0000 0.62380  0.25000  0.84100  Biso   1.000  O
  O24      1.0000 0.79640  0.25000  0.93000  Biso   1.000  O
  C12      1.0000 0.73100  0.25000  0.82700  Biso   1.000  C
  O25      1.0000 0.37620  0.25000  0.84100  Biso   1.000  O
  O26      1.0000 0.20360  0.25000  0.93000  Biso   1.000  O
  C13      1.0000 0.26900  0.25000  0.82700  Biso   1.000  C
  O27      1.0000 0.12380  0.75000  0.34100  Biso   1.000  O
  O28      1.0000 0.29640  0.75000  0.43000  Biso   1.000  O
  C14      1.0000 0.23100  0.75000  0.32700  Biso   1.000  C
  O29      1.0000 0.12380  0.25000  0.65900  Biso   1.000  O
  O30      1.0000 0.29640  0.25000  0.57000  Biso   1.000  O
  C15      1.0000 0.23100  0.25000  0.67300  Biso   1.000  C
  O31      1.0000 0.37620  0.75000  0.15900  Biso   1.000  O
  O32      1.0000 0.20360  0.75000  0.07000  Biso   1.000  O
  C16      1.0000 0.26900  0.75000  0.17300  Biso   1.000  C
