data_image0
_cell_length_a       20.1244
_cell_length_b       12.6619
_cell_length_c       21.1518
_cell_angle_alpha    90
_cell_angle_beta     110.946
_cell_angle_gamma    90

_symmetry_space_group_name_H-M    "P 1"
_symmetry_int_tables_number       1

loop_
  _symmetry_equiv_pos_as_xyz
  'x, y, z'

loop_
  _atom_site_label
  _atom_site_occupancy
  _atom_site_fract_x
  _atom_site_fract_y
  _atom_site_fract_z
  _atom_site_thermal_displace_type
  _atom_site_B_iso_or_equiv
  _atom_site_type_symbol
  C1       1.0000 0.07430  0.99060  0.93280  Biso   1.000  C
  C2       1.0000 0.13350  0.91970  0.92830  Biso   1.000  C
  H1       1.0000 0.14340  0.86560  0.96220  Biso   1.000  H
  H2       1.0000 0.11880  0.88780  0.88430  Biso   1.000  H
  H3       1.0000 0.17550  0.96110  0.93560  Biso   1.000  H
  O1       1.0000 0.50530  0.12900  0.56650  Biso   1.000  O
  O2       1.0000 0.55530  0.83820  0.72780  Biso   1.000  O
  O3       1.0000 0.67540  0.85660  0.56320  Biso   1.000  O
  O4       1.0000 0.64890  0.05550  0.60950  Biso   1.000  O
  O5       1.0000 0.58350  0.04660  0.69670  Biso   1.000  O
  O6       1.0000 0.67260  0.90040  0.69430  Biso   1.000  O
  O7       1.0000 0.76980  0.02510  0.59080  Biso   1.000  O
  O8       1.0000 0.62310  0.26230  0.59240  Biso   1.000  O
  O9       1.0000 0.55720  0.25430  0.68200  Biso   1.000  O
  O10      1.0000 0.59740  0.00470  0.82280  Biso   1.000  O
  O11      1.0000 0.69000  0.85240  0.82380  Biso   1.000  O
  O12      1.0000 0.79640  0.86300  0.67810  Biso   1.000  O
  O13      1.0000 0.68790  0.21030  0.71420  Biso   1.000  O
  O14      1.0000 0.71580  0.04400  0.80890  Biso   1.000  O
  O15      1.0000 0.78650  0.05090  0.71560  Biso   1.000  O
  O16      1.0000 0.76210  0.22440  0.62020  Biso   1.000  O
  O17      1.0000 0.65210  0.40280  0.69130  Biso   1.000  O
  O18      1.0000 0.57770  0.42300  0.77730  Biso   1.000  O
  O19      1.0000 0.61850  0.21030  0.81300  Biso   1.000  O
  O20      1.0000 0.62220  0.13120  0.93730  Biso   1.000  O
  O21      1.0000 0.72340  0.98910  0.92470  Biso   1.000  O
  O22      1.0000 0.81360  0.81530  0.93990  Biso   1.000  O
  O23      1.0000 0.81560  0.88190  0.81020  Biso   1.000  O
  O24      1.0000 0.93280  0.81980  0.77330  Biso   1.000  O
  O25      1.0000 0.89680  0.00770  0.69250  Biso   1.000  O
  O26      1.0000 0.88370  0.21440  0.72120  Biso   1.000  O
  O27      1.0000 0.79260  0.36080  0.71970  Biso   1.000  O
  O28      1.0000 0.71670  0.34920  0.82350  Biso   1.000  O
  O29      1.0000 0.74210  0.19830  0.91090  Biso   1.000  O
  O30      1.0000 0.85260  0.01390  0.91360  Biso   1.000  O
  O31      1.0000 0.92230  0.01580  0.82560  Biso   1.000  O
  O32      1.0000 0.82180  0.20310  0.82250  Biso   1.000  O
  O33      1.0000 0.93480  0.42030  0.77210  Biso   1.000  O
  O34      1.0000 0.85690  0.38920  0.85660  Biso   1.000  O
  O35      1.0000 0.79700  0.39790  0.95590  Biso   1.000  O
  O36      1.0000 0.88770  0.24110  0.95480  Biso   1.000  O
  O37      1.0000 0.95970  0.24730  0.85350  Biso   1.000  O
  O38      1.0000 0.03210  0.95700  0.96200  Biso   1.000  O
  O39      1.0000 0.06650  0.07970  0.90710  Biso   1.000  O
  O40      1.0000 0.17560  0.10350  0.81910  Biso   1.000  O
  O41      1.0000 0.36740  0.19890  0.61040  Biso   1.000  O
  O42      1.0000 0.68470  0.87820  0.01970  Biso   1.000  O
  Na1      1.0000 0.40700  0.25550  0.52060  Biso   1.000  Na
  K1       1.0000 0.80939  0.76290  0.06820  Biso   1.000  K
  K2       1.0000 0.47163  0.13150  0.73855  Biso   1.000  K
  Ge1      1.0000 0.75503  0.12850  0.76695  Biso   1.000  Ge
  Y1       1.0000 0.95335  0.11049  0.92627  Biso   1.000  Y
  W1       1.0000 0.58627  0.15086  0.63110  Biso   1.000  W
  W2       1.0000 0.62305  0.92723  0.75431  Biso   1.000  W
  W3       1.0000 0.71521  0.93871  0.63011  Biso   1.000  W
  W4       1.0000 0.83848  0.12490  0.64702  Biso   1.000  W
  W5       1.0000 0.71164  0.33549  0.64788  Biso   1.000  W
  W6       1.0000 0.63007  0.32854  0.76040  Biso   1.000  W
  W7       1.0000 0.66266  0.10557  0.87993  Biso   1.000  W
  W8       1.0000 0.78417  0.92035  0.88336  Biso   1.000  W
  W9       1.0000 0.87471  0.92614  0.76152  Biso   1.000  W
  W10      1.0000 0.88939  0.31811  0.79169  Biso   1.000  W
  W11      1.0000 0.80866  0.30278  0.90287  Biso   1.000  W
  Rb1      1.0000 0.02904  0.11838  0.76864  Biso   1.000  Rb
  Rb2      1.0000 0.67309  0.34138  0.98986  Biso   1.000  Rb
  C3       1.0000 0.92570  0.49060  0.56720  Biso   1.000  C
  C4       1.0000 0.86650  0.41970  0.57170  Biso   1.000  C
  H4       1.0000 0.85660  0.36560  0.53780  Biso   1.000  H
  H5       1.0000 0.88120  0.38780  0.61570  Biso   1.000  H
  H6       1.0000 0.82450  0.46110  0.56440  Biso   1.000  H
  O43      1.0000 0.49470  0.62900  0.93350  Biso   1.000  O
  O44      1.0000 0.44470  0.33820  0.77220  Biso   1.000  O
  O45      1.0000 0.32460  0.35660  0.93680  Biso   1.000  O
  O46      1.0000 0.35110  0.55550  0.89050  Biso   1.000  O
  O47      1.0000 0.41650  0.54660  0.80330  Biso   1.000  O
  O48      1.0000 0.32740  0.40040  0.80570  Biso   1.000  O
  O49      1.0000 0.23020  0.52510  0.90920  Biso   1.000  O
  O50      1.0000 0.37690  0.76230  0.90760  Biso   1.000  O
  O51      1.0000 0.44280  0.75430  0.81800  Biso   1.000  O
  O52      1.0000 0.40260  0.50470  0.67720  Biso   1.000  O
  O53      1.0000 0.31000  0.35240  0.67620  Biso   1.000  O
  O54      1.0000 0.20360  0.36300  0.82190  Biso   1.000  O
  O55      1.0000 0.31210  0.71030  0.78580  Biso   1.000  O
  O56      1.0000 0.28420  0.54400  0.69110  Biso   1.000  O
  O57      1.0000 0.21350  0.55090  0.78440  Biso   1.000  O
  O58      1.0000 0.23790  0.72440  0.87980  Biso   1.000  O
  O59      1.0000 0.34790  0.90280  0.80870  Biso   1.000  O
  O60      1.0000 0.42230  0.92300  0.72270  Biso   1.000  O
  O61      1.0000 0.38150  0.71030  0.68700  Biso   1.000  O
  O62      1.0000 0.37780  0.63120  0.56270  Biso   1.000  O
  O63      1.0000 0.27660  0.48910  0.57530  Biso   1.000  O
  O64      1.0000 0.18640  0.31530  0.56010  Biso   1.000  O
  O65      1.0000 0.18440  0.38190  0.68980  Biso   1.000  O
  O66      1.0000 0.06720  0.31980  0.72670  Biso   1.000  O
  O67      1.0000 0.10320  0.50770  0.80750  Biso   1.000  O
  O68      1.0000 0.11630  0.71440  0.77880  Biso   1.000  O
  O69      1.0000 0.20740  0.86080  0.78030  Biso   1.000  O
  O70      1.0000 0.28330  0.84920  0.67650  Biso   1.000  O
  O71      1.0000 0.25790  0.69830  0.58910  Biso   1.000  O
  O72      1.0000 0.14740  0.51390  0.58640  Biso   1.000  O
  O73      1.0000 0.07770  0.51580  0.67440  Biso   1.000  O
  O74      1.0000 0.17820  0.70310  0.67750  Biso   1.000  O
  O75      1.0000 0.06520  0.92030  0.72790  Biso   1.000  O
  O76      1.0000 0.14310  0.88920  0.64340  Biso   1.000  O
  O77      1.0000 0.20300  0.89790  0.54410  Biso   1.000  O
  O78      1.0000 0.11230  0.74110  0.54520  Biso   1.000  O
  O79      1.0000 0.04030  0.74730  0.64650  Biso   1.000  O
  O80      1.0000 0.96790  0.45700  0.53800  Biso   1.000  O
  O81      1.0000 0.93350  0.57970  0.59290  Biso   1.000  O
  O82      1.0000 0.82440  0.60350  0.68090  Biso   1.000  O
  O83      1.0000 0.63260  0.69890  0.88960  Biso   1.000  O
  O84      1.0000 0.31530  0.37820  0.48030  Biso   1.000  O
  Na2      1.0000 0.59300  0.75550  0.97940  Biso   1.000  Na
  K3       1.0000 0.19061  0.26290  0.43180  Biso   1.000  K
  K4       1.0000 0.52837  0.63150  0.76145  Biso   1.000  K
  Ge2      1.0000 0.24497  0.62850  0.73305  Biso   1.000  Ge
  Y2       1.0000 0.04665  0.61049  0.57373  Biso   1.000  Y
  W12      1.0000 0.41373  0.65086  0.86890  Biso   1.000  W
  W13      1.0000 0.37695  0.42723  0.74569  Biso   1.000  W
  W14      1.0000 0.28479  0.43871  0.86989  Biso   1.000  W
  W15      1.0000 0.16152  0.62490  0.85298  Biso   1.000  W
  W16      1.0000 0.28836  0.83549  0.85212  Biso   1.000  W
  W17      1.0000 0.36993  0.82854  0.73960  Biso   1.000  W
  W18      1.0000 0.33734  0.60557  0.62007  Biso   1.000  W
  W19      1.0000 0.21583  0.42035  0.61664  Biso   1.000  W
  W20      1.0000 0.12529  0.42614  0.73848  Biso   1.000  W
  W21      1.0000 0.11061  0.81811  0.70831  Biso   1.000  W
  W22      1.0000 0.19134  0.80278  0.59713  Biso   1.000  W
  Rb3      1.0000 0.97096  0.61838  0.73136  Biso   1.000  Rb
  Rb4      1.0000 0.32691  0.84138  0.51014  Biso   1.000  Rb
  C5       1.0000 0.92570  0.00940  0.06720  Biso   1.000  C
  C6       1.0000 0.86650  0.08030  0.07170  Biso   1.000  C
  H7       1.0000 0.85660  0.13440  0.03780  Biso   1.000  H
  H8       1.0000 0.88120  0.11220  0.11570  Biso   1.000  H
  H9       1.0000 0.82450  0.03890  0.06440  Biso   1.000  H
  O85      1.0000 0.49470  0.87100  0.43350  Biso   1.000  O
  O86      1.0000 0.44470  0.16180  0.27220  Biso   1.000  O
  O87      1.0000 0.32460  0.14340  0.43680  Biso   1.000  O
  O88      1.0000 0.35110  0.94450  0.39050  Biso   1.000  O
  O89      1.0000 0.41650  0.95340  0.30330  Biso   1.000  O
  O90      1.0000 0.32740  0.09960  0.30570  Biso   1.000  O
  O91      1.0000 0.23020  0.97490  0.40920  Biso   1.000  O
  O92      1.0000 0.37690  0.73770  0.40760  Biso   1.000  O
  O93      1.0000 0.44280  0.74570  0.31800  Biso   1.000  O
  O94      1.0000 0.40260  0.99530  0.17720  Biso   1.000  O
  O95      1.0000 0.31000  0.14760  0.17620  Biso   1.000  O
  O96      1.0000 0.20360  0.13700  0.32190  Biso   1.000  O
  O97      1.0000 0.31210  0.78970  0.28580  Biso   1.000  O
  O98      1.0000 0.28420  0.95600  0.19110  Biso   1.000  O
  O99      1.0000 0.21350  0.94910  0.28440  Biso   1.000  O
  O100     1.0000 0.23790  0.77560  0.37980  Biso   1.000  O
  O101     1.0000 0.34790  0.59720  0.30870  Biso   1.000  O
  O102     1.0000 0.42230  0.57700  0.22270  Biso   1.000  O
  O103     1.0000 0.38150  0.78970  0.18700  Biso   1.000  O
  O104     1.0000 0.37780  0.86880  0.06270  Biso   1.000  O
  O105     1.0000 0.27660  0.01090  0.07530  Biso   1.000  O
  O106     1.0000 0.18640  0.18470  0.06010  Biso   1.000  O
  O107     1.0000 0.18440  0.11810  0.18980  Biso   1.000  O
  O108     1.0000 0.06720  0.18020  0.22670  Biso   1.000  O
  O109     1.0000 0.10320  0.99230  0.30750  Biso   1.000  O
  O110     1.0000 0.11630  0.78560  0.27880  Biso   1.000  O
  O111     1.0000 0.20740  0.63920  0.28030  Biso   1.000  O
  O112     1.0000 0.28330  0.65080  0.17650  Biso   1.000  O
  O113     1.0000 0.25790  0.80170  0.08910  Biso   1.000  O
  O114     1.0000 0.14740  0.98610  0.08640  Biso   1.000  O
  O115     1.0000 0.07770  0.98420  0.17440  Biso   1.000  O
  O116     1.0000 0.17820  0.79690  0.17750  Biso   1.000  O
  O117     1.0000 0.06520  0.57970  0.22790  Biso   1.000  O
  O118     1.0000 0.14310  0.61080  0.14340  Biso   1.000  O
  O119     1.0000 0.20300  0.60210  0.04410  Biso   1.000  O
  O120     1.0000 0.11230  0.75890  0.04520  Biso   1.000  O
  O121     1.0000 0.04030  0.75270  0.14650  Biso   1.000  O
  O122     1.0000 0.96790  0.04300  0.03800  Biso   1.000  O
  O123     1.0000 0.93350  0.92030  0.09290  Biso   1.000  O
  O124     1.0000 0.82440  0.89650  0.18090  Biso   1.000  O
  O125     1.0000 0.63260  0.80110  0.38960  Biso   1.000  O
  O126     1.0000 0.31530  0.12180  0.98030  Biso   1.000  O
  Na3      1.0000 0.59300  0.74450  0.47940  Biso   1.000  Na
  K5       1.0000 0.19061  0.23710  0.93180  Biso   1.000  K
  K6       1.0000 0.52837  0.86850  0.26145  Biso   1.000  K
  Ge3      1.0000 0.24497  0.87150  0.23305  Biso   1.000  Ge
  Y3       1.0000 0.04665  0.88951  0.07373  Biso   1.000  Y
  W23      1.0000 0.41373  0.84914  0.36890  Biso   1.000  W
  W24      1.0000 0.37695  0.07277  0.24569  Biso   1.000  W
  W25      1.0000 0.28479  0.06129  0.36989  Biso   1.000  W
  W26      1.0000 0.16152  0.87510  0.35298  Biso   1.000  W
  W27      1.0000 0.28836  0.66451  0.35212  Biso   1.000  W
  W28      1.0000 0.36993  0.67146  0.23960  Biso   1.000  W
  W29      1.0000 0.33734  0.89443  0.12007  Biso   1.000  W
  W30      1.0000 0.21583  0.07965  0.11664  Biso   1.000  W
  W31      1.0000 0.12529  0.07386  0.23848  Biso   1.000  W
  W32      1.0000 0.11061  0.68189  0.20831  Biso   1.000  W
  W33      1.0000 0.19134  0.69722  0.09713  Biso   1.000  W
  Rb5      1.0000 0.97096  0.88162  0.23136  Biso   1.000  Rb
  Rb6      1.0000 0.32691  0.65862  0.01014  Biso   1.000  Rb
  C7       1.0000 0.07430  0.50940  0.43280  Biso   1.000  C
  C8       1.0000 0.13350  0.58030  0.42830  Biso   1.000  C
  H10      1.0000 0.14340  0.63440  0.46220  Biso   1.000  H
  H11      1.0000 0.11880  0.61220  0.38430  Biso   1.000  H
  H12      1.0000 0.17550  0.53890  0.43560  Biso   1.000  H
  O127     1.0000 0.50530  0.37100  0.06650  Biso   1.000  O
  O128     1.0000 0.55530  0.66180  0.22780  Biso   1.000  O
  O129     1.0000 0.67540  0.64340  0.06320  Biso   1.000  O
  O130     1.0000 0.64890  0.44450  0.10950  Biso   1.000  O
  O131     1.0000 0.58350  0.45340  0.19670  Biso   1.000  O
  O132     1.0000 0.67260  0.59960  0.19430  Biso   1.000  O
  O133     1.0000 0.76980  0.47490  0.09080  Biso   1.000  O
  O134     1.0000 0.62310  0.23770  0.09240  Biso   1.000  O
  O135     1.0000 0.55720  0.24570  0.18200  Biso   1.000  O
  O136     1.0000 0.59740  0.49530  0.32280  Biso   1.000  O
  O137     1.0000 0.69000  0.64760  0.32380  Biso   1.000  O
  O138     1.0000 0.79640  0.63700  0.17810  Biso   1.000  O
  O139     1.0000 0.68790  0.28970  0.21420  Biso   1.000  O
  O140     1.0000 0.71580  0.45600  0.30890  Biso   1.000  O
  O141     1.0000 0.78650  0.44910  0.21560  Biso   1.000  O
  O142     1.0000 0.76210  0.27560  0.12020  Biso   1.000  O
  O143     1.0000 0.65210  0.09720  0.19130  Biso   1.000  O
  O144     1.0000 0.57770  0.07700  0.27730  Biso   1.000  O
  O145     1.0000 0.61850  0.28970  0.31300  Biso   1.000  O
  O146     1.0000 0.62220  0.36880  0.43730  Biso   1.000  O
  O147     1.0000 0.72340  0.51090  0.42470  Biso   1.000  O
  O148     1.0000 0.81360  0.68470  0.43990  Biso   1.000  O
  O149     1.0000 0.81560  0.61810  0.31020  Biso   1.000  O
  O150     1.0000 0.93280  0.68020  0.27330  Biso   1.000  O
  O151     1.0000 0.89680  0.49230  0.19250  Biso   1.000  O
  O152     1.0000 0.88370  0.28560  0.22120  Biso   1.000  O
  O153     1.0000 0.79260  0.13920  0.21970  Biso   1.000  O
  O154     1.0000 0.71670  0.15080  0.32350  Biso   1.000  O
  O155     1.0000 0.74210  0.30170  0.41090  Biso   1.000  O
  O156     1.0000 0.85260  0.48610  0.41360  Biso   1.000  O
  O157     1.0000 0.92230  0.48420  0.32560  Biso   1.000  O
  O158     1.0000 0.82180  0.29690  0.32250  Biso   1.000  O
  O159     1.0000 0.93480  0.07970  0.27210  Biso   1.000  O
  O160     1.0000 0.85690  0.11080  0.35660  Biso   1.000  O
  O161     1.0000 0.79700  0.10210  0.45590  Biso   1.000  O
  O162     1.0000 0.88770  0.25890  0.45480  Biso   1.000  O
  O163     1.0000 0.95970  0.25270  0.35350  Biso   1.000  O
  O164     1.0000 0.03210  0.54300  0.46200  Biso   1.000  O
  O165     1.0000 0.06650  0.42030  0.40710  Biso   1.000  O
  O166     1.0000 0.17560  0.39650  0.31910  Biso   1.000  O
  O167     1.0000 0.36740  0.30110  0.11040  Biso   1.000  O
  O168     1.0000 0.68470  0.62180  0.51970  Biso   1.000  O
  Na4      1.0000 0.40700  0.24450  0.02060  Biso   1.000  Na
  K7       1.0000 0.80939  0.73710  0.56820  Biso   1.000  K
  K8       1.0000 0.47163  0.36850  0.23855  Biso   1.000  K
  Ge4      1.0000 0.75503  0.37150  0.26695  Biso   1.000  Ge
  Y4       1.0000 0.95335  0.38951  0.42627  Biso   1.000  Y
  W34      1.0000 0.58627  0.34914  0.13110  Biso   1.000  W
  W35      1.0000 0.62305  0.57277  0.25431  Biso   1.000  W
  W36      1.0000 0.71521  0.56129  0.13011  Biso   1.000  W
  W37      1.0000 0.83848  0.37510  0.14702  Biso   1.000  W
  W38      1.0000 0.71164  0.16451  0.14788  Biso   1.000  W
  W39      1.0000 0.63007  0.17146  0.26040  Biso   1.000  W
  W40      1.0000 0.66266  0.39443  0.37993  Biso   1.000  W
  W41      1.0000 0.78417  0.57965  0.38336  Biso   1.000  W
  W42      1.0000 0.87471  0.57386  0.26152  Biso   1.000  W
  W43      1.0000 0.88939  0.18189  0.29169  Biso   1.000  W
  W44      1.0000 0.80866  0.19722  0.40287  Biso   1.000  W
  Rb7      1.0000 0.02904  0.38162  0.26864  Biso   1.000  Rb
  Rb8      1.0000 0.67309  0.15862  0.48986  Biso   1.000  Rb
