data_image0
_cell_length_a       20.1399
_cell_length_b       12.6527
_cell_length_c       21.1473
_cell_angle_alpha    90
_cell_angle_beta     110.702
_cell_angle_gamma    90

_symmetry_space_group_name_H-M    "P 1"
_symmetry_int_tables_number       1

loop_
  _symmetry_equiv_pos_as_xyz
  'x, y, z'

loop_
  _atom_site_label
  _atom_site_occupancy
  _atom_site_fract_x
  _atom_site_fract_y
  _atom_site_fract_z
  _atom_site_thermal_displace_type
  _atom_site_B_iso_or_equiv
  _atom_site_type_symbol
  O1       1.0000 0.93320  0.67840  0.77130  Biso   1.000  O
  O2       1.0000 0.57900  0.07600  0.77860  Biso   1.000  O
  O3       1.0000 0.55650  0.66130  0.72770  Biso   1.000  O
  O4       1.0000 0.95570  0.25390  0.85230  Biso   1.000  O
  O5       1.0000 0.50760  0.37300  0.56770  Biso   1.000  O
  O6       1.0000 0.71790  0.14580  0.82400  Biso   1.000  O
  O7       1.0000 0.85760  0.11150  0.85460  Biso   1.000  O
  O8       1.0000 0.81390  0.68210  0.93890  Biso   1.000  O
  O9       1.0000 0.79990  0.10230  0.95580  Biso   1.000  O
  O10      1.0000 0.88690  0.26130  0.95110  Biso   1.000  O
  O11      1.0000 0.62090  0.36970  0.93670  Biso   1.000  O
  O12      1.0000 0.85400  0.48530  0.91300  Biso   1.000  O
  O13      1.0000 0.81460  0.29990  0.81530  Biso   1.000  O
  O14      1.0000 0.71790  0.45080  0.80480  Biso   1.000  O
  O15      1.0000 0.78550  0.44240  0.71890  Biso   1.000  O
  O16      1.0000 0.61880  0.28870  0.81320  Biso   1.000  O
  O17      1.0000 0.92470  0.48150  0.82500  Biso   1.000  O
  O18      1.0000 0.69140  0.64590  0.82360  Biso   1.000  O
  O19      1.0000 0.55970  0.24880  0.68380  Biso   1.000  O
  O20      1.0000 0.65200  0.09710  0.69020  Biso   1.000  O
  O21      1.0000 0.79750  0.63280  0.67840  Biso   1.000  O
  O22      1.0000 0.67580  0.64700  0.56360  Biso   1.000  O
  O23      1.0000 0.93630  0.07940  0.77300  Biso   1.000  O
  O24      1.0000 0.79420  0.13390  0.71770  Biso   1.000  O
  O25      1.0000 0.88540  0.28410  0.71950  Biso   1.000  O
  O26      1.0000 0.59920  0.49510  0.82160  Biso   1.000  O
  O27      1.0000 0.72080  0.50910  0.92220  Biso   1.000  O
  O28      1.0000 0.73960  0.29930  0.90990  Biso   1.000  O
  O29      1.0000 0.67290  0.60180  0.69350  Biso   1.000  O
  O30      1.0000 0.62460  0.23870  0.59300  Biso   1.000  O
  O31      1.0000 0.64760  0.44450  0.60790  Biso   1.000  O
  O32      1.0000 0.89730  0.48930  0.69190  Biso   1.000  O
  O33      1.0000 0.77190  0.47390  0.59120  Biso   1.000  O
  O34      1.0000 0.76170  0.27090  0.61910  Biso   1.000  O
  O35      1.0000 0.58330  0.45280  0.69560  Biso   1.000  O
  O36      1.0000 0.81640  0.61890  0.80950  Biso   1.000  O
  O37      1.0000 0.36680  0.30260  0.61280  Biso   1.000  O
  O38      1.0000 0.17370  0.39550  0.81750  Biso   1.000  O
  O39      1.0000 0.03350  0.54050  0.96240  Biso   1.000  O
  O40      1.0000 0.31210  0.12240  0.48070  Biso   1.000  O
  O41      1.0000 0.06590  0.42210  0.90780  Biso   1.000  O
  O42      1.0000 0.69300  0.29430  0.71610  Biso   1.000  O
  Na1      1.0000 0.40540  0.24650  0.52100  Biso   1.000  Na
  Si1      1.0000 0.75320  0.37030  0.76480  Biso   1.000  Si
  Y1       1.0000 0.95490  0.39011  0.92668  Biso   1.000  Y
  Cs1      1.0000 0.18910  0.23840  0.43090  Biso   1.000  Cs
  Cs2      1.0000 0.67270  0.15720  0.98940  Biso   1.000  Cs
  Cs3      1.0000 0.47220  0.36850  0.73890  Biso   1.000  Cs
  Cs4      1.0000 0.02710  0.38220  0.76820  Biso   1.000  Cs
  W1       1.0000 0.58713  0.34890  0.63120  Biso   1.000  W
  W2       1.0000 0.62390  0.57214  0.75383  Biso   1.000  W
  W3       1.0000 0.66282  0.39250  0.87871  Biso   1.000  W
  W4       1.0000 0.80792  0.19742  0.90072  Biso   1.000  W
  W5       1.0000 0.78516  0.57701  0.88274  Biso   1.000  W
  W6       1.0000 0.63032  0.17010  0.76023  Biso   1.000  W
  W7       1.0000 0.83854  0.37361  0.64629  Biso   1.000  W
  W8       1.0000 0.88856  0.18227  0.79023  Biso   1.000  W
  W9       1.0000 0.87517  0.57169  0.76149  Biso   1.000  W
  W10      1.0000 0.71559  0.56019  0.63005  Biso   1.000  W
  W11      1.0000 0.71257  0.16357  0.64758  Biso   1.000  W
  C1       1.0000 0.07590  0.51040  0.93360  Biso   1.000  C
  C2       1.0000 0.13100  0.58180  0.92890  Biso   1.000  C
  H1       1.0000 0.11260  0.62280  0.88820  Biso   1.000  H
  H2       1.0000 0.14560  0.62810  0.96730  Biso   1.000  H
  H3       1.0000 0.17100  0.54120  0.92820  Biso   1.000  H
  O43      1.0000 0.06680  0.17840  0.72870  Biso   1.000  O
  O44      1.0000 0.42100  0.57600  0.72140  Biso   1.000  O
  O45      1.0000 0.44350  0.16130  0.77230  Biso   1.000  O
  O46      1.0000 0.04430  0.75390  0.64770  Biso   1.000  O
  O47      1.0000 0.49240  0.87300  0.93230  Biso   1.000  O
  O48      1.0000 0.28210  0.64580  0.67600  Biso   1.000  O
  O49      1.0000 0.14240  0.61150  0.64540  Biso   1.000  O
  O50      1.0000 0.18610  0.18210  0.56110  Biso   1.000  O
  O51      1.0000 0.20010  0.60230  0.54420  Biso   1.000  O
  O52      1.0000 0.11310  0.76130  0.54890  Biso   1.000  O
  O53      1.0000 0.37910  0.86970  0.56330  Biso   1.000  O
  O54      1.0000 0.14600  0.98530  0.58700  Biso   1.000  O
  O55      1.0000 0.18540  0.79990  0.68470  Biso   1.000  O
  O56      1.0000 0.28210  0.95080  0.69520  Biso   1.000  O
  O57      1.0000 0.21450  0.94240  0.78110  Biso   1.000  O
  O58      1.0000 0.38120  0.78870  0.68680  Biso   1.000  O
  O59      1.0000 0.07530  0.98150  0.67500  Biso   1.000  O
  O60      1.0000 0.30860  0.14590  0.67640  Biso   1.000  O
  O61      1.0000 0.44030  0.74880  0.81620  Biso   1.000  O
  O62      1.0000 0.34800  0.59710  0.80980  Biso   1.000  O
  O63      1.0000 0.20250  0.13280  0.82160  Biso   1.000  O
  O64      1.0000 0.32420  0.14700  0.93640  Biso   1.000  O
  O65      1.0000 0.06370  0.57940  0.72700  Biso   1.000  O
  O66      1.0000 0.20580  0.63390  0.78230  Biso   1.000  O
  O67      1.0000 0.11460  0.78410  0.78050  Biso   1.000  O
  O68      1.0000 0.40080  0.99510  0.67840  Biso   1.000  O
  O69      1.0000 0.27920  0.00910  0.57780  Biso   1.000  O
  O70      1.0000 0.26040  0.79930  0.59010  Biso   1.000  O
  O71      1.0000 0.32710  0.10180  0.80650  Biso   1.000  O
  O72      1.0000 0.37540  0.73870  0.90700  Biso   1.000  O
  O73      1.0000 0.35240  0.94450  0.89210  Biso   1.000  O
  O74      1.0000 0.10270  0.98930  0.80810  Biso   1.000  O
  O75      1.0000 0.22810  0.97390  0.90880  Biso   1.000  O
  O76      1.0000 0.23830  0.77090  0.88090  Biso   1.000  O
  O77      1.0000 0.41670  0.95280  0.80440  Biso   1.000  O
  O78      1.0000 0.18360  0.11890  0.69050  Biso   1.000  O
  O79      1.0000 0.63320  0.80260  0.88720  Biso   1.000  O
  O80      1.0000 0.82630  0.89550  0.68250  Biso   1.000  O
  O81      1.0000 0.96650  0.04050  0.53760  Biso   1.000  O
  O82      1.0000 0.68790  0.62240  0.01930  Biso   1.000  O
  O83      1.0000 0.93410  0.92210  0.59220  Biso   1.000  O
  O84      1.0000 0.30700  0.79430  0.78390  Biso   1.000  O
  Na2      1.0000 0.59460  0.74650  0.97900  Biso   1.000  Na
  Si2      1.0000 0.24680  0.87030  0.73520  Biso   1.000  Si
  Y2       1.0000 0.04510  0.89011  0.57332  Biso   1.000  Y
  Cs5      1.0000 0.81090  0.73840  0.06910  Biso   1.000  Cs
  Cs6      1.0000 0.32730  0.65720  0.51060  Biso   1.000  Cs
  Cs7      1.0000 0.52780  0.86850  0.76110  Biso   1.000  Cs
  Cs8      1.0000 0.97290  0.88220  0.73180  Biso   1.000  Cs
  W12      1.0000 0.41287  0.84890  0.86880  Biso   1.000  W
  W13      1.0000 0.37610  0.07214  0.74617  Biso   1.000  W
  W14      1.0000 0.33718  0.89250  0.62129  Biso   1.000  W
  W15      1.0000 0.19208  0.69742  0.59928  Biso   1.000  W
  W16      1.0000 0.21484  0.07701  0.61726  Biso   1.000  W
  W17      1.0000 0.36968  0.67010  0.73977  Biso   1.000  W
  W18      1.0000 0.16146  0.87361  0.85371  Biso   1.000  W
  W19      1.0000 0.11144  0.68227  0.70977  Biso   1.000  W
  W20      1.0000 0.12483  0.07169  0.73851  Biso   1.000  W
  W21      1.0000 0.28441  0.06019  0.86995  Biso   1.000  W
  W22      1.0000 0.28743  0.66357  0.85242  Biso   1.000  W
  C3       1.0000 0.92410  0.01040  0.56640  Biso   1.000  C
  C4       1.0000 0.86900  0.08180  0.57110  Biso   1.000  C
  H4       1.0000 0.88740  0.12280  0.61180  Biso   1.000  H
  H5       1.0000 0.85440  0.12810  0.53270  Biso   1.000  H
  H6       1.0000 0.82900  0.04120  0.57180  Biso   1.000  H
  O85      1.0000 0.06680  0.32160  0.22870  Biso   1.000  O
  O86      1.0000 0.42100  0.92400  0.22140  Biso   1.000  O
  O87      1.0000 0.44350  0.33870  0.27230  Biso   1.000  O
  O88      1.0000 0.04430  0.74610  0.14770  Biso   1.000  O
  O89      1.0000 0.49240  0.62700  0.43230  Biso   1.000  O
  O90      1.0000 0.28210  0.85420  0.17600  Biso   1.000  O
  O91      1.0000 0.14240  0.88850  0.14540  Biso   1.000  O
  O92      1.0000 0.18610  0.31790  0.06110  Biso   1.000  O
  O93      1.0000 0.20010  0.89770  0.04420  Biso   1.000  O
  O94      1.0000 0.11310  0.73870  0.04890  Biso   1.000  O
  O95      1.0000 0.37910  0.63030  0.06330  Biso   1.000  O
  O96      1.0000 0.14600  0.51470  0.08700  Biso   1.000  O
  O97      1.0000 0.18540  0.70010  0.18470  Biso   1.000  O
  O98      1.0000 0.28210  0.54920  0.19520  Biso   1.000  O
  O99      1.0000 0.21450  0.55760  0.28110  Biso   1.000  O
  O100     1.0000 0.38120  0.71130  0.18680  Biso   1.000  O
  O101     1.0000 0.07530  0.51850  0.17500  Biso   1.000  O
  O102     1.0000 0.30860  0.35410  0.17640  Biso   1.000  O
  O103     1.0000 0.44030  0.75120  0.31620  Biso   1.000  O
  O104     1.0000 0.34800  0.90290  0.30980  Biso   1.000  O
  O105     1.0000 0.20250  0.36720  0.32160  Biso   1.000  O
  O106     1.0000 0.32420  0.35300  0.43640  Biso   1.000  O
  O107     1.0000 0.06370  0.92060  0.22700  Biso   1.000  O
  O108     1.0000 0.20580  0.86610  0.28230  Biso   1.000  O
  O109     1.0000 0.11460  0.71590  0.28050  Biso   1.000  O
  O110     1.0000 0.40080  0.50490  0.17840  Biso   1.000  O
  O111     1.0000 0.27920  0.49090  0.07780  Biso   1.000  O
  O112     1.0000 0.26040  0.70070  0.09010  Biso   1.000  O
  O113     1.0000 0.32710  0.39820  0.30650  Biso   1.000  O
  O114     1.0000 0.37540  0.76130  0.40700  Biso   1.000  O
  O115     1.0000 0.35240  0.55550  0.39210  Biso   1.000  O
  O116     1.0000 0.10270  0.51070  0.30810  Biso   1.000  O
  O117     1.0000 0.22810  0.52610  0.40880  Biso   1.000  O
  O118     1.0000 0.23830  0.72910  0.38090  Biso   1.000  O
  O119     1.0000 0.41670  0.54720  0.30440  Biso   1.000  O
  O120     1.0000 0.18360  0.38110  0.19050  Biso   1.000  O
  O121     1.0000 0.63320  0.69740  0.38720  Biso   1.000  O
  O122     1.0000 0.82630  0.60450  0.18250  Biso   1.000  O
  O123     1.0000 0.96650  0.45950  0.03760  Biso   1.000  O
  O124     1.0000 0.68790  0.87760  0.51930  Biso   1.000  O
  O125     1.0000 0.93410  0.57790  0.09220  Biso   1.000  O
  O126     1.0000 0.30700  0.70570  0.28390  Biso   1.000  O
  Na3      1.0000 0.59460  0.75350  0.47900  Biso   1.000  Na
  Si3      1.0000 0.24680  0.62970  0.23520  Biso   1.000  Si
  Y3       1.0000 0.04510  0.60989  0.07332  Biso   1.000  Y
  Cs9      1.0000 0.81090  0.76160  0.56910  Biso   1.000  Cs
  Cs10     1.0000 0.32730  0.84280  0.01060  Biso   1.000  Cs
  Cs11     1.0000 0.52780  0.63150  0.26110  Biso   1.000  Cs
  Cs12     1.0000 0.97290  0.61780  0.23180  Biso   1.000  Cs
  W23      1.0000 0.41287  0.65110  0.36880  Biso   1.000  W
  W24      1.0000 0.37610  0.42786  0.24617  Biso   1.000  W
  W25      1.0000 0.33718  0.60750  0.12129  Biso   1.000  W
  W26      1.0000 0.19208  0.80258  0.09928  Biso   1.000  W
  W27      1.0000 0.21484  0.42299  0.11726  Biso   1.000  W
  W28      1.0000 0.36968  0.82990  0.23977  Biso   1.000  W
  W29      1.0000 0.16146  0.62639  0.35371  Biso   1.000  W
  W30      1.0000 0.11144  0.81773  0.20977  Biso   1.000  W
  W31      1.0000 0.12483  0.42831  0.23851  Biso   1.000  W
  W32      1.0000 0.28441  0.43981  0.36995  Biso   1.000  W
  W33      1.0000 0.28743  0.83643  0.35242  Biso   1.000  W
  C5       1.0000 0.92410  0.48960  0.06640  Biso   1.000  C
  C6       1.0000 0.86900  0.41820  0.07110  Biso   1.000  C
  H7       1.0000 0.88740  0.37720  0.11180  Biso   1.000  H
  H8       1.0000 0.85440  0.37190  0.03270  Biso   1.000  H
  H9       1.0000 0.82900  0.45880  0.07180  Biso   1.000  H
  O127     1.0000 0.93320  0.82160  0.27130  Biso   1.000  O
  O128     1.0000 0.57900  0.42400  0.27860  Biso   1.000  O
  O129     1.0000 0.55650  0.83870  0.22770  Biso   1.000  O
  O130     1.0000 0.95570  0.24610  0.35230  Biso   1.000  O
  O131     1.0000 0.50760  0.12700  0.06770  Biso   1.000  O
  O132     1.0000 0.71790  0.35420  0.32400  Biso   1.000  O
  O133     1.0000 0.85760  0.38850  0.35460  Biso   1.000  O
  O134     1.0000 0.81390  0.81790  0.43890  Biso   1.000  O
  O135     1.0000 0.79990  0.39770  0.45580  Biso   1.000  O
  O136     1.0000 0.88690  0.23870  0.45110  Biso   1.000  O
  O137     1.0000 0.62090  0.13030  0.43670  Biso   1.000  O
  O138     1.0000 0.85400  0.01470  0.41300  Biso   1.000  O
  O139     1.0000 0.81460  0.20010  0.31530  Biso   1.000  O
  O140     1.0000 0.71790  0.04920  0.30480  Biso   1.000  O
  O141     1.0000 0.78550  0.05760  0.21890  Biso   1.000  O
  O142     1.0000 0.61880  0.21130  0.31320  Biso   1.000  O
  O143     1.0000 0.92470  0.01850  0.32500  Biso   1.000  O
  O144     1.0000 0.69140  0.85410  0.32360  Biso   1.000  O
  O145     1.0000 0.55970  0.25120  0.18380  Biso   1.000  O
  O146     1.0000 0.65200  0.40290  0.19020  Biso   1.000  O
  O147     1.0000 0.79750  0.86720  0.17840  Biso   1.000  O
  O148     1.0000 0.67580  0.85300  0.06360  Biso   1.000  O
  O149     1.0000 0.93630  0.42060  0.27300  Biso   1.000  O
  O150     1.0000 0.79420  0.36610  0.21770  Biso   1.000  O
  O151     1.0000 0.88540  0.21590  0.21950  Biso   1.000  O
  O152     1.0000 0.59920  0.00490  0.32160  Biso   1.000  O
  O153     1.0000 0.72080  0.99090  0.42220  Biso   1.000  O
  O154     1.0000 0.73960  0.20070  0.40990  Biso   1.000  O
  O155     1.0000 0.67290  0.89820  0.19350  Biso   1.000  O
  O156     1.0000 0.62460  0.26130  0.09300  Biso   1.000  O
  O157     1.0000 0.64760  0.05550  0.10790  Biso   1.000  O
  O158     1.0000 0.89730  0.01070  0.19190  Biso   1.000  O
  O159     1.0000 0.77190  0.02610  0.09120  Biso   1.000  O
  O160     1.0000 0.76170  0.22910  0.11910  Biso   1.000  O
  O161     1.0000 0.58330  0.04720  0.19560  Biso   1.000  O
  O162     1.0000 0.81640  0.88110  0.30950  Biso   1.000  O
  O163     1.0000 0.36680  0.19740  0.11280  Biso   1.000  O
  O164     1.0000 0.17370  0.10450  0.31750  Biso   1.000  O
  O165     1.0000 0.03350  0.95950  0.46240  Biso   1.000  O
  O166     1.0000 0.31210  0.37760  0.98070  Biso   1.000  O
  O167     1.0000 0.06590  0.07790  0.40780  Biso   1.000  O
  O168     1.0000 0.69300  0.20570  0.21610  Biso   1.000  O
  Na4      1.0000 0.40540  0.25350  0.02100  Biso   1.000  Na
  Si4      1.0000 0.75320  0.12970  0.26480  Biso   1.000  Si
  Y4       1.0000 0.95490  0.10989  0.42668  Biso   1.000  Y
  Cs13     1.0000 0.18910  0.26160  0.93090  Biso   1.000  Cs
  Cs14     1.0000 0.67270  0.34280  0.48940  Biso   1.000  Cs
  Cs15     1.0000 0.47220  0.13150  0.23890  Biso   1.000  Cs
  Cs16     1.0000 0.02710  0.11780  0.26820  Biso   1.000  Cs
  W34      1.0000 0.58713  0.15110  0.13120  Biso   1.000  W
  W35      1.0000 0.62390  0.92786  0.25383  Biso   1.000  W
  W36      1.0000 0.66282  0.10750  0.37871  Biso   1.000  W
  W37      1.0000 0.80792  0.30258  0.40072  Biso   1.000  W
  W38      1.0000 0.78516  0.92299  0.38274  Biso   1.000  W
  W39      1.0000 0.63032  0.32990  0.26023  Biso   1.000  W
  W40      1.0000 0.83854  0.12639  0.14629  Biso   1.000  W
  W41      1.0000 0.88856  0.31773  0.29023  Biso   1.000  W
  W42      1.0000 0.87517  0.92831  0.26149  Biso   1.000  W
  W43      1.0000 0.71559  0.93981  0.13005  Biso   1.000  W
  W44      1.0000 0.71257  0.33643  0.14758  Biso   1.000  W
  C7       1.0000 0.07590  0.98960  0.43360  Biso   1.000  C
  C8       1.0000 0.13100  0.91820  0.42890  Biso   1.000  C
  H10      1.0000 0.11260  0.87720  0.38820  Biso   1.000  H
  H11      1.0000 0.14560  0.87190  0.46730  Biso   1.000  H
  H12      1.0000 0.17100  0.95880  0.42820  Biso   1.000  H
