data_image0
_cell_length_a       7.6297
_cell_length_b       26.8079
_cell_length_c       15.0922
_cell_angle_alpha    90
_cell_angle_beta     90.838
_cell_angle_gamma    90

_symmetry_space_group_name_H-M    "P 1"
_symmetry_int_tables_number       1

loop_
  _symmetry_equiv_pos_as_xyz
  'x, y, z'

loop_
  _atom_site_label
  _atom_site_occupancy
  _atom_site_fract_x
  _atom_site_fract_y
  _atom_site_fract_z
  _atom_site_thermal_displace_type
  _atom_site_B_iso_or_equiv
  _atom_site_type_symbol
  C1       1.0000 0.01270  0.09409  0.52730  Biso   1.000  C
  C2       1.0000 0.86920  0.10645  0.46060  Biso   1.000  C
  C3       1.0000 0.90560  0.12350  0.37650  Biso   1.000  C
  C4       1.0000 0.76600  0.13665  0.32170  Biso   1.000  C
  H1       1.0000 0.79060  0.14700  0.26440  Biso   1.000  H
  C5       1.0000 0.56400  0.11952  0.42840  Biso   1.000  C
  H2       1.0000 0.44830  0.11860  0.44700  Biso   1.000  H
  C6       1.0000 0.69480  0.10455  0.48630  Biso   1.000  C
  H3       1.0000 0.66670  0.09320  0.54260  Biso   1.000  H
  C7       1.0000 0.08810  0.12841  0.33910  Biso   1.000  C
  C8       1.0000 0.43380  0.05095  0.17830  Biso   1.000  C
  H4       1.0000 0.40910  0.04400  0.23720  Biso   1.000  H
  C9       1.0000 0.45250  0.01151  0.12030  Biso   1.000  C
  H5       1.0000 0.43810  0.97890  0.14010  Biso   1.000  H
  C10      1.0000 0.49290  0.02064  0.03230  Biso   1.000  C
  C11      1.0000 0.51620  0.07010  0.00830  Biso   1.000  C
  H6       1.0000 0.54720  0.07820  0.95070  Biso   1.000  H
  C12      1.0000 0.49310  0.10726  0.07060  Biso   1.000  C
  H7       1.0000 0.50910  0.14020  0.05320  Biso   1.000  H
  N1       1.0000 0.59770  0.13547  0.34600  Biso   1.000  N
  N2       1.0000 0.44930  0.09846  0.15400  Biso   1.000  N
  O1       1.0000 0.98420  0.06084  0.58419  Biso   1.000  O
  O2       1.0000 0.15070  0.11913  0.52550  Biso   1.000  O
  O3       1.0000 0.17490  0.09084  0.32410  Biso   1.000  O
  O4       1.0000 0.13760  0.17181  0.32160  Biso   1.000  O
  Cd1      1.0000 0.38320  0.16474  0.24487  Biso   1.000  Cd
  C13      1.0000 0.98730  0.90591  0.47270  Biso   1.000  C
  C14      1.0000 0.13080  0.89355  0.53940  Biso   1.000  C
  C15      1.0000 0.09440  0.87650  0.62350  Biso   1.000  C
  C16      1.0000 0.23400  0.86335  0.67830  Biso   1.000  C
  H8       1.0000 0.20940  0.85300  0.73560  Biso   1.000  H
  C17      1.0000 0.43600  0.88048  0.57160  Biso   1.000  C
  H9       1.0000 0.55170  0.88140  0.55300  Biso   1.000  H
  C18      1.0000 0.30520  0.89545  0.51370  Biso   1.000  C
  H10      1.0000 0.33330  0.90680  0.45740  Biso   1.000  H
  C19      1.0000 0.91190  0.87159  0.66090  Biso   1.000  C
  C20      1.0000 0.56620  0.94905  0.82170  Biso   1.000  C
  H11      1.0000 0.59090  0.95600  0.76280  Biso   1.000  H
  C21      1.0000 0.54750  0.98849  0.87970  Biso   1.000  C
  H12      1.0000 0.56190  0.02110  0.85990  Biso   1.000  H
  C22      1.0000 0.50710  0.97936  0.96770  Biso   1.000  C
  C23      1.0000 0.48380  0.92990  0.99170  Biso   1.000  C
  H13      1.0000 0.45280  0.92180  0.04930  Biso   1.000  H
  C24      1.0000 0.50690  0.89274  0.92940  Biso   1.000  C
  H14      1.0000 0.49090  0.85980  0.94680  Biso   1.000  H
  N3       1.0000 0.40230  0.86453  0.65400  Biso   1.000  N
  N4       1.0000 0.55070  0.90154  0.84600  Biso   1.000  N
  O5       1.0000 0.01580  0.93916  0.41581  Biso   1.000  O
  O6       1.0000 0.84930  0.88087  0.47450  Biso   1.000  O
  O7       1.0000 0.82510  0.90916  0.67590  Biso   1.000  O
  O8       1.0000 0.86240  0.82819  0.67840  Biso   1.000  O
  Cd2      1.0000 0.61680  0.83526  0.75513  Biso   1.000  Cd
  C25      1.0000 0.05680  0.19894  0.72100  Biso   1.000  C
  H15      1.0000 0.17150  0.21070  0.72100  Biso   1.000  H
  C26      1.0000 0.92130  0.23294  0.72210  Biso   1.000  C
  H16      1.0000 0.94540  0.26690  0.72430  Biso   1.000  H
  C27      1.0000 0.74900  0.21644  0.72000  Biso   1.000  C
  C28      1.0000 0.71960  0.16507  0.72180  Biso   1.000  C
  C29      1.0000 0.86420  0.13369  0.72270  Biso   1.000  C
  H17      1.0000 0.84490  0.09950  0.72550  Biso   1.000  H
  C30      1.0000 0.54350  0.14023  0.71260  Biso   1.000  C
  C31      1.0000 0.60510  0.25499  0.72100  Biso   1.000  C
  C32      1.0000 0.14890  0.07596  0.86970  Biso   1.000  C
  H18      1.0000 0.18990  0.10860  0.86690  Biso   1.000  H
  C33      1.0000 0.08950  0.05893  0.94960  Biso   1.000  C
  H19      1.0000 0.08860  0.07990  0.99870  Biso   1.000  H
  C34      1.0000 0.03050  0.00989  0.95650  Biso   1.000  C
  C35      1.0000 0.03690  0.98120  0.88080  Biso   1.000  C
  H20      1.0000 0.00180  0.94800  0.88220  Biso   1.000  H
  C36      1.0000 0.09580  0.00199  0.80250  Biso   1.000  C
  H21      1.0000 0.09640  0.98230  0.75180  Biso   1.000  H
  N5       1.0000 0.02970  0.14996  0.71980  Biso   1.000  N
  N6       1.0000 0.15140  0.04888  0.79680  Biso   1.000  N
  O9       1.0000 0.62020  0.29175  0.67100  Biso   1.000  O
  O10      1.0000 0.48380  0.25106  0.77460  Biso   1.000  O
  O11      1.0000 0.51570  0.10133  0.75450  Biso   1.000  O
  O12      1.0000 0.43660  0.15744  0.65840  Biso   1.000  O
  Cd3      1.0000 0.24169  0.09031  0.67064  Biso   1.000  Cd
  C37      1.0000 0.94320  0.80106  0.27900  Biso   1.000  C
  H22      1.0000 0.82850  0.78930  0.27900  Biso   1.000  H
  C38      1.0000 0.07870  0.76706  0.27790  Biso   1.000  C
  H23      1.0000 0.05460  0.73310  0.27570  Biso   1.000  H
  C39      1.0000 0.25100  0.78356  0.28000  Biso   1.000  C
  C40      1.0000 0.28040  0.83493  0.27820  Biso   1.000  C
  C41      1.0000 0.13580  0.86631  0.27730  Biso   1.000  C
  H24      1.0000 0.15510  0.90050  0.27450  Biso   1.000  H
  C42      1.0000 0.45650  0.85977  0.28740  Biso   1.000  C
  C43      1.0000 0.39490  0.74501  0.27900  Biso   1.000  C
  C44      1.0000 0.85110  0.92404  0.13030  Biso   1.000  C
  H25      1.0000 0.81010  0.89140  0.13310  Biso   1.000  H
  C45      1.0000 0.91050  0.94107  0.05040  Biso   1.000  C
  H26      1.0000 0.91140  0.92010  0.00130  Biso   1.000  H
  C46      1.0000 0.96950  0.99011  0.04350  Biso   1.000  C
  C47      1.0000 0.96310  0.01880  0.11920  Biso   1.000  C
  H27      1.0000 0.99820  0.05200  0.11780  Biso   1.000  H
  C48      1.0000 0.90420  0.99801  0.19750  Biso   1.000  C
  H28      1.0000 0.90360  0.01770  0.24820  Biso   1.000  H
  N7       1.0000 0.97030  0.85004  0.28020  Biso   1.000  N
  N8       1.0000 0.84860  0.95112  0.20320  Biso   1.000  N
  O13      1.0000 0.37980  0.70825  0.32900  Biso   1.000  O
  O14      1.0000 0.51620  0.74894  0.22540  Biso   1.000  O
  O15      1.0000 0.48430  0.89867  0.24550  Biso   1.000  O
  O16      1.0000 0.56340  0.84256  0.34160  Biso   1.000  O
  Cd4      1.0000 0.75831  0.90969  0.32936  Biso   1.000  Cd
  C49      1.0000 0.98730  0.59409  0.97270  Biso   1.000  C
  C50      1.0000 0.13080  0.60645  0.03940  Biso   1.000  C
  C51      1.0000 0.09440  0.62350  0.12350  Biso   1.000  C
  C52      1.0000 0.23400  0.63665  0.17830  Biso   1.000  C
  H29      1.0000 0.20940  0.64700  0.23560  Biso   1.000  H
  C53      1.0000 0.43600  0.61952  0.07160  Biso   1.000  C
  H30      1.0000 0.55170  0.61860  0.05300  Biso   1.000  H
  C54      1.0000 0.30520  0.60455  0.01370  Biso   1.000  C
  H31      1.0000 0.33330  0.59320  0.95740  Biso   1.000  H
  C55      1.0000 0.91190  0.62841  0.16090  Biso   1.000  C
  C56      1.0000 0.56620  0.55095  0.32170  Biso   1.000  C
  H32      1.0000 0.59090  0.54400  0.26280  Biso   1.000  H
  C57      1.0000 0.54750  0.51151  0.37970  Biso   1.000  C
  H33      1.0000 0.56190  0.47890  0.35990  Biso   1.000  H
  C58      1.0000 0.50710  0.52064  0.46770  Biso   1.000  C
  C59      1.0000 0.48380  0.57010  0.49170  Biso   1.000  C
  H34      1.0000 0.45280  0.57820  0.54930  Biso   1.000  H
  C60      1.0000 0.50690  0.60726  0.42940  Biso   1.000  C
  H35      1.0000 0.49090  0.64020  0.44680  Biso   1.000  H
  N9       1.0000 0.40230  0.63547  0.15400  Biso   1.000  N
  N10      1.0000 0.55070  0.59846  0.34600  Biso   1.000  N
  O17      1.0000 0.01580  0.56084  0.91581  Biso   1.000  O
  O18      1.0000 0.84930  0.61913  0.97450  Biso   1.000  O
  O19      1.0000 0.82510  0.59084  0.17590  Biso   1.000  O
  O20      1.0000 0.86240  0.67181  0.17840  Biso   1.000  O
  Cd5      1.0000 0.61680  0.66474  0.25513  Biso   1.000  Cd
  C61      1.0000 0.01270  0.40591  0.02730  Biso   1.000  C
  C62      1.0000 0.86920  0.39355  0.96060  Biso   1.000  C
  C63      1.0000 0.90560  0.37650  0.87650  Biso   1.000  C
  C64      1.0000 0.76600  0.36335  0.82170  Biso   1.000  C
  H36      1.0000 0.79060  0.35300  0.76440  Biso   1.000  H
  C65      1.0000 0.56400  0.38048  0.92840  Biso   1.000  C
  H37      1.0000 0.44830  0.38140  0.94700  Biso   1.000  H
  C66      1.0000 0.69480  0.39545  0.98630  Biso   1.000  C
  H38      1.0000 0.66670  0.40680  0.04260  Biso   1.000  H
  C67      1.0000 0.08810  0.37159  0.83910  Biso   1.000  C
  C68      1.0000 0.43380  0.44905  0.67830  Biso   1.000  C
  H39      1.0000 0.40910  0.45600  0.73720  Biso   1.000  H
  C69      1.0000 0.45250  0.48849  0.62030  Biso   1.000  C
  H40      1.0000 0.43810  0.52110  0.64010  Biso   1.000  H
  C70      1.0000 0.49290  0.47936  0.53230  Biso   1.000  C
  C71      1.0000 0.51620  0.42990  0.50830  Biso   1.000  C
  H41      1.0000 0.54720  0.42180  0.45070  Biso   1.000  H
  C72      1.0000 0.49310  0.39274  0.57060  Biso   1.000  C
  H42      1.0000 0.50910  0.35980  0.55320  Biso   1.000  H
  N11      1.0000 0.59770  0.36453  0.84600  Biso   1.000  N
  N12      1.0000 0.44930  0.40154  0.65400  Biso   1.000  N
  O21      1.0000 0.98420  0.43916  0.08419  Biso   1.000  O
  O22      1.0000 0.15070  0.38087  0.02550  Biso   1.000  O
  O23      1.0000 0.17490  0.40916  0.82410  Biso   1.000  O
  O24      1.0000 0.13760  0.32819  0.82160  Biso   1.000  O
  Cd6      1.0000 0.38320  0.33526  0.74487  Biso   1.000  Cd
  C73      1.0000 0.94320  0.69894  0.77900  Biso   1.000  C
  H43      1.0000 0.82850  0.71070  0.77900  Biso   1.000  H
  C74      1.0000 0.07870  0.73294  0.77790  Biso   1.000  C
  H44      1.0000 0.05460  0.76690  0.77570  Biso   1.000  H
  C75      1.0000 0.25100  0.71644  0.78000  Biso   1.000  C
  C76      1.0000 0.28040  0.66507  0.77820  Biso   1.000  C
  C77      1.0000 0.13580  0.63369  0.77730  Biso   1.000  C
  H45      1.0000 0.15510  0.59950  0.77450  Biso   1.000  H
  C78      1.0000 0.45650  0.64023  0.78740  Biso   1.000  C
  C79      1.0000 0.39490  0.75499  0.77900  Biso   1.000  C
  C80      1.0000 0.85110  0.57596  0.63030  Biso   1.000  C
  H46      1.0000 0.81010  0.60860  0.63310  Biso   1.000  H
  C81      1.0000 0.91050  0.55893  0.55040  Biso   1.000  C
  H47      1.0000 0.91140  0.57990  0.50130  Biso   1.000  H
  C82      1.0000 0.96950  0.50989  0.54350  Biso   1.000  C
  C83      1.0000 0.96310  0.48120  0.61920  Biso   1.000  C
  H48      1.0000 0.99820  0.44800  0.61780  Biso   1.000  H
  C84      1.0000 0.90420  0.50199  0.69750  Biso   1.000  C
  H49      1.0000 0.90360  0.48230  0.74820  Biso   1.000  H
  N13      1.0000 0.97030  0.64996  0.78020  Biso   1.000  N
  N14      1.0000 0.84860  0.54888  0.70320  Biso   1.000  N
  O25      1.0000 0.37980  0.79175  0.82900  Biso   1.000  O
  O26      1.0000 0.51620  0.75106  0.72540  Biso   1.000  O
  O27      1.0000 0.48430  0.60133  0.74550  Biso   1.000  O
  O28      1.0000 0.56340  0.65744  0.84160  Biso   1.000  O
  Cd7      1.0000 0.75831  0.59031  0.82936  Biso   1.000  Cd
  C85      1.0000 0.05680  0.30106  0.22100  Biso   1.000  C
  H50      1.0000 0.17150  0.28930  0.22100  Biso   1.000  H
  C86      1.0000 0.92130  0.26706  0.22210  Biso   1.000  C
  H51      1.0000 0.94540  0.23310  0.22430  Biso   1.000  H
  C87      1.0000 0.74900  0.28356  0.22000  Biso   1.000  C
  C88      1.0000 0.71960  0.33493  0.22180  Biso   1.000  C
  C89      1.0000 0.86420  0.36631  0.22270  Biso   1.000  C
  H52      1.0000 0.84490  0.40050  0.22550  Biso   1.000  H
  C90      1.0000 0.54350  0.35977  0.21260  Biso   1.000  C
  C91      1.0000 0.60510  0.24501  0.22100  Biso   1.000  C
  C92      1.0000 0.14890  0.42404  0.36970  Biso   1.000  C
  H53      1.0000 0.18990  0.39140  0.36690  Biso   1.000  H
  C93      1.0000 0.08950  0.44107  0.44960  Biso   1.000  C
  H54      1.0000 0.08860  0.42010  0.49870  Biso   1.000  H
  C94      1.0000 0.03050  0.49011  0.45650  Biso   1.000  C
  C95      1.0000 0.03690  0.51880  0.38080  Biso   1.000  C
  H55      1.0000 0.00180  0.55200  0.38220  Biso   1.000  H
  C96      1.0000 0.09580  0.49801  0.30250  Biso   1.000  C
  H56      1.0000 0.09640  0.51770  0.25180  Biso   1.000  H
  N15      1.0000 0.02970  0.35004  0.21980  Biso   1.000  N
  N16      1.0000 0.15140  0.45112  0.29680  Biso   1.000  N
  O29      1.0000 0.62020  0.20825  0.17100  Biso   1.000  O
  O30      1.0000 0.48380  0.24894  0.27460  Biso   1.000  O
  O31      1.0000 0.51570  0.39867  0.25450  Biso   1.000  O
  O32      1.0000 0.43660  0.34256  0.15840  Biso   1.000  O
  Cd8      1.0000 0.24169  0.40969  0.17064  Biso   1.000  Cd
