data_image0
_cell_length_a       22.7591
_cell_length_b       11.1312
_cell_length_c       11.681
_cell_angle_alpha    90
_cell_angle_beta     111.652
_cell_angle_gamma    90

_symmetry_space_group_name_H-M    "P 1"
_symmetry_int_tables_number       1

loop_
  _symmetry_equiv_pos_as_xyz
  'x, y, z'

loop_
  _atom_site_label
  _atom_site_occupancy
  _atom_site_fract_x
  _atom_site_fract_y
  _atom_site_fract_z
  _atom_site_thermal_displace_type
  _atom_site_B_iso_or_equiv
  _atom_site_type_symbol
  C1       1.0000 0.20844  0.88927  0.98884  Biso   1.000  C
  H1       1.0000 0.20640  0.91550  0.06290  Biso   1.000  H
  C2       1.0000 0.16964  0.79575  0.92758  Biso   1.000  C
  H2       1.0000 0.14230  0.76030  0.96020  Biso   1.000  H
  C3       1.0000 0.17189  0.75510  0.81661  Biso   1.000  C
  C4       1.0000 0.21248  0.81383  0.77041  Biso   1.000  C
  C5       1.0000 0.24975  0.90739  0.83856  Biso   1.000  C
  H3       1.0000 0.27660  0.94630  0.80690  Biso   1.000  H
  C6       1.0000 0.21758  0.77965  0.64971  Biso   1.000  C
  C7       1.0000 0.13062  0.65011  0.75196  Biso   1.000  C
  C8       1.0000 0.42160  0.19720  0.31140  Biso   1.000  C
  H4       1.0000 0.42790  0.11680  0.33410  Biso   1.000  H
  C9       1.0000 0.45550  0.28300  0.39580  Biso   1.000  C
  H5       1.0000 0.48380  0.25990  0.47300  Biso   1.000  H
  C10      1.0000 0.44677  0.40370  0.36420  Biso   1.000  C
  C11      1.0000 0.40472  0.42980  0.24950  Biso   1.000  C
  H6       1.0000 0.39780  0.50930  0.22350  Biso   1.000  H
  C12      1.0000 0.37255  0.33950  0.17200  Biso   1.000  C
  H7       1.0000 0.34320  0.36090  0.09520  Biso   1.000  H
  C13      1.0000 0.47875  0.50550  0.44480  Biso   1.000  C
  N1       1.0000 0.24905  0.94427  0.94659  Biso   1.000  N
  N2       1.0000 0.38056  0.22387  0.19960  Biso   1.000  N
  O1       1.0000 0.07934  0.67415  0.66745  Biso   1.000  O
  O2       1.0000 0.14952  0.54802  0.79076  Biso   1.000  O
  O3       1.0000 0.19571  0.68026  0.60498  Biso   1.000  O
  O4       1.0000 0.24219  0.85502  0.60231  Biso   1.000  O
  Mn1      1.0000 0.32021  0.08383  0.06281  Biso   1.000  Mn
  H8       1.0000 0.47390  0.59200  0.43100  Biso   1.000  H
  C14      1.0000 0.70844  0.38927  0.98884  Biso   1.000  C
  H9       1.0000 0.70640  0.41550  0.06290  Biso   1.000  H
  C15      1.0000 0.66964  0.29575  0.92758  Biso   1.000  C
  H10      1.0000 0.64230  0.26030  0.96020  Biso   1.000  H
  C16      1.0000 0.67189  0.25510  0.81661  Biso   1.000  C
  C17      1.0000 0.71248  0.31383  0.77041  Biso   1.000  C
  C18      1.0000 0.74975  0.40739  0.83856  Biso   1.000  C
  H11      1.0000 0.77660  0.44630  0.80690  Biso   1.000  H
  C19      1.0000 0.71758  0.27965  0.64971  Biso   1.000  C
  C20      1.0000 0.63062  0.15011  0.75196  Biso   1.000  C
  C21      1.0000 0.92160  0.69720  0.31140  Biso   1.000  C
  H12      1.0000 0.92790  0.61680  0.33410  Biso   1.000  H
  C22      1.0000 0.95550  0.78300  0.39580  Biso   1.000  C
  H13      1.0000 0.98380  0.75990  0.47300  Biso   1.000  H
  C23      1.0000 0.94677  0.90370  0.36420  Biso   1.000  C
  C24      1.0000 0.90472  0.92980  0.24950  Biso   1.000  C
  H14      1.0000 0.89780  0.00930  0.22350  Biso   1.000  H
  C25      1.0000 0.87255  0.83950  0.17200  Biso   1.000  C
  H15      1.0000 0.84320  0.86090  0.09520  Biso   1.000  H
  C26      1.0000 0.97875  0.00550  0.44480  Biso   1.000  C
  N3       1.0000 0.74905  0.44427  0.94659  Biso   1.000  N
  N4       1.0000 0.88056  0.72387  0.19960  Biso   1.000  N
  O5       1.0000 0.57934  0.17415  0.66745  Biso   1.000  O
  O6       1.0000 0.64952  0.04802  0.79076  Biso   1.000  O
  O7       1.0000 0.69571  0.18026  0.60498  Biso   1.000  O
  O8       1.0000 0.74219  0.35502  0.60231  Biso   1.000  O
  Mn2      1.0000 0.82021  0.58383  0.06281  Biso   1.000  Mn
  H16      1.0000 0.97390  0.09200  0.43100  Biso   1.000  H
  C27      1.0000 0.79156  0.88927  0.51116  Biso   1.000  C
  H17      1.0000 0.79360  0.91550  0.43710  Biso   1.000  H
  C28      1.0000 0.83036  0.79575  0.57242  Biso   1.000  C
  H18      1.0000 0.85770  0.76030  0.53980  Biso   1.000  H
  C29      1.0000 0.82811  0.75510  0.68339  Biso   1.000  C
  C30      1.0000 0.78752  0.81383  0.72959  Biso   1.000  C
  C31      1.0000 0.75025  0.90739  0.66144  Biso   1.000  C
  H19      1.0000 0.72340  0.94630  0.69310  Biso   1.000  H
  C32      1.0000 0.78242  0.77965  0.85029  Biso   1.000  C
  C33      1.0000 0.86938  0.65011  0.74804  Biso   1.000  C
  C34      1.0000 0.57840  0.19720  0.18860  Biso   1.000  C
  H20      1.0000 0.57210  0.11680  0.16590  Biso   1.000  H
  C35      1.0000 0.54450  0.28300  0.10420  Biso   1.000  C
  H21      1.0000 0.51620  0.25990  0.02700  Biso   1.000  H
  C36      1.0000 0.55323  0.40370  0.13580  Biso   1.000  C
  C37      1.0000 0.59528  0.42980  0.25050  Biso   1.000  C
  H22      1.0000 0.60220  0.50930  0.27650  Biso   1.000  H
  C38      1.0000 0.62745  0.33950  0.32800  Biso   1.000  C
  H23      1.0000 0.65680  0.36090  0.40480  Biso   1.000  H
  C39      1.0000 0.52125  0.50550  0.05520  Biso   1.000  C
  N5       1.0000 0.75095  0.94427  0.55341  Biso   1.000  N
  N6       1.0000 0.61944  0.22387  0.30040  Biso   1.000  N
  O9       1.0000 0.92066  0.67415  0.83255  Biso   1.000  O
  O10      1.0000 0.85048  0.54802  0.70924  Biso   1.000  O
  O11      1.0000 0.80429  0.68026  0.89502  Biso   1.000  O
  O12      1.0000 0.75781  0.85502  0.89769  Biso   1.000  O
  Mn3      1.0000 0.67979  0.08383  0.43719  Biso   1.000  Mn
  H24      1.0000 0.52610  0.59200  0.06900  Biso   1.000  H
  C40      1.0000 0.29156  0.38927  0.51116  Biso   1.000  C
  H25      1.0000 0.29360  0.41550  0.43710  Biso   1.000  H
  C41      1.0000 0.33036  0.29575  0.57242  Biso   1.000  C
  H26      1.0000 0.35770  0.26030  0.53980  Biso   1.000  H
  C42      1.0000 0.32811  0.25510  0.68339  Biso   1.000  C
  C43      1.0000 0.28752  0.31383  0.72959  Biso   1.000  C
  C44      1.0000 0.25025  0.40739  0.66144  Biso   1.000  C
  H27      1.0000 0.22340  0.44630  0.69310  Biso   1.000  H
  C45      1.0000 0.28242  0.27965  0.85029  Biso   1.000  C
  C46      1.0000 0.36938  0.15011  0.74804  Biso   1.000  C
  C47      1.0000 0.07840  0.69720  0.18860  Biso   1.000  C
  H28      1.0000 0.07210  0.61680  0.16590  Biso   1.000  H
  C48      1.0000 0.04450  0.78300  0.10420  Biso   1.000  C
  H29      1.0000 0.01620  0.75990  0.02700  Biso   1.000  H
  C49      1.0000 0.05323  0.90370  0.13580  Biso   1.000  C
  C50      1.0000 0.09528  0.92980  0.25050  Biso   1.000  C
  H30      1.0000 0.10220  0.00930  0.27650  Biso   1.000  H
  C51      1.0000 0.12745  0.83950  0.32800  Biso   1.000  C
  H31      1.0000 0.15680  0.86090  0.40480  Biso   1.000  H
  C52      1.0000 0.02125  0.00550  0.05520  Biso   1.000  C
  N7       1.0000 0.25095  0.44427  0.55341  Biso   1.000  N
  N8       1.0000 0.11944  0.72387  0.30040  Biso   1.000  N
  O13      1.0000 0.42066  0.17415  0.83255  Biso   1.000  O
  O14      1.0000 0.35048  0.04802  0.70924  Biso   1.000  O
  O15      1.0000 0.30429  0.18026  0.89502  Biso   1.000  O
  O16      1.0000 0.25781  0.35502  0.89769  Biso   1.000  O
  Mn4      1.0000 0.17979  0.58383  0.43719  Biso   1.000  Mn
  H32      1.0000 0.02610  0.09200  0.06900  Biso   1.000  H
  C53      1.0000 0.79156  0.11073  0.01116  Biso   1.000  C
  H33      1.0000 0.79360  0.08450  0.93710  Biso   1.000  H
  C54      1.0000 0.83036  0.20425  0.07242  Biso   1.000  C
  H34      1.0000 0.85770  0.23970  0.03980  Biso   1.000  H
  C55      1.0000 0.82811  0.24490  0.18339  Biso   1.000  C
  C56      1.0000 0.78752  0.18617  0.22959  Biso   1.000  C
  C57      1.0000 0.75025  0.09261  0.16144  Biso   1.000  C
  H35      1.0000 0.72340  0.05370  0.19310  Biso   1.000  H
  C58      1.0000 0.78242  0.22035  0.35029  Biso   1.000  C
  C59      1.0000 0.86938  0.34989  0.24804  Biso   1.000  C
  C60      1.0000 0.57840  0.80280  0.68860  Biso   1.000  C
  H36      1.0000 0.57210  0.88320  0.66590  Biso   1.000  H
  C61      1.0000 0.54450  0.71700  0.60420  Biso   1.000  C
  H37      1.0000 0.51620  0.74010  0.52700  Biso   1.000  H
  C62      1.0000 0.55323  0.59630  0.63580  Biso   1.000  C
  C63      1.0000 0.59528  0.57020  0.75050  Biso   1.000  C
  H38      1.0000 0.60220  0.49070  0.77650  Biso   1.000  H
  C64      1.0000 0.62745  0.66050  0.82800  Biso   1.000  C
  H39      1.0000 0.65680  0.63910  0.90480  Biso   1.000  H
  C65      1.0000 0.52125  0.49450  0.55520  Biso   1.000  C
  N9       1.0000 0.75095  0.05573  0.05341  Biso   1.000  N
  N10      1.0000 0.61944  0.77613  0.80040  Biso   1.000  N
  O17      1.0000 0.92066  0.32585  0.33255  Biso   1.000  O
  O18      1.0000 0.85048  0.45198  0.20924  Biso   1.000  O
  O19      1.0000 0.80429  0.31974  0.39502  Biso   1.000  O
  O20      1.0000 0.75781  0.14498  0.39769  Biso   1.000  O
  Mn5      1.0000 0.67979  0.91617  0.93719  Biso   1.000  Mn
  H40      1.0000 0.52610  0.40800  0.56900  Biso   1.000  H
  C66      1.0000 0.29156  0.61073  0.01116  Biso   1.000  C
  H41      1.0000 0.29360  0.58450  0.93710  Biso   1.000  H
  C67      1.0000 0.33036  0.70425  0.07242  Biso   1.000  C
  H42      1.0000 0.35770  0.73970  0.03980  Biso   1.000  H
  C68      1.0000 0.32811  0.74490  0.18339  Biso   1.000  C
  C69      1.0000 0.28752  0.68617  0.22959  Biso   1.000  C
  C70      1.0000 0.25025  0.59261  0.16144  Biso   1.000  C
  H43      1.0000 0.22340  0.55370  0.19310  Biso   1.000  H
  C71      1.0000 0.28242  0.72035  0.35029  Biso   1.000  C
  C72      1.0000 0.36938  0.84989  0.24804  Biso   1.000  C
  C73      1.0000 0.07840  0.30280  0.68860  Biso   1.000  C
  H44      1.0000 0.07210  0.38320  0.66590  Biso   1.000  H
  C74      1.0000 0.04450  0.21700  0.60420  Biso   1.000  C
  H45      1.0000 0.01620  0.24010  0.52700  Biso   1.000  H
  C75      1.0000 0.05323  0.09630  0.63580  Biso   1.000  C
  C76      1.0000 0.09528  0.07020  0.75050  Biso   1.000  C
  H46      1.0000 0.10220  0.99070  0.77650  Biso   1.000  H
  C77      1.0000 0.12745  0.16050  0.82800  Biso   1.000  C
  H47      1.0000 0.15680  0.13910  0.90480  Biso   1.000  H
  C78      1.0000 0.02125  0.99450  0.55520  Biso   1.000  C
  N11      1.0000 0.25095  0.55573  0.05341  Biso   1.000  N
  N12      1.0000 0.11944  0.27613  0.80040  Biso   1.000  N
  O21      1.0000 0.42066  0.82585  0.33255  Biso   1.000  O
  O22      1.0000 0.35048  0.95198  0.20924  Biso   1.000  O
  O23      1.0000 0.30429  0.81974  0.39502  Biso   1.000  O
  O24      1.0000 0.25781  0.64498  0.39769  Biso   1.000  O
  Mn6      1.0000 0.17979  0.41617  0.93719  Biso   1.000  Mn
  H48      1.0000 0.02610  0.90800  0.56900  Biso   1.000  H
  C79      1.0000 0.20844  0.11073  0.48884  Biso   1.000  C
  H49      1.0000 0.20640  0.08450  0.56290  Biso   1.000  H
  C80      1.0000 0.16964  0.20425  0.42758  Biso   1.000  C
  H50      1.0000 0.14230  0.23970  0.46020  Biso   1.000  H
  C81      1.0000 0.17189  0.24490  0.31661  Biso   1.000  C
  C82      1.0000 0.21248  0.18617  0.27041  Biso   1.000  C
  C83      1.0000 0.24975  0.09261  0.33856  Biso   1.000  C
  H51      1.0000 0.27660  0.05370  0.30690  Biso   1.000  H
  C84      1.0000 0.21758  0.22035  0.14971  Biso   1.000  C
  C85      1.0000 0.13062  0.34989  0.25196  Biso   1.000  C
  C86      1.0000 0.42160  0.80280  0.81140  Biso   1.000  C
  H52      1.0000 0.42790  0.88320  0.83410  Biso   1.000  H
  C87      1.0000 0.45550  0.71700  0.89580  Biso   1.000  C
  H53      1.0000 0.48380  0.74010  0.97300  Biso   1.000  H
  C88      1.0000 0.44677  0.59630  0.86420  Biso   1.000  C
  C89      1.0000 0.40472  0.57020  0.74950  Biso   1.000  C
  H54      1.0000 0.39780  0.49070  0.72350  Biso   1.000  H
  C90      1.0000 0.37255  0.66050  0.67200  Biso   1.000  C
  H55      1.0000 0.34320  0.63910  0.59520  Biso   1.000  H
  C91      1.0000 0.47875  0.49450  0.94480  Biso   1.000  C
  N13      1.0000 0.24905  0.05573  0.44659  Biso   1.000  N
  N14      1.0000 0.38056  0.77613  0.69960  Biso   1.000  N
  O25      1.0000 0.07934  0.32585  0.16745  Biso   1.000  O
  O26      1.0000 0.14952  0.45198  0.29076  Biso   1.000  O
  O27      1.0000 0.19571  0.31974  0.10498  Biso   1.000  O
  O28      1.0000 0.24219  0.14498  0.10231  Biso   1.000  O
  Mn7      1.0000 0.32021  0.91617  0.56281  Biso   1.000  Mn
  H56      1.0000 0.47390  0.40800  0.93100  Biso   1.000  H
  C92      1.0000 0.70844  0.61073  0.48884  Biso   1.000  C
  H57      1.0000 0.70640  0.58450  0.56290  Biso   1.000  H
  C93      1.0000 0.66964  0.70425  0.42758  Biso   1.000  C
  H58      1.0000 0.64230  0.73970  0.46020  Biso   1.000  H
  C94      1.0000 0.67189  0.74490  0.31661  Biso   1.000  C
  C95      1.0000 0.71248  0.68617  0.27041  Biso   1.000  C
  C96      1.0000 0.74975  0.59261  0.33856  Biso   1.000  C
  H59      1.0000 0.77660  0.55370  0.30690  Biso   1.000  H
  C97      1.0000 0.71758  0.72035  0.14971  Biso   1.000  C
  C98      1.0000 0.63062  0.84989  0.25196  Biso   1.000  C
  C99      1.0000 0.92160  0.30280  0.81140  Biso   1.000  C
  H60      1.0000 0.92790  0.38320  0.83410  Biso   1.000  H
  C100     1.0000 0.95550  0.21700  0.89580  Biso   1.000  C
  H61      1.0000 0.98380  0.24010  0.97300  Biso   1.000  H
  C101     1.0000 0.94677  0.09630  0.86420  Biso   1.000  C
  C102     1.0000 0.90472  0.07020  0.74950  Biso   1.000  C
  H62      1.0000 0.89780  0.99070  0.72350  Biso   1.000  H
  C103     1.0000 0.87255  0.16050  0.67200  Biso   1.000  C
  H63      1.0000 0.84320  0.13910  0.59520  Biso   1.000  H
  C104     1.0000 0.97875  0.99450  0.94480  Biso   1.000  C
  N15      1.0000 0.74905  0.55573  0.44659  Biso   1.000  N
  N16      1.0000 0.88056  0.27613  0.69960  Biso   1.000  N
  O29      1.0000 0.57934  0.82585  0.16745  Biso   1.000  O
  O30      1.0000 0.64952  0.95198  0.29076  Biso   1.000  O
  O31      1.0000 0.69571  0.81974  0.10498  Biso   1.000  O
  O32      1.0000 0.74219  0.64498  0.10231  Biso   1.000  O
  Mn8      1.0000 0.82021  0.41617  0.56281  Biso   1.000  Mn
  H64      1.0000 0.97390  0.90800  0.93100  Biso   1.000  H
