data_image0
_cell_length_a       5.221
_cell_length_b       12.86
_cell_length_c       14.561
_cell_angle_alpha    64.701
_cell_angle_beta     87.327
_cell_angle_gamma    89.894

_symmetry_space_group_name_H-M    "P 1"
_symmetry_int_tables_number       1

loop_
  _symmetry_equiv_pos_as_xyz
  'x, y, z'

loop_
  _atom_site_label
  _atom_site_occupancy
  _atom_site_fract_x
  _atom_site_fract_y
  _atom_site_fract_z
  _atom_site_thermal_displace_type
  _atom_site_B_iso_or_equiv
  _atom_site_type_symbol
  U1       1.0000 0.16733  0.71630  0.41945  Biso   1.000  U
  P1       1.0000 0.35750  0.45360  0.40930  Biso   1.000  P
  P2       1.0000 0.48330  0.93490  0.18590  Biso   1.000  P
  O1       1.0000 0.30200  0.00640  0.10230  Biso   1.000  O
  O2       1.0000 0.73100  0.90630  0.14160  Biso   1.000  O
  O3       1.0000 0.38400  0.58290  0.37590  Biso   1.000  O
  O4       1.0000 0.45100  0.85350  0.43980  Biso   1.000  O
  P3       1.0000 0.67790  0.93500  0.37610  Biso   1.000  P
  O5       1.0000 0.60900  0.39350  0.43550  Biso   1.000  O
  O6       1.0000 0.89900  0.86510  0.36490  Biso   1.000  O
  O7       1.0000 0.16000  0.40250  0.49700  Biso   1.000  O
  C1       1.0000 0.21900  0.43660  0.30150  Biso   1.000  C
  H1       1.0000 0.06350  0.48070  0.28350  Biso   1.000  H
  H2       1.0000 0.33970  0.46760  0.24310  Biso   1.000  H
  Zn1      1.0000 0.34620  0.84530  0.57610  Biso   1.000  Zn
  P4       1.0000 0.14560  0.28870  0.33070  Biso   1.000  P
  O8       1.0000 0.35900  0.82510  0.26110  Biso   1.000  O
  O9       1.0000 0.97400  0.24070  0.42540  Biso   1.000  O
  O10      1.0000 0.38500  0.22380  0.33300  Biso   1.000  O
  O11      1.0000 0.75100  0.01080  0.42610  Biso   1.000  O
  O12      1.0000 0.97800  0.29440  0.23680  Biso   1.000  O
  C2       1.0000 0.56300  0.02120  0.24960  Biso   1.000  C
  H3       1.0000 0.41260  0.06260  0.25580  Biso   1.000  H
  H4       1.0000 0.69460  0.07730  0.20920  Biso   1.000  H
  U2       1.0000 0.83267  0.28370  0.58055  Biso   1.000  U
  P5       1.0000 0.64250  0.54640  0.59070  Biso   1.000  P
  P6       1.0000 0.51670  0.06510  0.81410  Biso   1.000  P
  O13      1.0000 0.69800  0.99360  0.89770  Biso   1.000  O
  O14      1.0000 0.26900  0.09370  0.85840  Biso   1.000  O
  O15      1.0000 0.61600  0.41710  0.62410  Biso   1.000  O
  O16      1.0000 0.54900  0.14650  0.56020  Biso   1.000  O
  P7       1.0000 0.32210  0.06500  0.62390  Biso   1.000  P
  O17      1.0000 0.39100  0.60650  0.56450  Biso   1.000  O
  O18      1.0000 0.10100  0.13490  0.63510  Biso   1.000  O
  O19      1.0000 0.84000  0.59750  0.50300  Biso   1.000  O
  C3       1.0000 0.78100  0.56340  0.69850  Biso   1.000  C
  H5       1.0000 0.93650  0.51930  0.71650  Biso   1.000  H
  H6       1.0000 0.66030  0.53240  0.75690  Biso   1.000  H
  Zn2      1.0000 0.65380  0.15470  0.42390  Biso   1.000  Zn
  P8       1.0000 0.85440  0.71130  0.66930  Biso   1.000  P
  O20      1.0000 0.64100  0.17490  0.73890  Biso   1.000  O
  O21      1.0000 0.02600  0.75930  0.57460  Biso   1.000  O
  O22      1.0000 0.61500  0.77620  0.66700  Biso   1.000  O
  O23      1.0000 0.24900  0.98920  0.57390  Biso   1.000  O
  O24      1.0000 0.02200  0.70560  0.76320  Biso   1.000  O
  C4       1.0000 0.43700  0.97880  0.75040  Biso   1.000  C
  H7       1.0000 0.58740  0.93740  0.74420  Biso   1.000  H
  H8       1.0000 0.30540  0.92270  0.79080  Biso   1.000  H
  U3       1.0000 0.00000  0.00000  0.00000  Biso   1.000  U
