data_image0
_cell_length_a       9.4617
_cell_length_b       11.2772
_cell_length_c       11.3489
_cell_angle_alpha    79.254
_cell_angle_beta     65.726
_cell_angle_gamma    80.143

_symmetry_space_group_name_H-M    "P 1"
_symmetry_int_tables_number       1

loop_
  _symmetry_equiv_pos_as_xyz
  'x, y, z'

loop_
  _atom_site_label
  _atom_site_occupancy
  _atom_site_fract_x
  _atom_site_fract_y
  _atom_site_fract_z
  _atom_site_thermal_displace_type
  _atom_site_B_iso_or_equiv
  _atom_site_type_symbol
  U1       1.0000 0.69850  0.44431  0.04771  Biso   1.000  U
  U2       1.0000 0.27962  0.96850  0.02627  Biso   1.000  U
  P1       1.0000 0.63460  0.61900  0.75960  Biso   1.000  P
  P2       1.0000 0.55210  0.75080  0.98430  Biso   1.000  P
  P3       1.0000 0.01190  0.20630  0.95680  Biso   1.000  P
  O1       1.0000 0.38060  0.73770  0.00890  Biso   1.000  O
  O2       1.0000 0.62210  0.65320  0.06040  Biso   1.000  O
  O3       1.0000 0.20370  0.50940  0.81840  Biso   1.000  O
  P4       1.0000 0.08360  0.46050  0.78650  Biso   1.000  P
  O4       1.0000 0.54450  0.88040  0.01510  Biso   1.000  O
  O5       1.0000 0.91560  0.49960  0.87350  Biso   1.000  O
  O6       1.0000 0.61000  0.51670  0.87550  Biso   1.000  O
  O7       1.0000 0.88010  0.28620  0.04590  Biso   1.000  O
  O8       1.0000 0.12560  0.14570  0.02030  Biso   1.000  O
  O9       1.0000 0.47490  0.64570  0.74940  Biso   1.000  O
  O10      1.0000 0.94610  0.11370  0.91840  Biso   1.000  O
  O11      1.0000 0.76690  0.59400  0.63320  Biso   1.000  O
  O12      1.0000 0.11110  0.50430  0.64510  Biso   1.000  O
  C1       1.0000 0.67090  0.74800  0.81300  Biso   1.000  C
  H1       1.0000 0.78020  0.74220  0.79820  Biso   1.000  H
  H2       1.0000 0.64610  0.82240  0.76340  Biso   1.000  H
  C2       1.0000 0.11510  0.29930  0.80330  Biso   1.000  C
  H3       1.0000 0.22580  0.27740  0.78190  Biso   1.000  H
  H4       1.0000 0.09230  0.27380  0.73650  Biso   1.000  H
  U3       1.0000 0.30150  0.55569  0.95229  Biso   1.000  U
  U4       1.0000 0.72038  0.03150  0.97373  Biso   1.000  U
  P5       1.0000 0.36540  0.38100  0.24040  Biso   1.000  P
  P6       1.0000 0.44790  0.24920  0.01570  Biso   1.000  P
  P7       1.0000 0.98810  0.79370  0.04320  Biso   1.000  P
  O13      1.0000 0.61940  0.26230  0.99110  Biso   1.000  O
  O14      1.0000 0.37790  0.34680  0.93960  Biso   1.000  O
  O15      1.0000 0.79630  0.49060  0.18160  Biso   1.000  O
  P8       1.0000 0.91640  0.53950  0.21350  Biso   1.000  P
  O16      1.0000 0.45550  0.11960  0.98490  Biso   1.000  O
  O17      1.0000 0.08440  0.50040  0.12650  Biso   1.000  O
  O18      1.0000 0.39000  0.48330  0.12450  Biso   1.000  O
  O19      1.0000 0.11990  0.71380  0.95410  Biso   1.000  O
  O20      1.0000 0.87440  0.85430  0.97970  Biso   1.000  O
  O21      1.0000 0.52510  0.35430  0.25060  Biso   1.000  O
  O22      1.0000 0.05390  0.88630  0.08160  Biso   1.000  O
  O23      1.0000 0.23310  0.40600  0.36680  Biso   1.000  O
  O24      1.0000 0.88890  0.49570  0.35490  Biso   1.000  O
  C3       1.0000 0.32910  0.25200  0.18700  Biso   1.000  C
  H5       1.0000 0.21980  0.25780  0.20180  Biso   1.000  H
  H6       1.0000 0.35390  0.17760  0.23660  Biso   1.000  H
  C4       1.0000 0.88490  0.70070  0.19670  Biso   1.000  C
  H7       1.0000 0.77420  0.72260  0.21810  Biso   1.000  H
  H8       1.0000 0.90770  0.72620  0.26350  Biso   1.000  H
  U5       1.0000 0.00000  0.50000  0.50000  Biso   1.000  U
