data_ISACIP_clean
_audit_creation_date              2014-07-02
_audit_creation_method            'Materials Studio'
_symmetry_space_group_name_H-M    'P1'
_symmetry_Int_Tables_number       1
_symmetry_cell_setting            triclinic
loop_
_symmetry_equiv_pos_as_xyz
  x,y,z
_cell_length_a                    11.6876
_cell_length_b                    13.2126
_cell_length_c                    15.8696
_cell_angle_alpha                 71.5064
_cell_angle_beta                  68.3930
_cell_angle_gamma                 63.7499
loop_
_atom_site_label
_atom_site_type_symbol
_atom_site_fract_x
_atom_site_fract_y
_atom_site_fract_z
_atom_site_U_iso_or_equiv
_atom_site_adp_type
_atom_site_occupancy
Cd1    Cd    0.53581   0.02534   0.86802   0.01267  Uiso   1.00
Cd2    Cd    0.92917   0.47466   0.63198   0.01267  Uiso   1.00
Cd3    Cd    0.46419   0.97466   0.13198   0.01267  Uiso   1.00
Cd4    Cd    0.07083   0.52534   0.36802   0.01267  Uiso   1.00
Cd5    Cd    0.55087   0.75000   0.75000   0.01267  Uiso   1.00
Cd6    Cd    0.44913   0.25000   0.25000   0.01267  Uiso   1.00
H1     H     0.29290   0.28800   0.11840   0.01267  Uiso   1.00
H2     H     0.29050   0.60870   0.04650   0.01267  Uiso   1.00
H3     H     0.45450   0.40710   0.85750   0.01267  Uiso   1.00
H4     H     0.25700   0.19720   0.82840   0.01267  Uiso   1.00
H5     H     0.06240   0.20070   0.81950   0.01267  Uiso   1.00
H6     H     0.17190   0.86730   0.93150   0.01267  Uiso   1.00
H7     H     0.36080   0.87190   0.93850   0.01267  Uiso   1.00
H8     H     0.69200   0.19100   0.82320   0.01267  Uiso   1.00
H9     H     0.88030   0.20130   0.82450   0.01267  Uiso   1.00
H10    H     0.01470   0.85990   0.90870   0.01267  Uiso   1.00
H11    H     0.82080   0.86050   0.90510   0.01267  Uiso   1.00
H12    H     0.19930   0.21200   0.38160   0.01267  Uiso   1.00
H13    H     0.44570   0.89130   0.45350   0.01267  Uiso   1.00
H14    H     0.21910   0.09290   0.64250   0.01267  Uiso   1.00
H15    H     0.78260   0.30280   0.67160   0.01267  Uiso   1.00
H16    H     0.58260   0.29930   0.68050   0.01267  Uiso   1.00
H17    H     0.47070   0.63270   0.56850   0.01267  Uiso   1.00
H18    H     0.67120   0.62810   0.56150   0.01267  Uiso   1.00
H19    H     0.20620   0.30900   0.67680   0.01267  Uiso   1.00
H20    H     0.40610   0.29870   0.67550   0.01267  Uiso   1.00
H21    H     0.28330   0.64010   0.59130   0.01267  Uiso   1.00
H22    H     0.08640   0.63950   0.59490   0.01267  Uiso   1.00
H23    H     0.70710   0.71200   0.88160   0.01267  Uiso   1.00
H24    H     0.70950   0.39130   0.95350   0.01267  Uiso   1.00
H25    H     0.54550   0.59290   0.14250   0.01267  Uiso   1.00
H26    H     0.74300   0.80280   0.17160   0.01267  Uiso   1.00
H27    H     0.93760   0.79930   0.18050   0.01267  Uiso   1.00
H28    H     0.82810   0.13270   0.06850   0.01267  Uiso   1.00
H29    H     0.63920   0.12810   0.06150   0.01267  Uiso   1.00
H30    H     0.30800   0.80900   0.17680   0.01267  Uiso   1.00
H31    H     0.11970   0.79870   0.17550   0.01267  Uiso   1.00
H32    H     0.98530   0.14010   0.09130   0.01267  Uiso   1.00
H33    H     0.17920   0.13950   0.09490   0.01267  Uiso   1.00
H34    H     0.80070   0.78800   0.61840   0.01267  Uiso   1.00
H35    H     0.55430   0.10870   0.54650   0.01267  Uiso   1.00
H36    H     0.78090   0.90710   0.35750   0.01267  Uiso   1.00
H37    H     0.21740   0.69720   0.32840   0.01267  Uiso   1.00
H38    H     0.41740   0.70070   0.31950   0.01267  Uiso   1.00
H39    H     0.52930   0.36730   0.43150   0.01267  Uiso   1.00
H40    H     0.32880   0.37190   0.43850   0.01267  Uiso   1.00
H41    H     0.79380   0.69100   0.32320   0.01267  Uiso   1.00
H42    H     0.59390   0.70130   0.32450   0.01267  Uiso   1.00
H43    H     0.71670   0.35990   0.40870   0.01267  Uiso   1.00
H44    H     0.91360   0.36050   0.40510   0.01267  Uiso   1.00
C1     C     0.41870   0.21920   0.95540   0.01267  Uiso   1.00
C2     C     0.37790   0.33100   0.98300   0.01267  Uiso   1.00
C3     C     0.31350   0.34720   0.07340   0.01267  Uiso   1.00
C4     C     0.27970   0.45150   0.09690   0.01267  Uiso   1.00
C5     C     0.31340   0.53880   0.03080   0.01267  Uiso   1.00
C6     C     0.38140   0.52190   0.94090   0.01267  Uiso   1.00
C7     C     0.41120   0.41780   0.91800   0.01267  Uiso   1.00
C8     C     0.43460   0.60850   0.87070   0.01267  Uiso   1.00
C9     C     0.21150   0.46990   0.19450   0.01267  Uiso   1.00
C10    C     0.23950   0.13000   0.84920   0.01267  Uiso   1.00
C11    C     0.12230   0.13250   0.84310   0.01267  Uiso   1.00
C12    C     0.09560   0.03150   0.87270   0.01267  Uiso   1.00
C13    C     0.18700   0.93570   0.90930   0.01267  Uiso   1.00
C14    C     0.30080   0.93890   0.91370   0.01267  Uiso   1.00
C15    C     0.75870   0.12330   0.84030   0.01267  Uiso   1.00
C16    C     0.87140   0.13050   0.84090   0.01267  Uiso   1.00
C17    C     0.97420   0.02960   0.86660   0.01267  Uiso   1.00
C18    C     0.95060   0.92920   0.89060   0.01267  Uiso   1.00
C19    C     0.83310   0.92980   0.88820   0.01267  Uiso   1.00
C20    C     0.09330   0.28080   0.54460   0.01267  Uiso   1.00
C21    C     0.19190   0.16900   0.51700   0.01267  Uiso   1.00
C22    C     0.23410   0.15280   0.42660   0.01267  Uiso   1.00
C23    C     0.32810   0.04850   0.40310   0.01267  Uiso   1.00
C24    C     0.38300   0.96120   0.46920   0.01267  Uiso   1.00
C25    C     0.34420   0.97810   0.55910   0.01267  Uiso   1.00
C26    C     0.24700   0.08220   0.58200   0.01267  Uiso   1.00
C27    C     0.41380   0.89150   0.62930   0.01267  Uiso   1.00
C28    C     0.37590   0.03010   0.30550   0.01267  Uiso   1.00
C29    C     0.71870   0.37000   0.65080   0.01267  Uiso   1.00
C30    C     0.59790   0.36750   0.65690   0.01267  Uiso   1.00
C31    C     0.49980   0.46850   0.62730   0.01267  Uiso   1.00
C32    C     0.53200   0.56430   0.59070   0.01267  Uiso   1.00
C33    C     0.65340   0.56110   0.58630   0.01267  Uiso   1.00
C34    C     0.22230   0.37670   0.65970   0.01267  Uiso   1.00
C35    C     0.34280   0.36950   0.65910   0.01267  Uiso   1.00
C36    C     0.37040   0.47040   0.63340   0.01267  Uiso   1.00
C37    C     0.27040   0.57080   0.60940   0.01267  Uiso   1.00
C38    C     0.15110   0.57020   0.61180   0.01267  Uiso   1.00
C39    C     0.58130   0.78080   0.04460   0.01267  Uiso   1.00
C40    C     0.62210   0.66900   0.01700   0.01267  Uiso   1.00
C41    C     0.68650   0.65280   0.92660   0.01267  Uiso   1.00
C42    C     0.72030   0.54850   0.90310   0.01267  Uiso   1.00
C43    C     0.68660   0.46120   0.96920   0.01267  Uiso   1.00
C44    C     0.61860   0.47810   0.05910   0.01267  Uiso   1.00
C45    C     0.58880   0.58220   0.08200   0.01267  Uiso   1.00
C46    C     0.56540   0.39150   0.12930   0.01267  Uiso   1.00
C47    C     0.78850   0.53010   0.80550   0.01267  Uiso   1.00
C48    C     0.76050   0.87000   0.15080   0.01267  Uiso   1.00
C49    C     0.87770   0.86750   0.15690   0.01267  Uiso   1.00
C50    C     0.90440   0.96850   0.12730   0.01267  Uiso   1.00
C51    C     0.81300   0.06430   0.09070   0.01267  Uiso   1.00
C52    C     0.69920   0.06110   0.08630   0.01267  Uiso   1.00
C53    C     0.24130   0.87670   0.15970   0.01267  Uiso   1.00
C54    C     0.12860   0.86950   0.15910   0.01267  Uiso   1.00
C55    C     0.02580   0.97040   0.13340   0.01267  Uiso   1.00
C56    C     0.04940   0.07080   0.10940   0.01267  Uiso   1.00
C57    C     0.16690   0.07020   0.11180   0.01267  Uiso   1.00
C58    C     0.90670   0.71920   0.45540   0.01267  Uiso   1.00
C59    C     0.80810   0.83100   0.48300   0.01267  Uiso   1.00
C60    C     0.76590   0.84720   0.57340   0.01267  Uiso   1.00
C61    C     0.67190   0.95150   0.59690   0.01267  Uiso   1.00
C62    C     0.61700   0.03880   0.53080   0.01267  Uiso   1.00
C63    C     0.65580   0.02190   0.44090   0.01267  Uiso   1.00
C64    C     0.75300   0.91780   0.41800   0.01267  Uiso   1.00
C65    C     0.58620   0.10850   0.37070   0.01267  Uiso   1.00
C66    C     0.62410   0.96990   0.69450   0.01267  Uiso   1.00
C67    C     0.28130   0.63000   0.34920   0.01267  Uiso   1.00
C68    C     0.40210   0.63250   0.34310   0.01267  Uiso   1.00
C69    C     0.50020   0.53150   0.37270   0.01267  Uiso   1.00
C70    C     0.46800   0.43570   0.40930   0.01267  Uiso   1.00
C71    C     0.34660   0.43890   0.41370   0.01267  Uiso   1.00
C72    C     0.77770   0.62330   0.34030   0.01267  Uiso   1.00
C73    C     0.65720   0.63050   0.34090   0.01267  Uiso   1.00
C74    C     0.62960   0.52960   0.36660   0.01267  Uiso   1.00
C75    C     0.72960   0.42920   0.39060   0.01267  Uiso   1.00
C76    C     0.84890   0.42980   0.38820   0.01267  Uiso   1.00
N1     N     0.32870   0.03350   0.88410   0.01267  Uiso   1.00
N2     N     0.73770   0.02430   0.86290   0.01267  Uiso   1.00
N3     N     0.74630   0.46650   0.61590   0.01267  Uiso   1.00
N4     N     0.12490   0.47570   0.63710   0.01267  Uiso   1.00
N5     N     0.67130   0.96650   0.11590   0.01267  Uiso   1.00
N6     N     0.26230   0.97570   0.13710   0.01267  Uiso   1.00
N7     N     0.25370   0.53350   0.38410   0.01267  Uiso   1.00
N8     N     0.87510   0.52430   0.36290   0.01267  Uiso   1.00
O1     O     0.42740   0.12930   0.01470   0.01267  Uiso   1.00
O2     O     0.44760   0.21910   0.87070   0.01267  Uiso   1.00
O3     O     0.49800   0.58760   0.79220   0.01267  Uiso   1.00
O4     O     0.41810   0.69780   0.89460   0.01267  Uiso   1.00
O5     O     0.13460   0.56870   0.20830   0.01267  Uiso   1.00
O6     O     0.23340   0.38490   0.25990   0.01267  Uiso   1.00
O7     O     0.07140   0.37070   0.48530   0.01267  Uiso   1.00
O8     O     0.03740   0.28090   0.62930   0.01267  Uiso   1.00
O9     O     0.37780   0.91240   0.70780   0.01267  Uiso   1.00
O10    O     0.51050   0.80220   0.60540   0.01267  Uiso   1.00
O11    O     0.41160   0.93130   0.29170   0.01267  Uiso   1.00
O12    O     0.37820   0.11510   0.24010   0.01267  Uiso   1.00
O13    O     0.57260   0.87070   0.98530   0.01267  Uiso   1.00
O14    O     0.55240   0.78090   0.12930   0.01267  Uiso   1.00
O15    O     0.50200   0.41240   0.20780   0.01267  Uiso   1.00
O16    O     0.58190   0.30220   0.10540   0.01267  Uiso   1.00
O17    O     0.86540   0.43130   0.79170   0.01267  Uiso   1.00
O18    O     0.76660   0.61510   0.74010   0.01267  Uiso   1.00
O19    O     0.92860   0.62930   0.51470   0.01267  Uiso   1.00
O20    O     0.96260   0.71910   0.37070   0.01267  Uiso   1.00
O21    O     0.62220   0.08760   0.29220   0.01267  Uiso   1.00
O22    O     0.48950   0.19780   0.39460   0.01267  Uiso   1.00
O23    O     0.58840   0.06870   0.70830   0.01267  Uiso   1.00
O24    O     0.62180   0.88490   0.75990   0.01267  Uiso   1.00
