data_ISENUQ_clean
_audit_creation_date              2014-07-02
_audit_creation_method            'Materials Studio'
_symmetry_space_group_name_H-M    'P1'
_symmetry_Int_Tables_number       1
_symmetry_cell_setting            triclinic
loop_
_symmetry_equiv_pos_as_xyz
  x,y,z
_cell_length_a                    8.7602
_cell_length_b                    21.2201
_cell_length_c                    27.8308
_cell_angle_alpha                 90.0000
_cell_angle_beta                  90.0000
_cell_angle_gamma                 97.6801
loop_
_atom_site_label
_atom_site_type_symbol
_atom_site_fract_x
_atom_site_fract_y
_atom_site_fract_z
_atom_site_U_iso_or_equiv
_atom_site_adp_type
_atom_site_occupancy
Dy1    Dy    0.81449   0.75378   0.31147   0.01267  Uiso   1.00
Dy2    Dy    0.23006   0.74834   0.42170   0.01267  Uiso   1.00
Dy3    Dy    0.18551   0.24622   0.81147   0.01267  Uiso   1.00
Dy4    Dy    0.76994   0.25166   0.92170   0.01267  Uiso   1.00
Ni1    Ni    0.27561   0.24013   0.31389   0.01267  Uiso   1.00
Ni2    Ni    0.77740   0.26348   0.40801   0.01267  Uiso   1.00
Ni3    Ni    0.72439   0.75987   0.81389   0.01267  Uiso   1.00
Ni4    Ni    0.22260   0.73652   0.90801   0.01267  Uiso   1.00
H1     H     0.34400   0.05140   0.20920   0.01267  Uiso   1.00
H2     H     0.22600   0.12440   0.15520   0.01267  Uiso   1.00
H3     H     0.18760   0.37190   0.16710   0.01267  Uiso   1.00
H4     H     0.17770   0.44570   0.23610   0.01267  Uiso   1.00
H5     H     0.06060   0.39750   0.42080   0.01267  Uiso   1.00
H6     H     0.12930   0.31650   0.47810   0.01267  Uiso   1.00
H7     H     0.50210   0.13890   0.45670   0.01267  Uiso   1.00
H8     H     0.56040   0.07160   0.38850   0.01267  Uiso   1.00
H9     H     0.95350   0.18570   0.15720   0.01267  Uiso   1.00
H10    H     0.84940   0.18760   0.07960   0.01267  Uiso   1.00
H11    H     0.22950   0.29600   0.03360   0.01267  Uiso   1.00
H12    H     0.33870   0.29490   0.11180   0.01267  Uiso   1.00
H13    H     0.92060   0.43820   0.29130   0.01267  Uiso   1.00
H14    H     0.85990   0.54200   0.29810   0.01267  Uiso   1.00
H15    H     0.21980   0.58700   0.38530   0.01267  Uiso   1.00
H16    H     0.28360   0.48430   0.37840   0.01267  Uiso   1.00
H17    H     0.18860   0.13730   0.49590   0.01267  Uiso   1.00
H18    H     0.19750   0.12890   0.57790   0.01267  Uiso   1.00
H19    H     0.44590   0.30060   0.58310   0.01267  Uiso   1.00
H20    H     0.43500   0.30920   0.50050   0.01267  Uiso   1.00
H21    H     0.27410   0.15870   0.69500   0.01267  Uiso   1.00
H22    H     0.35190   0.99740   0.35070   0.01267  Uiso   1.00
H23    H     0.44080   0.89760   0.34810   0.01267  Uiso   1.00
H24    H     0.69230   0.95460   0.23070   0.01267  Uiso   1.00
H25    H     0.61750   0.05510   0.23710   0.01267  Uiso   1.00
H26    H     0.69010   0.44340   0.51960   0.01267  Uiso   1.00
H27    H     0.78910   0.36450   0.57330   0.01267  Uiso   1.00
H28    H     0.82630   0.11800   0.55010   0.01267  Uiso   1.00
H29    H     0.87750   0.05360   0.47850   0.01267  Uiso   1.00
H30    H     0.00180   0.11340   0.29430   0.01267  Uiso   1.00
H31    H     0.90660   0.19100   0.24140   0.01267  Uiso   1.00
H32    H     0.55630   0.37440   0.26740   0.01267  Uiso   1.00
H33    H     0.50720   0.44030   0.33790   0.01267  Uiso   1.00
H34    H     0.04510   0.29090   0.58440   0.01267  Uiso   1.00
H35    H     0.07980   0.28610   0.66730   0.01267  Uiso   1.00
H36    H     0.65250   0.18140   0.67860   0.01267  Uiso   1.00
H37    H     0.62910   0.18640   0.59520   0.01267  Uiso   1.00
H38    H     0.80170   0.02720   0.33340   0.01267  Uiso   1.00
H39    H     0.86730   0.92510   0.32390   0.01267  Uiso   1.00
H40    H     0.19180   0.96360   0.42880   0.01267  Uiso   1.00
H41    H     0.13800   0.06650   0.43410   0.01267  Uiso   1.00
H42    H     0.85760   0.37080   0.22780   0.01267  Uiso   1.00
H43    H     0.83190   0.38060   0.14350   0.01267  Uiso   1.00
H44    H     0.55130   0.21260   0.14000   0.01267  Uiso   1.00
H45    H     0.58910   0.19960   0.22300   0.01267  Uiso   1.00
H46    H     0.73940   0.35190   0.02890   0.01267  Uiso   1.00
H47    H     0.72980   0.51900   0.38210   0.01267  Uiso   1.00
H48    H     0.63710   0.61420   0.39060   0.01267  Uiso   1.00
H49    H     0.33230   0.53850   0.49150   0.01267  Uiso   1.00
H50    H     0.42350   0.44030   0.48430   0.01267  Uiso   1.00
H51    H     0.65600   0.94860   0.70920   0.01267  Uiso   1.00
H52    H     0.77400   0.87560   0.65520   0.01267  Uiso   1.00
H53    H     0.81240   0.62810   0.66710   0.01267  Uiso   1.00
H54    H     0.82230   0.55430   0.73610   0.01267  Uiso   1.00
H55    H     0.93940   0.60250   0.92080   0.01267  Uiso   1.00
H56    H     0.87070   0.68350   0.97810   0.01267  Uiso   1.00
H57    H     0.49790   0.86110   0.95670   0.01267  Uiso   1.00
H58    H     0.43960   0.92840   0.88850   0.01267  Uiso   1.00
H59    H     0.04650   0.81430   0.65720   0.01267  Uiso   1.00
H60    H     0.15060   0.81240   0.57960   0.01267  Uiso   1.00
H61    H     0.77050   0.70400   0.53360   0.01267  Uiso   1.00
H62    H     0.66130   0.70510   0.61180   0.01267  Uiso   1.00
H63    H     0.07940   0.56180   0.79130   0.01267  Uiso   1.00
H64    H     0.14010   0.45800   0.79810   0.01267  Uiso   1.00
H65    H     0.78020   0.41300   0.88530   0.01267  Uiso   1.00
H66    H     0.71640   0.51570   0.87840   0.01267  Uiso   1.00
H67    H     0.81140   0.86270   0.99590   0.01267  Uiso   1.00
H68    H     0.80250   0.87110   0.07790   0.01267  Uiso   1.00
H69    H     0.55410   0.69940   0.08310   0.01267  Uiso   1.00
H70    H     0.56500   0.69080   0.00050   0.01267  Uiso   1.00
H71    H     0.72590   0.84130   0.19500   0.01267  Uiso   1.00
H72    H     0.64810   0.00260   0.85070   0.01267  Uiso   1.00
H73    H     0.55920   0.10240   0.84810   0.01267  Uiso   1.00
H74    H     0.30770   0.04540   0.73070   0.01267  Uiso   1.00
H75    H     0.38250   0.94490   0.73710   0.01267  Uiso   1.00
H76    H     0.30990   0.55660   0.01960   0.01267  Uiso   1.00
H77    H     0.21090   0.63550   0.07330   0.01267  Uiso   1.00
H78    H     0.17370   0.88200   0.05010   0.01267  Uiso   1.00
H79    H     0.12250   0.94640   0.97850   0.01267  Uiso   1.00
H80    H     0.99820   0.88660   0.79430   0.01267  Uiso   1.00
H81    H     0.09340   0.80900   0.74140   0.01267  Uiso   1.00
H82    H     0.44370   0.62560   0.76740   0.01267  Uiso   1.00
H83    H     0.49280   0.55970   0.83790   0.01267  Uiso   1.00
H84    H     0.95490   0.70910   0.08440   0.01267  Uiso   1.00
H85    H     0.92020   0.71390   0.16730   0.01267  Uiso   1.00
H86    H     0.34750   0.81860   0.17860   0.01267  Uiso   1.00
H87    H     0.37090   0.81360   0.09520   0.01267  Uiso   1.00
H88    H     0.19830   0.97280   0.83340   0.01267  Uiso   1.00
H89    H     0.13270   0.07490   0.82390   0.01267  Uiso   1.00
H90    H     0.80820   0.03640   0.92880   0.01267  Uiso   1.00
H91    H     0.86200   0.93350   0.93410   0.01267  Uiso   1.00
H92    H     0.14240   0.62920   0.72780   0.01267  Uiso   1.00
H93    H     0.16810   0.61940   0.64350   0.01267  Uiso   1.00
H94    H     0.44870   0.78740   0.64000   0.01267  Uiso   1.00
H95    H     0.41090   0.80040   0.72300   0.01267  Uiso   1.00
H96    H     0.26060   0.64810   0.52890   0.01267  Uiso   1.00
H97    H     0.27020   0.48100   0.88210   0.01267  Uiso   1.00
H98    H     0.36290   0.38580   0.89060   0.01267  Uiso   1.00
H99    H     0.66770   0.46150   0.99150   0.01267  Uiso   1.00
H100   H     0.57650   0.55970   0.98430   0.01267  Uiso   1.00
C1     C     0.35040   0.12400   0.26150   0.01267  Uiso   1.00
C2     C     0.32210   0.09280   0.21700   0.01267  Uiso   1.00
C3     C     0.25800   0.13260   0.18750   0.01267  Uiso   1.00
C4     C     0.24800   0.18890   0.21400   0.01267  Uiso   1.00
C5     C     0.20870   0.24570   0.19400   0.01267  Uiso   1.00
C6     C     0.21500   0.30090   0.22000   0.01267  Uiso   1.00
C7     C     0.19440   0.36170   0.20020   0.01267  Uiso   1.00
C8     C     0.18670   0.40160   0.23780   0.01267  Uiso   1.00
C9     C     0.19480   0.36510   0.28080   0.01267  Uiso   1.00
C10    C     0.15660   0.38510   0.32610   0.01267  Uiso   1.00
C11    C     0.16410   0.34840   0.36600   0.01267  Uiso   1.00
C12    C     0.11280   0.36240   0.41290   0.01267  Uiso   1.00
C13    C     0.14960   0.31820   0.44460   0.01267  Uiso   1.00
C14    C     0.22530   0.27490   0.41690   0.01267  Uiso   1.00
C15    C     0.30140   0.22740   0.43630   0.01267  Uiso   1.00
C16    C     0.36990   0.18550   0.40720   0.01267  Uiso   1.00
C17    C     0.46720   0.14190   0.42450   0.01267  Uiso   1.00
C18    C     0.50110   0.10600   0.38730   0.01267  Uiso   1.00
C19    C     0.43070   0.12930   0.34560   0.01267  Uiso   1.00
C20    C     0.42220   0.09870   0.30060   0.01267  Uiso   1.00
C21    C     0.15680   0.24360   0.14290   0.01267  Uiso   1.00
C22    C     0.01020   0.20940   0.13250   0.01267  Uiso   1.00
C23    C     0.94830   0.21010   0.08620   0.01267  Uiso   1.00
C24    C     0.03060   0.24330   0.05040   0.01267  Uiso   1.00
C25    C     0.17240   0.27400   0.05900   0.01267  Uiso   1.00
C26    C     0.23780   0.27380   0.10620   0.01267  Uiso   1.00
C27    C     0.95260   0.24430   0.00240   0.01267  Uiso   1.00
C28    C     0.11290   0.45020   0.33190   0.01267  Uiso   1.00
C29    C     0.98520   0.46840   0.30990   0.01267  Uiso   1.00
C30    C     0.94760   0.53060   0.31430   0.01267  Uiso   1.00
C31    C     0.03520   0.57430   0.34150   0.01267  Uiso   1.00
C32    C     0.15920   0.55690   0.36550   0.01267  Uiso   1.00
C33    C     0.19780   0.49550   0.36110   0.01267  Uiso   1.00
C34    C     0.99750   0.64030   0.34660   0.01267  Uiso   1.00
C35    C     0.30870   0.22300   0.48970   0.01267  Uiso   1.00
C36    C     0.24180   0.17150   0.51380   0.01267  Uiso   1.00
C37    C     0.24670   0.16590   0.56220   0.01267  Uiso   1.00
C38    C     0.32450   0.21520   0.58830   0.01267  Uiso   1.00
C39    C     0.39210   0.26670   0.56510   0.01267  Uiso   1.00
C40    C     0.38620   0.27210   0.51610   0.01267  Uiso   1.00
C41    C     0.33280   0.21300   0.64280   0.01267  Uiso   1.00
C42    C     0.47700   0.03690   0.29500   0.01267  Uiso   1.00
C43    C     0.42460   0.98950   0.32680   0.01267  Uiso   1.00
C44    C     0.47580   0.92930   0.32500   0.01267  Uiso   1.00
C45    C     0.57680   0.91680   0.28960   0.01267  Uiso   1.00
C46    C     0.62610   0.96350   0.25610   0.01267  Uiso   1.00
C47    C     0.57920   0.02300   0.25950   0.01267  Uiso   1.00
C48    C     0.64420   0.85510   0.29130   0.01267  Uiso   1.00
C49    C     0.70190   0.37550   0.46400   0.01267  Uiso   1.00
C50    C     0.71420   0.40270   0.51070   0.01267  Uiso   1.00
C51    C     0.76670   0.35980   0.54000   0.01267  Uiso   1.00
C52    C     0.78190   0.30550   0.51040   0.01267  Uiso   1.00
C53    C     0.81210   0.24740   0.52880   0.01267  Uiso   1.00
C54    C     0.82080   0.19490   0.50020   0.01267  Uiso   1.00
C55    C     0.83490   0.13210   0.51770   0.01267  Uiso   1.00
C56    C     0.86280   0.09710   0.47840   0.01267  Uiso   1.00
C57    C     0.86640   0.13740   0.43680   0.01267  Uiso   1.00
C58    C     0.91060   0.12120   0.39130   0.01267  Uiso   1.00
C59    C     0.89870   0.15960   0.35160   0.01267  Uiso   1.00
C60    C     0.94510   0.14650   0.30370   0.01267  Uiso   1.00
C61    C     0.89480   0.18870   0.27530   0.01267  Uiso   1.00
C62    C     0.81980   0.23020   0.30430   0.01267  Uiso   1.00
C63    C     0.74130   0.27830   0.28650   0.01267  Uiso   1.00
C64    C     0.67910   0.31940   0.31680   0.01267  Uiso   1.00
C65    C     0.58910   0.36880   0.29950   0.01267  Uiso   1.00
C66    C     0.56220   0.40460   0.33780   0.01267  Uiso   1.00
C67    C     0.63340   0.37840   0.37900   0.01267  Uiso   1.00
C68    C     0.63800   0.40460   0.42400   0.01267  Uiso   1.00
C69    C     0.83310   0.24290   0.58300   0.01267  Uiso   1.00
C70    C     0.96550   0.26950   0.60380   0.01267  Uiso   1.00
C71    C     0.98760   0.26610   0.65280   0.01267  Uiso   1.00
C72    C     0.86820   0.23190   0.68120   0.01267  Uiso   1.00
C73    C     0.73310   0.20340   0.65970   0.01267  Uiso   1.00
C74    C     0.71830   0.20760   0.61050   0.01267  Uiso   1.00
C75    C     0.88600   0.23060   0.73600   0.01267  Uiso   1.00
C76    C     0.96110   0.05720   0.38460   0.01267  Uiso   1.00
C77    C     0.88220   0.01420   0.35230   0.01267  Uiso   1.00
C78    C     0.91880   0.95290   0.34730   0.01267  Uiso   1.00
C79    C     0.03300   0.93170   0.37700   0.01267  Uiso   1.00
C80    C     0.11300   0.97650   0.40910   0.01267  Uiso   1.00
C81    C     0.08060   0.03740   0.41280   0.01267  Uiso   1.00
C82    C     0.05600   0.86380   0.37630   0.01267  Uiso   1.00
C83    C     0.72270   0.28340   0.23390   0.01267  Uiso   1.00
C84    C     0.79690   0.33840   0.21000   0.01267  Uiso   1.00
C85    C     0.77990   0.34460   0.15970   0.01267  Uiso   1.00
C86    C     0.68780   0.29830   0.13420   0.01267  Uiso   1.00
C87    C     0.61480   0.24430   0.15760   0.01267  Uiso   1.00
C88    C     0.63590   0.23710   0.20750   0.01267  Uiso   1.00
C89    C     0.66000   0.30660   0.08260   0.01267  Uiso   1.00
C90    C     0.58220   0.46750   0.43080   0.01267  Uiso   1.00
C91    C     0.64760   0.52230   0.40390   0.01267  Uiso   1.00
C92    C     0.59300   0.57890   0.40920   0.01267  Uiso   1.00
C93    C     0.47370   0.58680   0.44120   0.01267  Uiso   1.00
C94    C     0.41200   0.53390   0.46920   0.01267  Uiso   1.00
C95    C     0.46530   0.47500   0.46470   0.01267  Uiso   1.00
C96    C     0.40070   0.64650   0.44170   0.01267  Uiso   1.00
C97    C     0.64960   0.87600   0.76150   0.01267  Uiso   1.00
C98    C     0.67790   0.90720   0.71700   0.01267  Uiso   1.00
C99    C     0.74200   0.86740   0.68750   0.01267  Uiso   1.00
C100   C     0.75200   0.81110   0.71400   0.01267  Uiso   1.00
C101   C     0.79130   0.75430   0.69400   0.01267  Uiso   1.00
C102   C     0.78500   0.69910   0.72000   0.01267  Uiso   1.00
C103   C     0.80560   0.63830   0.70020   0.01267  Uiso   1.00
C104   C     0.81330   0.59840   0.73780   0.01267  Uiso   1.00
C105   C     0.80520   0.63490   0.78080   0.01267  Uiso   1.00
C106   C     0.84340   0.61490   0.82610   0.01267  Uiso   1.00
C107   C     0.83590   0.65160   0.86600   0.01267  Uiso   1.00
C108   C     0.88720   0.63760   0.91290   0.01267  Uiso   1.00
C109   C     0.85040   0.68180   0.94460   0.01267  Uiso   1.00
C110   C     0.77470   0.72510   0.91690   0.01267  Uiso   1.00
C111   C     0.69860   0.77260   0.93630   0.01267  Uiso   1.00
C112   C     0.63010   0.81450   0.90720   0.01267  Uiso   1.00
C113   C     0.53280   0.85810   0.92450   0.01267  Uiso   1.00
C114   C     0.49890   0.89400   0.88730   0.01267  Uiso   1.00
C115   C     0.56930   0.87070   0.84560   0.01267  Uiso   1.00
C116   C     0.57780   0.90130   0.80060   0.01267  Uiso   1.00
C117   C     0.84320   0.75640   0.64290   0.01267  Uiso   1.00
C118   C     0.98980   0.79060   0.63250   0.01267  Uiso   1.00
C119   C     0.05170   0.78990   0.58620   0.01267  Uiso   1.00
C120   C     0.96940   0.75670   0.55040   0.01267  Uiso   1.00
C121   C     0.82760   0.72600   0.55900   0.01267  Uiso   1.00
C122   C     0.76220   0.72620   0.60620   0.01267  Uiso   1.00
C123   C     0.04740   0.75570   0.50240   0.01267  Uiso   1.00
C124   C     0.88710   0.54980   0.83190   0.01267  Uiso   1.00
C125   C     0.01480   0.53160   0.80990   0.01267  Uiso   1.00
C126   C     0.05240   0.46940   0.81430   0.01267  Uiso   1.00
C127   C     0.96480   0.42570   0.84150   0.01267  Uiso   1.00
C128   C     0.84080   0.44310   0.86550   0.01267  Uiso   1.00
C129   C     0.80220   0.50450   0.86110   0.01267  Uiso   1.00
C130   C     0.00250   0.35970   0.84660   0.01267  Uiso   1.00
C131   C     0.69130   0.77700   0.98970   0.01267  Uiso   1.00
C132   C     0.75820   0.82850   0.01380   0.01267  Uiso   1.00
C133   C     0.75330   0.83410   0.06220   0.01267  Uiso   1.00
C134   C     0.67550   0.78480   0.08830   0.01267  Uiso   1.00
C135   C     0.60790   0.73330   0.06510   0.01267  Uiso   1.00
C136   C     0.61380   0.72790   0.01610   0.01267  Uiso   1.00
C137   C     0.66720   0.78700   0.14280   0.01267  Uiso   1.00
C138   C     0.52300   0.96310   0.79500   0.01267  Uiso   1.00
C139   C     0.57540   0.01050   0.82680   0.01267  Uiso   1.00
C140   C     0.52420   0.07070   0.82500   0.01267  Uiso   1.00
C141   C     0.42320   0.08320   0.78960   0.01267  Uiso   1.00
C142   C     0.37390   0.03650   0.75610   0.01267  Uiso   1.00
C143   C     0.42080   0.97700   0.75950   0.01267  Uiso   1.00
C144   C     0.35580   0.14490   0.79130   0.01267  Uiso   1.00
C145   C     0.29810   0.62450   0.96400   0.01267  Uiso   1.00
C146   C     0.28580   0.59730   0.01070   0.01267  Uiso   1.00
C147   C     0.23330   0.64020   0.04000   0.01267  Uiso   1.00
C148   C     0.21810   0.69450   0.01040   0.01267  Uiso   1.00
C149   C     0.18790   0.75260   0.02880   0.01267  Uiso   1.00
C150   C     0.17920   0.80510   0.00020   0.01267  Uiso   1.00
C151   C     0.16510   0.86790   0.01770   0.01267  Uiso   1.00
C152   C     0.13720   0.90290   0.97840   0.01267  Uiso   1.00
C153   C     0.13360   0.86260   0.93680   0.01267  Uiso   1.00
C154   C     0.08940   0.87880   0.89130   0.01267  Uiso   1.00
C155   C     0.10130   0.84040   0.85160   0.01267  Uiso   1.00
C156   C     0.05490   0.85350   0.80370   0.01267  Uiso   1.00
C157   C     0.10520   0.81130   0.77530   0.01267  Uiso   1.00
C158   C     0.18020   0.76980   0.80430   0.01267  Uiso   1.00
C159   C     0.25870   0.72170   0.78650   0.01267  Uiso   1.00
C160   C     0.32090   0.68060   0.81680   0.01267  Uiso   1.00
C161   C     0.41090   0.63120   0.79950   0.01267  Uiso   1.00
C162   C     0.43780   0.59540   0.83780   0.01267  Uiso   1.00
C163   C     0.36660   0.62160   0.87900   0.01267  Uiso   1.00
C164   C     0.36200   0.59540   0.92400   0.01267  Uiso   1.00
C165   C     0.16690   0.75710   0.08300   0.01267  Uiso   1.00
C166   C     0.03450   0.73050   0.10380   0.01267  Uiso   1.00
C167   C     0.01240   0.73390   0.15280   0.01267  Uiso   1.00
C168   C     0.13180   0.76810   0.18120   0.01267  Uiso   1.00
C169   C     0.26690   0.79660   0.15970   0.01267  Uiso   1.00
C170   C     0.28170   0.79240   0.11050   0.01267  Uiso   1.00
C171   C     0.11400   0.76940   0.23600   0.01267  Uiso   1.00
C172   C     0.03890   0.94280   0.88460   0.01267  Uiso   1.00
C173   C     0.11780   0.98580   0.85230   0.01267  Uiso   1.00
C174   C     0.08120   0.04710   0.84730   0.01267  Uiso   1.00
C175   C     0.96700   0.06830   0.87700   0.01267  Uiso   1.00
C176   C     0.88700   0.02350   0.90910   0.01267  Uiso   1.00
C177   C     0.91940   0.96260   0.91280   0.01267  Uiso   1.00
C178   C     0.94400   0.13620   0.87630   0.01267  Uiso   1.00
C179   C     0.27730   0.71660   0.73390   0.01267  Uiso   1.00
C180   C     0.20310   0.66160   0.71000   0.01267  Uiso   1.00
C181   C     0.22010   0.65540   0.65970   0.01267  Uiso   1.00
C182   C     0.31220   0.70170   0.63420   0.01267  Uiso   1.00
C183   C     0.38520   0.75570   0.65760   0.01267  Uiso   1.00
C184   C     0.36410   0.76290   0.70750   0.01267  Uiso   1.00
C185   C     0.34000   0.69340   0.58260   0.01267  Uiso   1.00
C186   C     0.41780   0.53250   0.93080   0.01267  Uiso   1.00
C187   C     0.35240   0.47770   0.90390   0.01267  Uiso   1.00
C188   C     0.40700   0.42110   0.90920   0.01267  Uiso   1.00
C189   C     0.52630   0.41320   0.94120   0.01267  Uiso   1.00
C190   C     0.58800   0.46610   0.96920   0.01267  Uiso   1.00
C191   C     0.53470   0.52500   0.96470   0.01267  Uiso   1.00
C192   C     0.59930   0.35350   0.94170   0.01267  Uiso   1.00
N1     N     0.29940   0.18390   0.26050   0.01267  Uiso   1.00
N2     N     0.22070   0.30380   0.27000   0.01267  Uiso   1.00
N3     N     0.22600   0.29170   0.36780   0.01267  Uiso   1.00
N4     N     0.35540   0.18030   0.35780   0.01267  Uiso   1.00
N5     N     0.74630   0.31630   0.46270   0.01267  Uiso   1.00
N6     N     0.83220   0.19730   0.45070   0.01267  Uiso   1.00
N7     N     0.82810   0.21490   0.35240   0.01267  Uiso   1.00
N8     N     0.69980   0.32500   0.36630   0.01267  Uiso   1.00
N9     N     0.70060   0.81610   0.76050   0.01267  Uiso   1.00
N10    N     0.77930   0.69620   0.77000   0.01267  Uiso   1.00
N11    N     0.77400   0.70830   0.86780   0.01267  Uiso   1.00
N12    N     0.64460   0.81970   0.85780   0.01267  Uiso   1.00
N13    N     0.25370   0.68370   0.96270   0.01267  Uiso   1.00
N14    N     0.16780   0.80270   0.95070   0.01267  Uiso   1.00
N15    N     0.17190   0.78510   0.85240   0.01267  Uiso   1.00
N16    N     0.30020   0.67500   0.86630   0.01267  Uiso   1.00
O1     O     0.81480   0.21830   0.99990   0.01267  Uiso   1.00
O2     O     0.01910   0.27190   0.96670   0.01267  Uiso   1.00
O3     O     0.88300   0.65330   0.32320   0.01267  Uiso   1.00
O4     O     0.07940   0.67830   0.37390   0.01267  Uiso   1.00
O5     O     0.27730   0.15780   0.66200   0.01267  Uiso   1.00
O6     O     0.38480   0.25930   0.66740   0.01267  Uiso   1.00
O7     O     0.62060   0.82050   0.32820   0.01267  Uiso   1.00
O8     O     0.73230   0.84070   0.25810   0.01267  Uiso   1.00
O9     O     0.76530   0.21130   0.75840   0.01267  Uiso   1.00
O10    O     0.01760   0.24660   0.75190   0.01267  Uiso   1.00
O11    O     0.98870   0.82810   0.34440   0.01267  Uiso   1.00
O12    O     0.13780   0.84460   0.40880   0.01267  Uiso   1.00
O13    O     0.56300   0.27160   0.06030   0.01267  Uiso   1.00
O14    O     0.74880   0.35340   0.06190   0.01267  Uiso   1.00
O15    O     0.45340   0.69010   0.41360   0.01267  Uiso   1.00
O16    O     0.28130   0.65120   0.46680   0.01267  Uiso   1.00
O17    O     0.18520   0.78170   0.49990   0.01267  Uiso   1.00
O18    O     0.98090   0.72810   0.46670   0.01267  Uiso   1.00
O19    O     0.11700   0.34670   0.82320   0.01267  Uiso   1.00
O20    O     0.92060   0.32170   0.87390   0.01267  Uiso   1.00
O21    O     0.72270   0.84220   0.16200   0.01267  Uiso   1.00
O22    O     0.61520   0.74070   0.16740   0.01267  Uiso   1.00
O23    O     0.37940   0.17950   0.82820   0.01267  Uiso   1.00
O24    O     0.26770   0.15930   0.75810   0.01267  Uiso   1.00
O25    O     0.23470   0.78870   0.25840   0.01267  Uiso   1.00
O26    O     0.98240   0.75340   0.25190   0.01267  Uiso   1.00
O27    O     0.01130   0.17190   0.84440   0.01267  Uiso   1.00
O28    O     0.86220   0.15540   0.90880   0.01267  Uiso   1.00
O29    O     0.43700   0.72840   0.56030   0.01267  Uiso   1.00
O30    O     0.25120   0.64660   0.56190   0.01267  Uiso   1.00
O31    O     0.54660   0.30990   0.91360   0.01267  Uiso   1.00
O32    O     0.71870   0.34880   0.96680   0.01267  Uiso   1.00
