data_image0
_cell_length_a       9.3265
_cell_length_b       9.6587
_cell_length_c       11.7631
_cell_angle_alpha    75.363
_cell_angle_beta     78.555
_cell_angle_gamma    87.178

_symmetry_space_group_name_H-M    "P 1"
_symmetry_int_tables_number       1

loop_
  _symmetry_equiv_pos_as_xyz
  'x, y, z'

loop_
  _atom_site_label
  _atom_site_occupancy
  _atom_site_fract_x
  _atom_site_fract_y
  _atom_site_fract_z
  _atom_site_thermal_displace_type
  _atom_site_B_iso_or_equiv
  _atom_site_type_symbol
  Zn1      1.0000 0.55461  0.11495  0.11163  Biso   1.000  Zn
  O1       1.0000 0.92570  0.60260  0.37760  Biso   1.000  O
  O2       1.0000 0.64300  0.29670  0.09273  Biso   1.000  O
  N1       1.0000 0.28770  0.02980  0.45020  Biso   1.000  N
  O3       1.0000 0.74280  0.19230  0.24840  Biso   1.000  O
  C1       1.0000 0.68740  0.56870  0.12290  Biso   1.000  C
  H1       1.0000 0.63310  0.56300  0.06600  Biso   1.000  H
  N2       1.0000 0.42780  0.04060  0.27280  Biso   1.000  N
  C2       1.0000 0.79640  0.70890  0.22590  Biso   1.000  C
  H2       1.0000 0.81610  0.79730  0.23740  Biso   1.000  H
  C3       1.0000 0.71370  0.70160  0.14170  Biso   1.000  C
  C4       1.0000 0.82430  0.45370  0.27370  Biso   1.000  C
  H3       1.0000 0.86190  0.37080  0.31740  Biso   1.000  H
  C5       1.0000 0.96780  0.47540  0.45520  Biso   1.000  C
  H4       1.0000 0.03950  0.42260  0.41090  Biso   1.000  H
  H5       1.0000 0.88370  0.41440  0.49440  Biso   1.000  H
  C6       1.0000 0.74210  0.44600  0.18900  Biso   1.000  C
  C7       1.0000 0.85000  0.58520  0.29290  Biso   1.000  C
  C8       1.0000 0.34380  0.89580  0.45150  Biso   1.000  C
  H6       1.0000 0.32650  0.81500  0.51510  Biso   1.000  H
  C9       1.0000 0.70900  0.29900  0.17770  Biso   1.000  C
  C10      1.0000 0.34090  0.11500  0.34070  Biso   1.000  C
  C11      1.0000 0.42870  0.90310  0.34330  Biso   1.000  C
  H7       1.0000 0.48010  0.82680  0.31970  Biso   1.000  H
  C12      1.0000 0.31880  0.27150  0.30720  Biso   1.000  C
  C13      1.0000 0.17390  0.06670  0.54470  Biso   1.000  C
  C14      1.0000 0.37110  0.35630  0.37120  Biso   1.000  C
  H8       1.0000 0.41440  0.31270  0.43600  Biso   1.000  H
  C15      1.0000 0.24270  0.48580  0.17790  Biso   1.000  C
  H9       1.0000 0.19910  0.53070  0.11360  Biso   1.000  H
  C16      1.0000 0.25490  0.33370  0.21200  Biso   1.000  C
  H10      1.0000 0.21980  0.27760  0.16980  Biso   1.000  H
  C17      1.0000 0.35920  0.50310  0.33970  Biso   1.000  C
  H11      1.0000 0.39210  0.55940  0.38280  Biso   1.000  H
  C18      1.0000 0.29670  0.56340  0.24190  Biso   1.000  C
  H12      1.0000 0.29100  0.66270  0.21830  Biso   1.000  H
  C19      1.0000 0.02900  0.98030  0.56200  Biso   1.000  C
  C20      1.0000 0.64570  0.83390  0.07740  Biso   1.000  C
  O4       1.0000 0.67790  0.95060  0.09490  Biso   1.000  O
  O5       1.0000 0.56210  0.81920  0.01280  Biso   1.000  O
  C21      1.0000 0.98070  0.93400  0.49150  Biso   1.000  C
  Zn2      1.0000 0.44539  0.88505  0.88837  Biso   1.000  Zn
  O6       1.0000 0.07430  0.39740  0.62240  Biso   1.000  O
  O7       1.0000 0.35700  0.70330  0.90727  Biso   1.000  O
  N3       1.0000 0.71230  0.97020  0.54980  Biso   1.000  N
  O8       1.0000 0.25720  0.80770  0.75160  Biso   1.000  O
  C22      1.0000 0.31260  0.43130  0.87710  Biso   1.000  C
  H13      1.0000 0.36690  0.43700  0.93400  Biso   1.000  H
  N4       1.0000 0.57220  0.95940  0.72720  Biso   1.000  N
  C23      1.0000 0.20360  0.29110  0.77410  Biso   1.000  C
  H14      1.0000 0.18390  0.20270  0.76260  Biso   1.000  H
  C24      1.0000 0.28630  0.29840  0.85830  Biso   1.000  C
  C25      1.0000 0.17570  0.54630  0.72630  Biso   1.000  C
  H15      1.0000 0.13810  0.62920  0.68260  Biso   1.000  H
  C26      1.0000 0.03220  0.52460  0.54480  Biso   1.000  C
  H16      1.0000 0.96050  0.57740  0.58910  Biso   1.000  H
  H17      1.0000 0.11630  0.58560  0.50560  Biso   1.000  H
  C27      1.0000 0.25790  0.55400  0.81100  Biso   1.000  C
  C28      1.0000 0.15000  0.41480  0.70710  Biso   1.000  C
  C29      1.0000 0.65620  0.10420  0.54850  Biso   1.000  C
  H18      1.0000 0.67350  0.18500  0.48490  Biso   1.000  H
  C30      1.0000 0.29100  0.70100  0.82230  Biso   1.000  C
  C31      1.0000 0.65910  0.88500  0.65930  Biso   1.000  C
  C32      1.0000 0.57130  0.09690  0.65670  Biso   1.000  C
  H19      1.0000 0.51990  0.17320  0.68030  Biso   1.000  H
  C33      1.0000 0.68120  0.72850  0.69280  Biso   1.000  C
  C34      1.0000 0.82610  0.93330  0.45530  Biso   1.000  C
  C35      1.0000 0.62890  0.64370  0.62880  Biso   1.000  C
  H20      1.0000 0.58560  0.68730  0.56400  Biso   1.000  H
  C36      1.0000 0.75730  0.51420  0.82210  Biso   1.000  C
  H21      1.0000 0.80090  0.46930  0.88640  Biso   1.000  H
  C37      1.0000 0.74510  0.66630  0.78800  Biso   1.000  C
  H22      1.0000 0.78020  0.72240  0.83020  Biso   1.000  H
  C38      1.0000 0.64080  0.49690  0.66030  Biso   1.000  C
  H23      1.0000 0.60790  0.44060  0.61720  Biso   1.000  H
  C39      1.0000 0.70330  0.43660  0.75810  Biso   1.000  C
  H24      1.0000 0.70900  0.33730  0.78170  Biso   1.000  H
  C40      1.0000 0.97100  0.01970  0.43800  Biso   1.000  C
  C41      1.0000 0.35430  0.16610  0.92260  Biso   1.000  C
  O9       1.0000 0.32210  0.04940  0.90510  Biso   1.000  O
  O10      1.0000 0.43790  0.18080  0.98720  Biso   1.000  O
  C42      1.0000 0.01930  0.06600  0.50850  Biso   1.000  C
