data_image0
_cell_length_a       18.0939
_cell_length_b       13.3115
_cell_length_c       8.5775
_cell_angle_alpha    90
_cell_angle_beta     90
_cell_angle_gamma    90

_symmetry_space_group_name_H-M    "P 1"
_symmetry_int_tables_number       1

loop_
  _symmetry_equiv_pos_as_xyz
  'x, y, z'

loop_
  _atom_site_label
  _atom_site_occupancy
  _atom_site_fract_x
  _atom_site_fract_y
  _atom_site_fract_z
  _atom_site_thermal_displace_type
  _atom_site_B_iso_or_equiv
  _atom_site_type_symbol
  Er1      1.0000 0.60102  0.37458  0.25264  Biso   1.000  Er
  Er2      1.0000 0.39380  0.12491  0.75236  Biso   1.000  Er
  O1       1.0000 0.56390  0.29410  0.48110  Biso   1.000  O
  O2       1.0000 0.49710  0.21080  0.65210  Biso   1.000  O
  O3       1.0000 0.64800  0.20570  0.23330  Biso   1.000  O
  O4       1.0000 0.64780  0.04150  0.28190  Biso   1.000  O
  O5       1.0000 0.70320  0.38640  0.42050  Biso   1.000  O
  O6       1.0000 0.79570  0.38110  0.58150  Biso   1.000  O
  O7       1.0000 0.70110  0.36600  0.09100  Biso   1.000  O
  O8       1.0000 0.79150  0.36780  0.92390  Biso   1.000  O
  O9       1.0000 0.64770  0.54330  0.23820  Biso   1.000  O
  O10      1.0000 0.64750  0.70760  0.19590  Biso   1.000  O
  O11      1.0000 0.50340  0.46710  0.33840  Biso   1.000  O
  O12      1.0000 0.43430  0.55320  0.50770  Biso   1.000  O
  O13      1.0000 0.50180  0.27980  0.15330  Biso   1.000  O
  O14      1.0000 0.42710  0.21590  0.97310  Biso   1.000  O
  O15      1.0000 0.49710  0.04060  0.84960  Biso   1.000  O
  O16      1.0000 0.57190  0.96280  0.01640  Biso   1.000  O
  C1       1.0000 0.51020  0.24680  0.52060  Biso   1.000  C
  H1       1.0000 0.47370  0.23570  0.44280  Biso   1.000  H
  C2       1.0000 0.61550  0.11860  0.26290  Biso   1.000  C
  H2       1.0000 0.56310  0.11750  0.26940  Biso   1.000  H
  C3       1.0000 0.73250  0.35420  0.52500  Biso   1.000  C
  H3       1.0000 0.70790  0.30120  0.57780  Biso   1.000  H
  C4       1.0000 0.73300  0.39520  0.96090  Biso   1.000  C
  H4       1.0000 0.70730  0.44050  0.89450  Biso   1.000  H
  C5       1.0000 0.61650  0.62170  0.21410  Biso   1.000  C
  H5       1.0000 0.56410  0.61980  0.20810  Biso   1.000  H
  C6       1.0000 0.49320  0.50690  0.46720  Biso   1.000  C
  H6       1.0000 0.53200  0.50280  0.54150  Biso   1.000  H
  C7       1.0000 0.48810  0.24860  0.02030  Biso   1.000  C
  H7       1.0000 0.52750  0.24960  0.94720  Biso   1.000  H
  C8       1.0000 0.51050  0.00090  0.97490  Biso   1.000  C
  H8       1.0000 0.47130  0.99830  0.04840  Biso   1.000  H
  Er3      1.0000 0.39898  0.62542  0.75264  Biso   1.000  Er
  Er4      1.0000 0.60620  0.87509  0.25236  Biso   1.000  Er
  O17      1.0000 0.43610  0.70590  0.98110  Biso   1.000  O
  O18      1.0000 0.50290  0.78920  0.15210  Biso   1.000  O
  O19      1.0000 0.35200  0.79430  0.73330  Biso   1.000  O
  O20      1.0000 0.35220  0.95850  0.78190  Biso   1.000  O
  O21      1.0000 0.29680  0.61360  0.92050  Biso   1.000  O
  O22      1.0000 0.20430  0.61890  0.08150  Biso   1.000  O
  O23      1.0000 0.29890  0.63400  0.59100  Biso   1.000  O
  O24      1.0000 0.20850  0.63220  0.42390  Biso   1.000  O
  O25      1.0000 0.35230  0.45670  0.73820  Biso   1.000  O
  O26      1.0000 0.35250  0.29240  0.69590  Biso   1.000  O
  O27      1.0000 0.49660  0.53290  0.83840  Biso   1.000  O
  O28      1.0000 0.56570  0.44680  0.00770  Biso   1.000  O
  O29      1.0000 0.49820  0.72020  0.65330  Biso   1.000  O
  O30      1.0000 0.57290  0.78410  0.47310  Biso   1.000  O
  O31      1.0000 0.50290  0.95940  0.34960  Biso   1.000  O
  O32      1.0000 0.42810  0.03720  0.51640  Biso   1.000  O
  C9       1.0000 0.48980  0.75320  0.02060  Biso   1.000  C
  H9       1.0000 0.52630  0.76430  0.94280  Biso   1.000  H
  C10      1.0000 0.38450  0.88140  0.76290  Biso   1.000  C
  H10      1.0000 0.43690  0.88250  0.76940  Biso   1.000  H
  C11      1.0000 0.26750  0.64580  0.02500  Biso   1.000  C
  H11      1.0000 0.29210  0.69880  0.07780  Biso   1.000  H
  C12      1.0000 0.26700  0.60480  0.46090  Biso   1.000  C
  H12      1.0000 0.29270  0.55950  0.39450  Biso   1.000  H
  C13      1.0000 0.38350  0.37830  0.71410  Biso   1.000  C
  H13      1.0000 0.43590  0.38020  0.70810  Biso   1.000  H
  C14      1.0000 0.50680  0.49310  0.96720  Biso   1.000  C
  H14      1.0000 0.46800  0.49720  0.04150  Biso   1.000  H
  C15      1.0000 0.51190  0.75140  0.52030  Biso   1.000  C
  H15      1.0000 0.47250  0.75040  0.44720  Biso   1.000  H
  C16      1.0000 0.48950  0.99910  0.47490  Biso   1.000  C
  H16      1.0000 0.52870  0.00170  0.54840  Biso   1.000  H
  Er5      1.0000 0.10102  0.12542  0.25264  Biso   1.000  Er
  Er6      1.0000 0.89380  0.37509  0.75236  Biso   1.000  Er
  O33      1.0000 0.06390  0.20590  0.48110  Biso   1.000  O
  O34      1.0000 0.99710  0.28920  0.65210  Biso   1.000  O
  O35      1.0000 0.14800  0.29430  0.23330  Biso   1.000  O
  O36      1.0000 0.14780  0.45850  0.28190  Biso   1.000  O
  O37      1.0000 0.20320  0.11360  0.42050  Biso   1.000  O
  O38      1.0000 0.29570  0.11890  0.58150  Biso   1.000  O
  O39      1.0000 0.20110  0.13400  0.09100  Biso   1.000  O
  O40      1.0000 0.29150  0.13220  0.92390  Biso   1.000  O
  O41      1.0000 0.14770  0.95670  0.23820  Biso   1.000  O
  O42      1.0000 0.14750  0.79240  0.19590  Biso   1.000  O
  O43      1.0000 0.00340  0.03290  0.33840  Biso   1.000  O
  O44      1.0000 0.93430  0.94680  0.50770  Biso   1.000  O
  O45      1.0000 0.00180  0.22020  0.15330  Biso   1.000  O
  O46      1.0000 0.92710  0.28410  0.97310  Biso   1.000  O
  O47      1.0000 0.99710  0.45940  0.84960  Biso   1.000  O
  O48      1.0000 0.07190  0.53720  0.01640  Biso   1.000  O
  C17      1.0000 0.01020  0.25320  0.52060  Biso   1.000  C
  H17      1.0000 0.97370  0.26430  0.44280  Biso   1.000  H
  C18      1.0000 0.11550  0.38140  0.26290  Biso   1.000  C
  H18      1.0000 0.06310  0.38250  0.26940  Biso   1.000  H
  C19      1.0000 0.23250  0.14580  0.52500  Biso   1.000  C
  H19      1.0000 0.20790  0.19880  0.57780  Biso   1.000  H
  C20      1.0000 0.23300  0.10480  0.96090  Biso   1.000  C
  H20      1.0000 0.20730  0.05950  0.89450  Biso   1.000  H
  C21      1.0000 0.11650  0.87830  0.21410  Biso   1.000  C
  H21      1.0000 0.06410  0.88020  0.20810  Biso   1.000  H
  C22      1.0000 0.99320  0.99310  0.46720  Biso   1.000  C
  H22      1.0000 0.03200  0.99720  0.54150  Biso   1.000  H
  C23      1.0000 0.98810  0.25140  0.02030  Biso   1.000  C
  H23      1.0000 0.02750  0.25040  0.94720  Biso   1.000  H
  C24      1.0000 0.01050  0.49910  0.97490  Biso   1.000  C
  H24      1.0000 0.97130  0.50170  0.04840  Biso   1.000  H
  Er7      1.0000 0.89898  0.87458  0.75264  Biso   1.000  Er
  Er8      1.0000 0.10620  0.62491  0.25236  Biso   1.000  Er
  O49      1.0000 0.93610  0.79410  0.98110  Biso   1.000  O
  O50      1.0000 0.00290  0.71080  0.15210  Biso   1.000  O
  O51      1.0000 0.85200  0.70570  0.73330  Biso   1.000  O
  O52      1.0000 0.85220  0.54150  0.78190  Biso   1.000  O
  O53      1.0000 0.79680  0.88640  0.92050  Biso   1.000  O
  O54      1.0000 0.70430  0.88110  0.08150  Biso   1.000  O
  O55      1.0000 0.79890  0.86600  0.59100  Biso   1.000  O
  O56      1.0000 0.70850  0.86780  0.42390  Biso   1.000  O
  O57      1.0000 0.85230  0.04330  0.73820  Biso   1.000  O
  O58      1.0000 0.85250  0.20760  0.69590  Biso   1.000  O
  O59      1.0000 0.99660  0.96710  0.83840  Biso   1.000  O
  O60      1.0000 0.06570  0.05320  0.00770  Biso   1.000  O
  O61      1.0000 0.99820  0.77980  0.65330  Biso   1.000  O
  O62      1.0000 0.07290  0.71590  0.47310  Biso   1.000  O
  O63      1.0000 0.00290  0.54060  0.34960  Biso   1.000  O
  O64      1.0000 0.92810  0.46280  0.51640  Biso   1.000  O
  C25      1.0000 0.98980  0.74680  0.02060  Biso   1.000  C
  H25      1.0000 0.02630  0.73570  0.94280  Biso   1.000  H
  C26      1.0000 0.88450  0.61860  0.76290  Biso   1.000  C
  H26      1.0000 0.93690  0.61750  0.76940  Biso   1.000  H
  C27      1.0000 0.76750  0.85420  0.02500  Biso   1.000  C
  H27      1.0000 0.79210  0.80120  0.07780  Biso   1.000  H
  C28      1.0000 0.76700  0.89520  0.46090  Biso   1.000  C
  H28      1.0000 0.79270  0.94050  0.39450  Biso   1.000  H
  C29      1.0000 0.88350  0.12170  0.71410  Biso   1.000  C
  H29      1.0000 0.93590  0.11980  0.70810  Biso   1.000  H
  C30      1.0000 0.00680  0.00690  0.96720  Biso   1.000  C
  H30      1.0000 0.96800  0.00280  0.04150  Biso   1.000  H
  C31      1.0000 0.01190  0.74860  0.52030  Biso   1.000  C
  H31      1.0000 0.97250  0.74960  0.44720  Biso   1.000  H
  C32      1.0000 0.98950  0.50090  0.47490  Biso   1.000  C
  H32      1.0000 0.02870  0.49830  0.54840  Biso   1.000  H
