data_image0
_cell_length_a       14.6163
_cell_length_b       26.0625
_cell_length_c       12.6784
_cell_angle_alpha    90
_cell_angle_beta     105.046
_cell_angle_gamma    90

_symmetry_space_group_name_H-M    "P 1"
_symmetry_int_tables_number       1

loop_
  _symmetry_equiv_pos_as_xyz
  'x, y, z'

loop_
  _atom_site_label
  _atom_site_occupancy
  _atom_site_fract_x
  _atom_site_fract_y
  _atom_site_fract_z
  _atom_site_thermal_displace_type
  _atom_site_B_iso_or_equiv
  _atom_site_type_symbol
  Er1      1.0000 0.22533  0.46538  0.30476  Biso   1.000  Er
  Er2      1.0000 0.24874  0.21581  0.18151  Biso   1.000  Er
  Er3      1.0000 0.28169  0.71437  0.19605  Biso   1.000  Er
  Er4      1.0000 0.24379  0.53473  0.80814  Biso   1.000  Er
  O1       1.0000 0.37560  0.47070  0.43410  Biso   1.000  O
  O2       1.0000 0.37500  0.48310  0.26590  Biso   1.000  O
  O3       1.0000 0.10360  0.25512  0.06850  Biso   1.000  O
  O4       1.0000 0.10170  0.22478  0.22830  Biso   1.000  O
  O5       1.0000 0.13110  0.72030  0.07190  Biso   1.000  O
  O6       1.0000 0.13400  0.73475  0.23910  Biso   1.000  O
  O7       1.0000 0.38860  0.49960  0.92390  Biso   1.000  O
  O8       1.0000 0.39100  0.52367  0.76000  Biso   1.000  O
  O9       1.0000 0.26370  0.38480  0.25190  Biso   1.000  O
  O10      1.0000 0.26670  0.30108  0.23040  Biso   1.000  O
  O11      1.0000 0.40050  0.19241  0.21220  Biso   1.000  O
  O12      1.0000 0.55380  0.20886  0.25940  Biso   1.000  O
  O13      1.0000 0.29670  0.80205  0.23080  Biso   1.000  O
  O14      1.0000 0.27450  0.88471  0.24570  Biso   1.000  O
  O15      1.0000 0.21540  0.55303  0.26630  Biso   1.000  O
  O16      1.0000 0.24680  0.63508  0.25860  Biso   1.000  O
  O17      1.0000 0.18700  0.46793  0.11250  Biso   1.000  O
  O18      1.0000 0.19140  0.49103  0.94670  Biso   1.000  O
  O19      1.0000 0.18410  0.51278  0.44480  Biso   1.000  O
  O20      1.0000 0.18840  0.53382  0.61540  Biso   1.000  O
  O21      1.0000 0.06310  0.45692  0.24670  Biso   1.000  O
  O22      1.0000 0.91060  0.44186  0.22530  Biso   1.000  O
  O23      1.0000 0.19220  0.40598  0.42730  Biso   1.000  O
  O24      1.0000 0.20230  0.33819  0.53260  Biso   1.000  O
  O25      1.0000 0.30260  0.21706  0.37610  Biso   1.000  O
  O26      1.0000 0.30220  0.24204  0.54250  Biso   1.000  O
  O27      1.0000 0.22850  0.13384  0.24410  Biso   1.000  O
  O28      1.0000 0.22920  0.05014  0.26030  Biso   1.000  O
  O29      1.0000 0.30230  0.65262  0.07260  Biso   1.000  O
  O30      1.0000 0.27730  0.58902  0.95500  Biso   1.000  O
  O31      1.0000 0.32240  0.75930  0.05360  Biso   1.000  O
  O32      1.0000 0.32780  0.78028  0.88730  Biso   1.000  O
  C1       1.0000 0.41740  0.48380  0.36370  Biso   1.000  C
  H1       1.0000 0.48180  0.49420  0.38560  Biso   1.000  H
  C2       1.0000 0.06230  0.24680  0.14170  Biso   1.000  C
  H2       1.0000 0.99850  0.25780  0.13060  Biso   1.000  H
  C3       1.0000 0.09150  0.73410  0.14220  Biso   1.000  C
  H3       1.0000 0.02700  0.74440  0.12070  Biso   1.000  H
  C4       1.0000 0.43050  0.50480  0.85180  Biso   1.000  C
  H4       1.0000 0.49470  0.49430  0.86610  Biso   1.000  H
  C5       1.0000 0.22610  0.34130  0.24250  Biso   1.000  C
  H5       1.0000 0.16180  0.33910  0.24470  Biso   1.000  H
  C6       1.0000 0.48570  0.18110  0.22700  Biso   1.000  C
  H6       1.0000 0.49890  0.14660  0.21100  Biso   1.000  H
  C7       1.0000 0.24840  0.83980  0.24570  Biso   1.000  C
  H7       1.0000 0.18790  0.83330  0.25770  Biso   1.000  H
  C8       1.0000 0.26800  0.58910  0.25750  Biso   1.000  C
  H8       1.0000 0.32910  0.58090  0.24940  Biso   1.000  H
  C9       1.0000 0.22520  0.48960  0.04770  Biso   1.000  C
  H9       1.0000 0.28410  0.50630  0.07710  Biso   1.000  H
  C10      1.0000 0.21630  0.50940  0.54650  Biso   1.000  C
  H10      1.0000 0.26670  0.48580  0.57270  Biso   1.000  H
  C11      1.0000 0.99570  0.43080  0.25230  Biso   1.000  C
  H11      1.0000 0.01050  0.39730  0.28130  Biso   1.000  H
  C12      1.0000 0.23700  0.37510  0.49510  Biso   1.000  C
  H12      1.0000 0.30350  0.38010  0.52060  Biso   1.000  H
  C13      1.0000 0.26590  0.24040  0.44030  Biso   1.000  C
  H13      1.0000 0.20780  0.25790  0.41130  Biso   1.000  H
  C14      1.0000 0.26560  0.09180  0.24890  Biso   1.000  C
  H14      1.0000 0.32920  0.09090  0.24330  Biso   1.000  H
  C15      1.0000 0.25200  0.62670  0.99760  Biso   1.000  C
  H15      1.0000 0.18780  0.63710  0.97060  Biso   1.000  H
  C16      1.0000 0.29230  0.75710  0.95260  Biso   1.000  C
  H16      1.0000 0.23830  0.73620  0.92330  Biso   1.000  H
  Er5      1.0000 0.77467  0.96538  0.19524  Biso   1.000  Er
  Er6      1.0000 0.75126  0.71581  0.31849  Biso   1.000  Er
  Er7      1.0000 0.71831  0.21437  0.30395  Biso   1.000  Er
  Er8      1.0000 0.75621  0.03473  0.69186  Biso   1.000  Er
  O33      1.0000 0.62440  0.97070  0.06590  Biso   1.000  O
  O34      1.0000 0.62500  0.98310  0.23410  Biso   1.000  O
  O35      1.0000 0.89640  0.75512  0.43150  Biso   1.000  O
  O36      1.0000 0.89830  0.72478  0.27170  Biso   1.000  O
  O37      1.0000 0.86890  0.22030  0.42810  Biso   1.000  O
  O38      1.0000 0.86600  0.23475  0.26090  Biso   1.000  O
  O39      1.0000 0.61140  0.99960  0.57610  Biso   1.000  O
  O40      1.0000 0.60900  0.02367  0.74000  Biso   1.000  O
  O41      1.0000 0.73630  0.88480  0.24810  Biso   1.000  O
  O42      1.0000 0.73330  0.80108  0.26960  Biso   1.000  O
  O43      1.0000 0.59950  0.69241  0.28780  Biso   1.000  O
  O44      1.0000 0.44620  0.70886  0.24060  Biso   1.000  O
  O45      1.0000 0.70330  0.30205  0.26920  Biso   1.000  O
  O46      1.0000 0.72550  0.38471  0.25430  Biso   1.000  O
  O47      1.0000 0.78460  0.05303  0.23370  Biso   1.000  O
  O48      1.0000 0.75320  0.13508  0.24140  Biso   1.000  O
  O49      1.0000 0.81300  0.96793  0.38750  Biso   1.000  O
  O50      1.0000 0.80860  0.99103  0.55330  Biso   1.000  O
  O51      1.0000 0.81590  0.01278  0.05520  Biso   1.000  O
  O52      1.0000 0.81160  0.03382  0.88460  Biso   1.000  O
  O53      1.0000 0.93690  0.95692  0.25330  Biso   1.000  O
  O54      1.0000 0.08940  0.94186  0.27470  Biso   1.000  O
  O55      1.0000 0.80780  0.90598  0.07270  Biso   1.000  O
  O56      1.0000 0.79770  0.83819  0.96740  Biso   1.000  O
  O57      1.0000 0.69740  0.71706  0.12390  Biso   1.000  O
  O58      1.0000 0.69780  0.74204  0.95750  Biso   1.000  O
  O59      1.0000 0.77150  0.63384  0.25590  Biso   1.000  O
  O60      1.0000 0.77080  0.55014  0.23970  Biso   1.000  O
  O61      1.0000 0.69770  0.15262  0.42740  Biso   1.000  O
  O62      1.0000 0.72270  0.08902  0.54500  Biso   1.000  O
  O63      1.0000 0.67760  0.25930  0.44640  Biso   1.000  O
  O64      1.0000 0.67220  0.28028  0.61270  Biso   1.000  O
  C17      1.0000 0.58260  0.98380  0.13630  Biso   1.000  C
  H17      1.0000 0.51820  0.99420  0.11440  Biso   1.000  H
  C18      1.0000 0.93770  0.74680  0.35830  Biso   1.000  C
  H18      1.0000 0.00150  0.75780  0.36940  Biso   1.000  H
  C19      1.0000 0.90850  0.23410  0.35780  Biso   1.000  C
  H19      1.0000 0.97300  0.24440  0.37930  Biso   1.000  H
  C20      1.0000 0.56950  0.00480  0.64820  Biso   1.000  C
  H20      1.0000 0.50530  0.99430  0.63390  Biso   1.000  H
  C21      1.0000 0.77390  0.84130  0.25750  Biso   1.000  C
  H21      1.0000 0.83820  0.83910  0.25530  Biso   1.000  H
  C22      1.0000 0.51430  0.68110  0.27300  Biso   1.000  C
  H22      1.0000 0.50110  0.64660  0.28900  Biso   1.000  H
  C23      1.0000 0.75160  0.33980  0.25430  Biso   1.000  C
  H23      1.0000 0.81210  0.33330  0.24230  Biso   1.000  H
  C24      1.0000 0.73200  0.08910  0.24250  Biso   1.000  C
  H24      1.0000 0.67090  0.08090  0.25060  Biso   1.000  H
  C25      1.0000 0.77480  0.98960  0.45230  Biso   1.000  C
  H25      1.0000 0.71590  0.00630  0.42290  Biso   1.000  H
  C26      1.0000 0.78370  0.00940  0.95350  Biso   1.000  C
  H26      1.0000 0.73330  0.98580  0.92730  Biso   1.000  H
  C27      1.0000 0.00430  0.93080  0.24770  Biso   1.000  C
  H27      1.0000 0.98950  0.89730  0.21870  Biso   1.000  H
  C28      1.0000 0.76300  0.87510  0.00490  Biso   1.000  C
  H28      1.0000 0.69650  0.88010  0.97940  Biso   1.000  H
  C29      1.0000 0.73410  0.74040  0.05970  Biso   1.000  C
  H29      1.0000 0.79220  0.75790  0.08870  Biso   1.000  H
  C30      1.0000 0.73440  0.59180  0.25110  Biso   1.000  C
  H30      1.0000 0.67080  0.59090  0.25670  Biso   1.000  H
  C31      1.0000 0.74800  0.12670  0.50240  Biso   1.000  C
  H31      1.0000 0.81220  0.13710  0.52940  Biso   1.000  H
  C32      1.0000 0.70770  0.25710  0.54740  Biso   1.000  C
  H32      1.0000 0.76170  0.23620  0.57670  Biso   1.000  H
  Er9      1.0000 0.77467  0.53462  0.69524  Biso   1.000  Er
  Er10     1.0000 0.75126  0.78419  0.81849  Biso   1.000  Er
  Er11     1.0000 0.71831  0.28563  0.80395  Biso   1.000  Er
  Er12     1.0000 0.75621  0.46527  0.19186  Biso   1.000  Er
  O65      1.0000 0.62440  0.52930  0.56590  Biso   1.000  O
  O66      1.0000 0.62500  0.51690  0.73410  Biso   1.000  O
  O67      1.0000 0.89640  0.74488  0.93150  Biso   1.000  O
  O68      1.0000 0.89830  0.77522  0.77170  Biso   1.000  O
  O69      1.0000 0.86890  0.27970  0.92810  Biso   1.000  O
  O70      1.0000 0.86600  0.26525  0.76090  Biso   1.000  O
  O71      1.0000 0.61140  0.50040  0.07610  Biso   1.000  O
  O72      1.0000 0.60900  0.47633  0.24000  Biso   1.000  O
  O73      1.0000 0.73630  0.61520  0.74810  Biso   1.000  O
  O74      1.0000 0.73330  0.69892  0.76960  Biso   1.000  O
  O75      1.0000 0.59950  0.80759  0.78780  Biso   1.000  O
  O76      1.0000 0.44620  0.79114  0.74060  Biso   1.000  O
  O77      1.0000 0.70330  0.19795  0.76920  Biso   1.000  O
  O78      1.0000 0.72550  0.11529  0.75430  Biso   1.000  O
  O79      1.0000 0.78460  0.44697  0.73370  Biso   1.000  O
  O80      1.0000 0.75320  0.36492  0.74140  Biso   1.000  O
  O81      1.0000 0.81300  0.53207  0.88750  Biso   1.000  O
  O82      1.0000 0.80860  0.50897  0.05330  Biso   1.000  O
  O83      1.0000 0.81590  0.48722  0.55520  Biso   1.000  O
  O84      1.0000 0.81160  0.46618  0.38460  Biso   1.000  O
  O85      1.0000 0.93690  0.54308  0.75330  Biso   1.000  O
  O86      1.0000 0.08940  0.55814  0.77470  Biso   1.000  O
  O87      1.0000 0.80780  0.59402  0.57270  Biso   1.000  O
  O88      1.0000 0.79770  0.66181  0.46740  Biso   1.000  O
  O89      1.0000 0.69740  0.78294  0.62390  Biso   1.000  O
  O90      1.0000 0.69780  0.75796  0.45750  Biso   1.000  O
  O91      1.0000 0.77150  0.86616  0.75590  Biso   1.000  O
  O92      1.0000 0.77080  0.94986  0.73970  Biso   1.000  O
  O93      1.0000 0.69770  0.34738  0.92740  Biso   1.000  O
  O94      1.0000 0.72270  0.41098  0.04500  Biso   1.000  O
  O95      1.0000 0.67760  0.24070  0.94640  Biso   1.000  O
  O96      1.0000 0.67220  0.21972  0.11270  Biso   1.000  O
  C33      1.0000 0.58260  0.51620  0.63630  Biso   1.000  C
  H33      1.0000 0.51820  0.50580  0.61440  Biso   1.000  H
  C34      1.0000 0.93770  0.75320  0.85830  Biso   1.000  C
  H34      1.0000 0.00150  0.74220  0.86940  Biso   1.000  H
  C35      1.0000 0.90850  0.26590  0.85780  Biso   1.000  C
  H35      1.0000 0.97300  0.25560  0.87930  Biso   1.000  H
  C36      1.0000 0.56950  0.49520  0.14820  Biso   1.000  C
  H36      1.0000 0.50530  0.50570  0.13390  Biso   1.000  H
  C37      1.0000 0.77390  0.65870  0.75750  Biso   1.000  C
  H37      1.0000 0.83820  0.66090  0.75530  Biso   1.000  H
  C38      1.0000 0.51430  0.81890  0.77300  Biso   1.000  C
  H38      1.0000 0.50110  0.85340  0.78900  Biso   1.000  H
  C39      1.0000 0.75160  0.16020  0.75430  Biso   1.000  C
  H39      1.0000 0.81210  0.16670  0.74230  Biso   1.000  H
  C40      1.0000 0.73200  0.41090  0.74250  Biso   1.000  C
  H40      1.0000 0.67090  0.41910  0.75060  Biso   1.000  H
  C41      1.0000 0.77480  0.51040  0.95230  Biso   1.000  C
  H41      1.0000 0.71590  0.49370  0.92290  Biso   1.000  H
  C42      1.0000 0.78370  0.49060  0.45350  Biso   1.000  C
  H42      1.0000 0.73330  0.51420  0.42730  Biso   1.000  H
  C43      1.0000 0.00430  0.56920  0.74770  Biso   1.000  C
  H43      1.0000 0.98950  0.60270  0.71870  Biso   1.000  H
  C44      1.0000 0.76300  0.62490  0.50490  Biso   1.000  C
  H44      1.0000 0.69650  0.61990  0.47940  Biso   1.000  H
  C45      1.0000 0.73410  0.75960  0.55970  Biso   1.000  C
  H45      1.0000 0.79220  0.74210  0.58870  Biso   1.000  H
  C46      1.0000 0.73440  0.90820  0.75110  Biso   1.000  C
  H46      1.0000 0.67080  0.90910  0.75670  Biso   1.000  H
  C47      1.0000 0.74800  0.37330  0.00240  Biso   1.000  C
  H47      1.0000 0.81220  0.36290  0.02940  Biso   1.000  H
  C48      1.0000 0.70770  0.24290  0.04740  Biso   1.000  C
  H48      1.0000 0.76170  0.26380  0.07670  Biso   1.000  H
  Er13     1.0000 0.22533  0.03462  0.80476  Biso   1.000  Er
  Er14     1.0000 0.24874  0.28419  0.68151  Biso   1.000  Er
  Er15     1.0000 0.28169  0.78563  0.69605  Biso   1.000  Er
  Er16     1.0000 0.24379  0.96527  0.30814  Biso   1.000  Er
  O97      1.0000 0.37560  0.02930  0.93410  Biso   1.000  O
  O98      1.0000 0.37500  0.01690  0.76590  Biso   1.000  O
  O99      1.0000 0.10360  0.24488  0.56850  Biso   1.000  O
  O100     1.0000 0.10170  0.27522  0.72830  Biso   1.000  O
  O101     1.0000 0.13110  0.77970  0.57190  Biso   1.000  O
  O102     1.0000 0.13400  0.76525  0.73910  Biso   1.000  O
  O103     1.0000 0.38860  0.00040  0.42390  Biso   1.000  O
  O104     1.0000 0.39100  0.97633  0.26000  Biso   1.000  O
  O105     1.0000 0.26370  0.11520  0.75190  Biso   1.000  O
  O106     1.0000 0.26670  0.19892  0.73040  Biso   1.000  O
  O107     1.0000 0.40050  0.30759  0.71220  Biso   1.000  O
  O108     1.0000 0.55380  0.29114  0.75940  Biso   1.000  O
  O109     1.0000 0.29670  0.69795  0.73080  Biso   1.000  O
  O110     1.0000 0.27450  0.61529  0.74570  Biso   1.000  O
  O111     1.0000 0.21540  0.94697  0.76630  Biso   1.000  O
  O112     1.0000 0.24680  0.86492  0.75860  Biso   1.000  O
  O113     1.0000 0.18700  0.03207  0.61250  Biso   1.000  O
  O114     1.0000 0.19140  0.00897  0.44670  Biso   1.000  O
  O115     1.0000 0.18410  0.98722  0.94480  Biso   1.000  O
  O116     1.0000 0.18840  0.96618  0.11540  Biso   1.000  O
  O117     1.0000 0.06310  0.04308  0.74670  Biso   1.000  O
  O118     1.0000 0.91060  0.05814  0.72530  Biso   1.000  O
  O119     1.0000 0.19220  0.09402  0.92730  Biso   1.000  O
  O120     1.0000 0.20230  0.16181  0.03260  Biso   1.000  O
  O121     1.0000 0.30260  0.28294  0.87610  Biso   1.000  O
  O122     1.0000 0.30220  0.25796  0.04250  Biso   1.000  O
  O123     1.0000 0.22850  0.36616  0.74410  Biso   1.000  O
  O124     1.0000 0.22920  0.44986  0.76030  Biso   1.000  O
  O125     1.0000 0.30230  0.84738  0.57260  Biso   1.000  O
  O126     1.0000 0.27730  0.91098  0.45500  Biso   1.000  O
  O127     1.0000 0.32240  0.74070  0.55360  Biso   1.000  O
  O128     1.0000 0.32780  0.71972  0.38730  Biso   1.000  O
  C49      1.0000 0.41740  0.01620  0.86370  Biso   1.000  C
  H49      1.0000 0.48180  0.00580  0.88560  Biso   1.000  H
  C50      1.0000 0.06230  0.25320  0.64170  Biso   1.000  C
  H50      1.0000 0.99850  0.24220  0.63060  Biso   1.000  H
  C51      1.0000 0.09150  0.76590  0.64220  Biso   1.000  C
  H51      1.0000 0.02700  0.75560  0.62070  Biso   1.000  H
  C52      1.0000 0.43050  0.99520  0.35180  Biso   1.000  C
  H52      1.0000 0.49470  0.00570  0.36610  Biso   1.000  H
  C53      1.0000 0.22610  0.15870  0.74250  Biso   1.000  C
  H53      1.0000 0.16180  0.16090  0.74470  Biso   1.000  H
  C54      1.0000 0.48570  0.31890  0.72700  Biso   1.000  C
  H54      1.0000 0.49890  0.35340  0.71100  Biso   1.000  H
  C55      1.0000 0.24840  0.66020  0.74570  Biso   1.000  C
  H55      1.0000 0.18790  0.66670  0.75770  Biso   1.000  H
  C56      1.0000 0.26800  0.91090  0.75750  Biso   1.000  C
  H56      1.0000 0.32910  0.91910  0.74940  Biso   1.000  H
  C57      1.0000 0.22520  0.01040  0.54770  Biso   1.000  C
  H57      1.0000 0.28410  0.99370  0.57710  Biso   1.000  H
  C58      1.0000 0.21630  0.99060  0.04650  Biso   1.000  C
  H58      1.0000 0.26670  0.01420  0.07270  Biso   1.000  H
  C59      1.0000 0.99570  0.06920  0.75230  Biso   1.000  C
  H59      1.0000 0.01050  0.10270  0.78130  Biso   1.000  H
  C60      1.0000 0.23700  0.12490  0.99510  Biso   1.000  C
  H60      1.0000 0.30350  0.11990  0.02060  Biso   1.000  H
  C61      1.0000 0.26590  0.25960  0.94030  Biso   1.000  C
  H61      1.0000 0.20780  0.24210  0.91130  Biso   1.000  H
  C62      1.0000 0.26560  0.40820  0.74890  Biso   1.000  C
  H62      1.0000 0.32920  0.40910  0.74330  Biso   1.000  H
  C63      1.0000 0.25200  0.87330  0.49760  Biso   1.000  C
  H63      1.0000 0.18780  0.86290  0.47060  Biso   1.000  H
  C64      1.0000 0.29230  0.74290  0.45260  Biso   1.000  C
  H64      1.0000 0.23830  0.76380  0.42330  Biso   1.000  H
