data_ISUCUV_clean
_audit_creation_date              2014-07-02
_audit_creation_method            'Materials Studio'
_symmetry_space_group_name_H-M    'P1'
_symmetry_Int_Tables_number       1
_symmetry_cell_setting            triclinic
loop_
_symmetry_equiv_pos_as_xyz
  x,y,z
_cell_length_a                    11.2189
_cell_length_b                    11.2189
_cell_length_c                    21.2550
_cell_angle_alpha                 95.7389
_cell_angle_beta                  95.7389
_cell_angle_gamma                 107.1920
loop_
_atom_site_label
_atom_site_type_symbol
_atom_site_fract_x
_atom_site_fract_y
_atom_site_fract_z
_atom_site_U_iso_or_equiv
_atom_site_adp_type
_atom_site_occupancy
Fe1    Fe    0.98316   0.50002   0.19241   0.01267  Uiso   1.00
Fe2    Fe    0.49998   0.01684   0.30759   0.01267  Uiso   1.00
Fe3    Fe    0.01684   0.49998   0.80759   0.01267  Uiso   1.00
Fe4    Fe    0.50002   0.98316   0.69241   0.01267  Uiso   1.00
Fe5    Fe    0.75296   0.24704   0.25000   0.01267  Uiso   1.00
Fe6    Fe    0.24704   0.75296   0.75000   0.01267  Uiso   1.00
H1     H     0.00700   0.71920   0.39790   0.01267  Uiso   1.00
H2     H     0.03190   0.74310   0.50660   0.01267  Uiso   1.00
H3     H     0.95490   0.34870   0.39130   0.01267  Uiso   1.00
H4     H     0.90410   0.98430   0.14710   0.01267  Uiso   1.00
H5     H     0.93800   0.83100   0.07790   0.01267  Uiso   1.00
H6     H     0.01100   0.23800   0.02900   0.01267  Uiso   1.00
H7     H     0.48110   0.26590   0.09420   0.01267  Uiso   1.00
H8     H     0.34250   0.27750   0.00980   0.01267  Uiso   1.00
H9     H     0.71300   0.60540   0.07650   0.01267  Uiso   1.00
H10    H     0.28080   0.99300   0.10210   0.01267  Uiso   1.00
H11    H     0.25690   0.96810   0.99340   0.01267  Uiso   1.00
H12    H     0.65130   0.04510   0.10870   0.01267  Uiso   1.00
H13    H     0.01570   0.09590   0.35290   0.01267  Uiso   1.00
H14    H     0.16900   0.06200   0.42210   0.01267  Uiso   1.00
H15    H     0.76200   0.98900   0.47100   0.01267  Uiso   1.00
H16    H     0.73410   0.51890   0.40580   0.01267  Uiso   1.00
H17    H     0.72250   0.65750   0.49020   0.01267  Uiso   1.00
H18    H     0.39460   0.28700   0.42350   0.01267  Uiso   1.00
H19    H     0.99300   0.28080   0.60210   0.01267  Uiso   1.00
H20    H     0.96810   0.25690   0.49340   0.01267  Uiso   1.00
H21    H     0.04510   0.65130   0.60870   0.01267  Uiso   1.00
H22    H     0.09590   0.01570   0.85290   0.01267  Uiso   1.00
H23    H     0.06200   0.16900   0.92210   0.01267  Uiso   1.00
H24    H     0.98900   0.76200   0.97100   0.01267  Uiso   1.00
H25    H     0.51890   0.73410   0.90580   0.01267  Uiso   1.00
H26    H     0.65750   0.72250   0.99020   0.01267  Uiso   1.00
H27    H     0.28700   0.39460   0.92350   0.01267  Uiso   1.00
H28    H     0.71920   0.00700   0.89790   0.01267  Uiso   1.00
H29    H     0.74310   0.03190   0.00660   0.01267  Uiso   1.00
H30    H     0.34870   0.95490   0.89130   0.01267  Uiso   1.00
H31    H     0.98430   0.90410   0.64710   0.01267  Uiso   1.00
H32    H     0.83100   0.93800   0.57790   0.01267  Uiso   1.00
H33    H     0.23800   0.01100   0.52900   0.01267  Uiso   1.00
H34    H     0.26590   0.48110   0.59420   0.01267  Uiso   1.00
H35    H     0.27750   0.34250   0.50980   0.01267  Uiso   1.00
H36    H     0.60540   0.71300   0.57650   0.01267  Uiso   1.00
C1     C     0.96670   0.51750   0.31240   0.01267  Uiso   1.00
C2     C     0.97720   0.52940   0.38400   0.01267  Uiso   1.00
C3     C     0.00160   0.64960   0.41910   0.01267  Uiso   1.00
C4     C     0.01730   0.66370   0.48400   0.01267  Uiso   1.00
C5     C     0.01220   0.56040   0.51770   0.01267  Uiso   1.00
C6     C     0.97070   0.42750   0.41490   0.01267  Uiso   1.00
C7     C     0.92360   0.22320   0.13960   0.01267  Uiso   1.00
C8     C     0.95290   0.12690   0.09360   0.01267  Uiso   1.00
C9     C     0.93150   0.00370   0.10840   0.01267  Uiso   1.00
C10    C     0.95050   0.91150   0.06690   0.01267  Uiso   1.00
C11    C     0.99380   0.15560   0.03790   0.01267  Uiso   1.00
C12    C     0.98840   0.93840   0.00810   0.01267  Uiso   1.00
C13    C     0.70430   0.42510   0.14820   0.01267  Uiso   1.00
C14    C     0.61240   0.43440   0.09370   0.01267  Uiso   1.00
C15    C     0.49990   0.33670   0.07320   0.01267  Uiso   1.00
C16    C     0.41660   0.34340   0.02270   0.01267  Uiso   1.00
C17    C     0.44350   0.45090   0.99000   0.01267  Uiso   1.00
C18    C     0.63920   0.53960   0.06260   0.01267  Uiso   1.00
C19    C     0.48250   0.03330   0.18760   0.01267  Uiso   1.00
C20    C     0.47060   0.02280   0.11600   0.01267  Uiso   1.00
C21    C     0.35040   0.99840   0.08090   0.01267  Uiso   1.00
C22    C     0.33630   0.98270   0.01600   0.01267  Uiso   1.00
C23    C     0.43960   0.98780   0.98230   0.01267  Uiso   1.00
C24    C     0.57250   0.02930   0.08510   0.01267  Uiso   1.00
C25    C     0.77680   0.07640   0.36040   0.01267  Uiso   1.00
C26    C     0.87310   0.04710   0.40640   0.01267  Uiso   1.00
C27    C     0.99630   0.06850   0.39160   0.01267  Uiso   1.00
C28    C     0.08850   0.04950   0.43310   0.01267  Uiso   1.00
C29    C     0.84440   0.00620   0.46210   0.01267  Uiso   1.00
C30    C     0.06160   0.01160   0.49190   0.01267  Uiso   1.00
C31    C     0.57490   0.29570   0.35180   0.01267  Uiso   1.00
C32    C     0.56560   0.38760   0.40630   0.01267  Uiso   1.00
C33    C     0.66330   0.50010   0.42680   0.01267  Uiso   1.00
C34    C     0.65660   0.58340   0.47730   0.01267  Uiso   1.00
C35    C     0.54910   0.55650   0.51000   0.01267  Uiso   1.00
C36    C     0.46040   0.36080   0.43740   0.01267  Uiso   1.00
C37    C     0.03330   0.48250   0.68760   0.01267  Uiso   1.00
C38    C     0.02280   0.47060   0.61600   0.01267  Uiso   1.00
C39    C     0.99840   0.35040   0.58090   0.01267  Uiso   1.00
C40    C     0.98270   0.33630   0.51600   0.01267  Uiso   1.00
C41    C     0.98780   0.43960   0.48230   0.01267  Uiso   1.00
C42    C     0.02930   0.57250   0.58510   0.01267  Uiso   1.00
C43    C     0.07640   0.77680   0.86040   0.01267  Uiso   1.00
C44    C     0.04710   0.87310   0.90640   0.01267  Uiso   1.00
C45    C     0.06850   0.99630   0.89160   0.01267  Uiso   1.00
C46    C     0.04950   0.08850   0.93310   0.01267  Uiso   1.00
C47    C     0.00620   0.84440   0.96210   0.01267  Uiso   1.00
C48    C     0.01160   0.06160   0.99190   0.01267  Uiso   1.00
C49    C     0.29570   0.57490   0.85180   0.01267  Uiso   1.00
C50    C     0.38760   0.56560   0.90630   0.01267  Uiso   1.00
C51    C     0.50010   0.66330   0.92680   0.01267  Uiso   1.00
C52    C     0.58340   0.65660   0.97730   0.01267  Uiso   1.00
C53    C     0.55650   0.54910   0.01000   0.01267  Uiso   1.00
C54    C     0.36080   0.46040   0.93740   0.01267  Uiso   1.00
C55    C     0.51750   0.96670   0.81240   0.01267  Uiso   1.00
C56    C     0.52940   0.97720   0.88400   0.01267  Uiso   1.00
C57    C     0.64960   0.00160   0.91910   0.01267  Uiso   1.00
C58    C     0.66370   0.01730   0.98400   0.01267  Uiso   1.00
C59    C     0.56040   0.01220   0.01770   0.01267  Uiso   1.00
C60    C     0.42750   0.97070   0.91490   0.01267  Uiso   1.00
C61    C     0.22320   0.92360   0.63960   0.01267  Uiso   1.00
C62    C     0.12690   0.95290   0.59360   0.01267  Uiso   1.00
C63    C     0.00370   0.93150   0.60840   0.01267  Uiso   1.00
C64    C     0.91150   0.95050   0.56690   0.01267  Uiso   1.00
C65    C     0.15560   0.99380   0.53790   0.01267  Uiso   1.00
C66    C     0.93840   0.98840   0.50810   0.01267  Uiso   1.00
C67    C     0.42510   0.70430   0.64820   0.01267  Uiso   1.00
C68    C     0.43440   0.61240   0.59370   0.01267  Uiso   1.00
C69    C     0.33670   0.49990   0.57320   0.01267  Uiso   1.00
C70    C     0.34340   0.41660   0.52270   0.01267  Uiso   1.00
C71    C     0.45090   0.44350   0.49000   0.01267  Uiso   1.00
C72    C     0.53960   0.63920   0.56260   0.01267  Uiso   1.00
O1     O     0.00660   0.61300   0.28654   0.01267  Uiso   1.00
O2     O     0.92286   0.40914   0.27967   0.01267  Uiso   1.00
O3     O     0.96130   0.33610   0.12924   0.01267  Uiso   1.00
O4     O     0.86320   0.18320   0.18330   0.01267  Uiso   1.00
O5     O     0.80850   0.51030   0.15875   0.01267  Uiso   1.00
O6     O     0.67030   0.33210   0.17726   0.01267  Uiso   1.00
O7     O     0.38700   0.99340   0.21346   0.01267  Uiso   1.00
O8     O     0.59086   0.07714   0.22033   0.01267  Uiso   1.00
O9     O     0.66390   0.03870   0.37076   0.01267  Uiso   1.00
O10    O     0.81680   0.13680   0.31670   0.01267  Uiso   1.00
O11    O     0.48970   0.19150   0.34125   0.01267  Uiso   1.00
O12    O     0.66790   0.32970   0.32274   0.01267  Uiso   1.00
O13    O     0.99340   0.38700   0.71346   0.01267  Uiso   1.00
O14    O     0.07714   0.59086   0.72033   0.01267  Uiso   1.00
O15    O     0.03870   0.66390   0.87076   0.01267  Uiso   1.00
O16    O     0.13680   0.81680   0.81670   0.01267  Uiso   1.00
O17    O     0.19150   0.48970   0.84125   0.01267  Uiso   1.00
O18    O     0.32970   0.66790   0.82274   0.01267  Uiso   1.00
O19    O     0.61300   0.00660   0.78654   0.01267  Uiso   1.00
O20    O     0.40914   0.92286   0.77967   0.01267  Uiso   1.00
O21    O     0.33610   0.96130   0.62924   0.01267  Uiso   1.00
O22    O     0.18320   0.86320   0.68330   0.01267  Uiso   1.00
O23    O     0.51030   0.80850   0.65875   0.01267  Uiso   1.00
O24    O     0.33210   0.67030   0.67726   0.01267  Uiso   1.00
