data_ISUGOT_clean
_audit_creation_date              2014-07-02
_audit_creation_method            'Materials Studio'
_symmetry_space_group_name_H-M    'P1'
_symmetry_Int_Tables_number       1
_symmetry_cell_setting            triclinic
loop_
_symmetry_equiv_pos_as_xyz
  x,y,z
_cell_length_a                    17.0615
_cell_length_b                    17.0615
_cell_length_c                    21.2553
_cell_angle_alpha                 66.3376
_cell_angle_beta                  66.3376
_cell_angle_gamma                 60.0000
loop_
_atom_site_label
_atom_site_type_symbol
_atom_site_fract_x
_atom_site_fract_y
_atom_site_fract_z
_atom_site_U_iso_or_equiv
_atom_site_adp_type
_atom_site_occupancy
Eu1    Eu    0.60446   0.44733   0.60316   0.01267  Uiso   1.00
Eu2    Eu    0.44733   0.34505   0.60316   0.01267  Uiso   1.00
Eu3    Eu    0.34505   0.60446   0.60316   0.01267  Uiso   1.00
Eu4    Eu    0.89554   0.15495   0.89684   0.01267  Uiso   1.00
Eu5    Eu    0.05267   0.89554   0.89684   0.01267  Uiso   1.00
Eu6    Eu    0.15495   0.05267   0.89684   0.01267  Uiso   1.00
Eu7    Eu    0.39554   0.55267   0.39684   0.01267  Uiso   1.00
Eu8    Eu    0.55267   0.65495   0.39684   0.01267  Uiso   1.00
Eu9    Eu    0.65495   0.39554   0.39684   0.01267  Uiso   1.00
Eu10   Eu    0.10446   0.84505   0.10316   0.01267  Uiso   1.00
Eu11   Eu    0.94733   0.10446   0.10316   0.01267  Uiso   1.00
Eu12   Eu    0.84505   0.94733   0.10316   0.01267  Uiso   1.00
Eu13   Eu    0.75000   0.27623   0.75000   0.01267  Uiso   1.00
Eu14   Eu    0.27623   0.22377   0.75000   0.01267  Uiso   1.00
Eu15   Eu    0.22377   0.75000   0.75000   0.01267  Uiso   1.00
Eu16   Eu    0.25000   0.72377   0.25000   0.01267  Uiso   1.00
Eu17   Eu    0.72377   0.77623   0.25000   0.01267  Uiso   1.00
Eu18   Eu    0.77623   0.25000   0.25000   0.01267  Uiso   1.00
H1     H     0.96790   0.22160   0.44770   0.01267  Uiso   1.00
H2     H     0.06760   0.12590   0.52120   0.01267  Uiso   1.00
H3     H     0.01120   0.12550   0.64000   0.01267  Uiso   1.00
H4     H     0.46590   0.66250   0.79690   0.01267  Uiso   1.00
H5     H     0.57900   0.59670   0.86200   0.01267  Uiso   1.00
H6     H     0.68330   0.44570   0.86590   0.01267  Uiso   1.00
H7     H     0.22160   0.36280   0.44770   0.01267  Uiso   1.00
H8     H     0.12590   0.28530   0.52120   0.01267  Uiso   1.00
H9     H     0.12550   0.22330   0.64000   0.01267  Uiso   1.00
H10    H     0.66250   0.07470   0.79690   0.01267  Uiso   1.00
H11    H     0.59670   0.96230   0.86200   0.01267  Uiso   1.00
H12    H     0.44570   0.00510   0.86590   0.01267  Uiso   1.00
H13    H     0.36280   0.96790   0.44770   0.01267  Uiso   1.00
H14    H     0.28530   0.06760   0.52120   0.01267  Uiso   1.00
H15    H     0.22330   0.01120   0.64000   0.01267  Uiso   1.00
H16    H     0.07470   0.46590   0.79690   0.01267  Uiso   1.00
H17    H     0.96230   0.57900   0.86200   0.01267  Uiso   1.00
H18    H     0.00510   0.68330   0.86590   0.01267  Uiso   1.00
H19    H     0.53210   0.13720   0.05230   0.01267  Uiso   1.00
H20    H     0.43240   0.21470   0.97880   0.01267  Uiso   1.00
H21    H     0.48880   0.27670   0.86000   0.01267  Uiso   1.00
H22    H     0.03410   0.42530   0.70310   0.01267  Uiso   1.00
H23    H     0.92100   0.53770   0.63800   0.01267  Uiso   1.00
H24    H     0.81670   0.49490   0.63410   0.01267  Uiso   1.00
H25    H     0.27840   0.53210   0.05230   0.01267  Uiso   1.00
H26    H     0.37410   0.43240   0.97880   0.01267  Uiso   1.00
H27    H     0.37450   0.48880   0.86000   0.01267  Uiso   1.00
H28    H     0.83750   0.03410   0.70310   0.01267  Uiso   1.00
H29    H     0.90330   0.92100   0.63800   0.01267  Uiso   1.00
H30    H     0.05430   0.81670   0.63410   0.01267  Uiso   1.00
H31    H     0.13720   0.27840   0.05230   0.01267  Uiso   1.00
H32    H     0.21470   0.37410   0.97880   0.01267  Uiso   1.00
H33    H     0.27670   0.37450   0.86000   0.01267  Uiso   1.00
H34    H     0.42530   0.83750   0.70310   0.01267  Uiso   1.00
H35    H     0.53770   0.90330   0.63800   0.01267  Uiso   1.00
H36    H     0.49490   0.05430   0.63410   0.01267  Uiso   1.00
H37    H     0.03210   0.77840   0.55230   0.01267  Uiso   1.00
H38    H     0.93240   0.87410   0.47880   0.01267  Uiso   1.00
H39    H     0.98880   0.87450   0.36000   0.01267  Uiso   1.00
H40    H     0.53410   0.33750   0.20310   0.01267  Uiso   1.00
H41    H     0.42100   0.40330   0.13800   0.01267  Uiso   1.00
H42    H     0.31670   0.55430   0.13410   0.01267  Uiso   1.00
H43    H     0.77840   0.63720   0.55230   0.01267  Uiso   1.00
H44    H     0.87410   0.71470   0.47880   0.01267  Uiso   1.00
H45    H     0.87450   0.77670   0.36000   0.01267  Uiso   1.00
H46    H     0.33750   0.92530   0.20310   0.01267  Uiso   1.00
H47    H     0.40330   0.03770   0.13800   0.01267  Uiso   1.00
H48    H     0.55430   0.99490   0.13410   0.01267  Uiso   1.00
H49    H     0.63720   0.03210   0.55230   0.01267  Uiso   1.00
H50    H     0.71470   0.93240   0.47880   0.01267  Uiso   1.00
H51    H     0.77670   0.98880   0.36000   0.01267  Uiso   1.00
H52    H     0.92530   0.53410   0.20310   0.01267  Uiso   1.00
H53    H     0.03770   0.42100   0.13800   0.01267  Uiso   1.00
H54    H     0.99490   0.31670   0.13410   0.01267  Uiso   1.00
H55    H     0.46790   0.86280   0.94770   0.01267  Uiso   1.00
H56    H     0.56760   0.78530   0.02120   0.01267  Uiso   1.00
H57    H     0.51120   0.72330   0.14000   0.01267  Uiso   1.00
H58    H     0.96590   0.57470   0.29690   0.01267  Uiso   1.00
H59    H     0.07900   0.46230   0.36200   0.01267  Uiso   1.00
H60    H     0.18330   0.50510   0.36590   0.01267  Uiso   1.00
H61    H     0.72160   0.46790   0.94770   0.01267  Uiso   1.00
H62    H     0.62590   0.56760   0.02120   0.01267  Uiso   1.00
H63    H     0.62550   0.51120   0.14000   0.01267  Uiso   1.00
H64    H     0.16250   0.96590   0.29690   0.01267  Uiso   1.00
H65    H     0.09670   0.07900   0.36200   0.01267  Uiso   1.00
H66    H     0.94570   0.18330   0.36590   0.01267  Uiso   1.00
H67    H     0.86280   0.72160   0.94770   0.01267  Uiso   1.00
H68    H     0.78530   0.62590   0.02120   0.01267  Uiso   1.00
H69    H     0.72330   0.62550   0.14000   0.01267  Uiso   1.00
H70    H     0.57470   0.16250   0.29690   0.01267  Uiso   1.00
H71    H     0.46230   0.09670   0.36200   0.01267  Uiso   1.00
H72    H     0.50510   0.94570   0.36590   0.01267  Uiso   1.00
H73    H     0.50000   0.50000   0.50000   0.01267  Uiso   1.00
H74    H     0.00000   0.00000   0.00000   0.01267  Uiso   1.00
C1     C     0.83021   0.28871   0.59137   0.01267  Uiso   1.00
C2     C     0.85516   0.28406   0.52042   0.01267  Uiso   1.00
C3     C     0.94690   0.22300   0.49510   0.01267  Uiso   1.00
C4     C     0.00650   0.16530   0.53860   0.01267  Uiso   1.00
C5     C     0.97284   0.16754   0.60928   0.01267  Uiso   1.00
C6     C     0.78875   0.33635   0.47545   0.01267  Uiso   1.00
C7     C     0.59139   0.46539   0.75463   0.01267  Uiso   1.00
C8     C     0.52252   0.55832   0.75094   0.01267  Uiso   1.00
C9     C     0.51450   0.60410   0.79420   0.01267  Uiso   1.00
C10    C     0.58000   0.56330   0.83590   0.01267  Uiso   1.00
C11    C     0.64340   0.47450   0.83620   0.01267  Uiso   1.00
C12    C     0.45594   0.60434   0.70528   0.01267  Uiso   1.00
C13    C     0.28871   0.28971   0.59137   0.01267  Uiso   1.00
C14    C     0.28406   0.34036   0.52042   0.01267  Uiso   1.00
C15    C     0.22300   0.33500   0.49510   0.01267  Uiso   1.00
C16    C     0.16530   0.28960   0.53860   0.01267  Uiso   1.00
C17    C     0.16754   0.25034   0.60928   0.01267  Uiso   1.00
C18    C     0.33635   0.39945   0.47545   0.01267  Uiso   1.00
C19    C     0.46539   0.18859   0.75463   0.01267  Uiso   1.00
C20    C     0.55832   0.16822   0.75094   0.01267  Uiso   1.00
C21    C     0.60410   0.08720   0.79420   0.01267  Uiso   1.00
C22    C     0.56330   0.02080   0.83590   0.01267  Uiso   1.00
C23    C     0.47450   0.04590   0.83620   0.01267  Uiso   1.00
C24    C     0.60434   0.23444   0.70528   0.01267  Uiso   1.00
C25    C     0.28971   0.83021   0.59137   0.01267  Uiso   1.00
C26    C     0.34036   0.85516   0.52042   0.01267  Uiso   1.00
C27    C     0.33500   0.94690   0.49510   0.01267  Uiso   1.00
C28    C     0.28960   0.00650   0.53860   0.01267  Uiso   1.00
C29    C     0.25034   0.97284   0.60928   0.01267  Uiso   1.00
C30    C     0.39945   0.78875   0.47545   0.01267  Uiso   1.00
C31    C     0.18859   0.59139   0.75463   0.01267  Uiso   1.00
C32    C     0.16822   0.52252   0.75094   0.01267  Uiso   1.00
C33    C     0.08720   0.51450   0.79420   0.01267  Uiso   1.00
C34    C     0.02080   0.58000   0.83590   0.01267  Uiso   1.00
C35    C     0.04590   0.64340   0.83620   0.01267  Uiso   1.00
C36    C     0.23444   0.45594   0.70528   0.01267  Uiso   1.00
C37    C     0.66979   0.21029   0.90863   0.01267  Uiso   1.00
C38    C     0.64484   0.15964   0.97958   0.01267  Uiso   1.00
C39    C     0.55310   0.16500   0.00490   0.01267  Uiso   1.00
C40    C     0.49350   0.21040   0.96140   0.01267  Uiso   1.00
C41    C     0.52716   0.24966   0.89072   0.01267  Uiso   1.00
C42    C     0.71125   0.10055   0.02455   0.01267  Uiso   1.00
C43    C     0.90861   0.31141   0.74537   0.01267  Uiso   1.00
C44    C     0.97748   0.33178   0.74906   0.01267  Uiso   1.00
C45    C     0.98550   0.41280   0.70580   0.01267  Uiso   1.00
C46    C     0.92000   0.47920   0.66410   0.01267  Uiso   1.00
C47    C     0.85660   0.45410   0.66380   0.01267  Uiso   1.00
C48    C     0.04406   0.26556   0.79472   0.01267  Uiso   1.00
C49    C     0.21129   0.66979   0.90863   0.01267  Uiso   1.00
C50    C     0.21594   0.64484   0.97958   0.01267  Uiso   1.00
C51    C     0.27700   0.55310   0.00490   0.01267  Uiso   1.00
C52    C     0.33470   0.49350   0.96140   0.01267  Uiso   1.00
C53    C     0.33246   0.52716   0.89072   0.01267  Uiso   1.00
C54    C     0.16365   0.71125   0.02455   0.01267  Uiso   1.00
C55    C     0.03461   0.90861   0.74537   0.01267  Uiso   1.00
C56    C     0.94168   0.97748   0.74906   0.01267  Uiso   1.00
C57    C     0.89590   0.98550   0.70580   0.01267  Uiso   1.00
C58    C     0.93670   0.92000   0.66410   0.01267  Uiso   1.00
C59    C     0.02550   0.85660   0.66380   0.01267  Uiso   1.00
C60    C     0.89566   0.04406   0.79472   0.01267  Uiso   1.00
C61    C     0.21029   0.21129   0.90863   0.01267  Uiso   1.00
C62    C     0.15964   0.21594   0.97958   0.01267  Uiso   1.00
C63    C     0.16500   0.27700   0.00490   0.01267  Uiso   1.00
C64    C     0.21040   0.33470   0.96140   0.01267  Uiso   1.00
C65    C     0.24966   0.33246   0.89072   0.01267  Uiso   1.00
C66    C     0.10055   0.16365   0.02455   0.01267  Uiso   1.00
C67    C     0.31141   0.03461   0.74537   0.01267  Uiso   1.00
C68    C     0.33178   0.94168   0.74906   0.01267  Uiso   1.00
C69    C     0.41280   0.89590   0.70580   0.01267  Uiso   1.00
C70    C     0.47920   0.93670   0.66410   0.01267  Uiso   1.00
C71    C     0.45410   0.02550   0.66380   0.01267  Uiso   1.00
C72    C     0.26556   0.89566   0.79472   0.01267  Uiso   1.00
C73    C     0.16979   0.71129   0.40863   0.01267  Uiso   1.00
C74    C     0.14484   0.71594   0.47958   0.01267  Uiso   1.00
C75    C     0.05310   0.77700   0.50490   0.01267  Uiso   1.00
C76    C     0.99350   0.83470   0.46140   0.01267  Uiso   1.00
C77    C     0.02716   0.83246   0.39072   0.01267  Uiso   1.00
C78    C     0.21125   0.66365   0.52455   0.01267  Uiso   1.00
C79    C     0.40861   0.53461   0.24537   0.01267  Uiso   1.00
C80    C     0.47748   0.44168   0.24906   0.01267  Uiso   1.00
C81    C     0.48550   0.39590   0.20580   0.01267  Uiso   1.00
C82    C     0.42000   0.43670   0.16410   0.01267  Uiso   1.00
C83    C     0.35660   0.52550   0.16380   0.01267  Uiso   1.00
C84    C     0.54406   0.39566   0.29472   0.01267  Uiso   1.00
C85    C     0.71129   0.71029   0.40863   0.01267  Uiso   1.00
C86    C     0.71594   0.65964   0.47958   0.01267  Uiso   1.00
C87    C     0.77700   0.66500   0.50490   0.01267  Uiso   1.00
C88    C     0.83470   0.71040   0.46140   0.01267  Uiso   1.00
C89    C     0.83246   0.74966   0.39072   0.01267  Uiso   1.00
C90    C     0.66365   0.60055   0.52455   0.01267  Uiso   1.00
C91    C     0.53461   0.81141   0.24537   0.01267  Uiso   1.00
C92    C     0.44168   0.83178   0.24906   0.01267  Uiso   1.00
C93    C     0.39590   0.91280   0.20580   0.01267  Uiso   1.00
C94    C     0.43670   0.97920   0.16410   0.01267  Uiso   1.00
C95    C     0.52550   0.95410   0.16380   0.01267  Uiso   1.00
C96    C     0.39566   0.76556   0.29472   0.01267  Uiso   1.00
C97    C     0.71029   0.16979   0.40863   0.01267  Uiso   1.00
C98    C     0.65964   0.14484   0.47958   0.01267  Uiso   1.00
C99    C     0.66500   0.05310   0.50490   0.01267  Uiso   1.00
C100   C     0.71040   0.99350   0.46140   0.01267  Uiso   1.00
C101   C     0.74966   0.02716   0.39072   0.01267  Uiso   1.00
C102   C     0.60055   0.21125   0.52455   0.01267  Uiso   1.00
C103   C     0.81141   0.40861   0.24537   0.01267  Uiso   1.00
C104   C     0.83178   0.47748   0.24906   0.01267  Uiso   1.00
C105   C     0.91280   0.48550   0.20580   0.01267  Uiso   1.00
C106   C     0.97920   0.42000   0.16410   0.01267  Uiso   1.00
C107   C     0.95410   0.35660   0.16380   0.01267  Uiso   1.00
C108   C     0.76556   0.54406   0.29472   0.01267  Uiso   1.00
C109   C     0.33021   0.78971   0.09137   0.01267  Uiso   1.00
C110   C     0.35516   0.84036   0.02042   0.01267  Uiso   1.00
C111   C     0.44690   0.83500   0.99510   0.01267  Uiso   1.00
C112   C     0.50650   0.78960   0.03860   0.01267  Uiso   1.00
C113   C     0.47284   0.75034   0.10928   0.01267  Uiso   1.00
C114   C     0.28875   0.89945   0.97545   0.01267  Uiso   1.00
C115   C     0.09139   0.68859   0.25463   0.01267  Uiso   1.00
C116   C     0.02252   0.66822   0.25094   0.01267  Uiso   1.00
C117   C     0.01450   0.58720   0.29420   0.01267  Uiso   1.00
C118   C     0.08000   0.52080   0.33590   0.01267  Uiso   1.00
C119   C     0.14340   0.54590   0.33620   0.01267  Uiso   1.00
C120   C     0.95594   0.73444   0.20528   0.01267  Uiso   1.00
C121   C     0.78871   0.33021   0.09137   0.01267  Uiso   1.00
C122   C     0.78406   0.35516   0.02042   0.01267  Uiso   1.00
C123   C     0.72300   0.44690   0.99510   0.01267  Uiso   1.00
C124   C     0.66530   0.50650   0.03860   0.01267  Uiso   1.00
C125   C     0.66754   0.47284   0.10928   0.01267  Uiso   1.00
C126   C     0.83635   0.28875   0.97545   0.01267  Uiso   1.00
C127   C     0.96539   0.09139   0.25463   0.01267  Uiso   1.00
C128   C     0.05832   0.02252   0.25094   0.01267  Uiso   1.00
C129   C     0.10410   0.01450   0.29420   0.01267  Uiso   1.00
C130   C     0.06330   0.08000   0.33590   0.01267  Uiso   1.00
C131   C     0.97450   0.14340   0.33620   0.01267  Uiso   1.00
C132   C     0.10434   0.95594   0.20528   0.01267  Uiso   1.00
C133   C     0.78971   0.78871   0.09137   0.01267  Uiso   1.00
C134   C     0.84036   0.78406   0.02042   0.01267  Uiso   1.00
C135   C     0.83500   0.72300   0.99510   0.01267  Uiso   1.00
C136   C     0.78960   0.66530   0.03860   0.01267  Uiso   1.00
C137   C     0.75034   0.66754   0.10928   0.01267  Uiso   1.00
C138   C     0.89945   0.83635   0.97545   0.01267  Uiso   1.00
C139   C     0.68859   0.96539   0.25463   0.01267  Uiso   1.00
C140   C     0.66822   0.05832   0.25094   0.01267  Uiso   1.00
C141   C     0.58720   0.10410   0.29420   0.01267  Uiso   1.00
C142   C     0.52080   0.06330   0.33590   0.01267  Uiso   1.00
C143   C     0.54590   0.97450   0.33620   0.01267  Uiso   1.00
C144   C     0.73444   0.10434   0.20528   0.01267  Uiso   1.00
N1     N     0.88646   0.22816   0.63592   0.01267  Uiso   1.00
N2     N     0.65160   0.42590   0.79630   0.01267  Uiso   1.00
N3     N     0.22816   0.24946   0.63592   0.01267  Uiso   1.00
N4     N     0.42590   0.12620   0.79630   0.01267  Uiso   1.00
N5     N     0.24946   0.88646   0.63592   0.01267  Uiso   1.00
N6     N     0.12620   0.65160   0.79630   0.01267  Uiso   1.00
N7     N     0.61354   0.25054   0.86408   0.01267  Uiso   1.00
N8     N     0.84840   0.37380   0.70370   0.01267  Uiso   1.00
N9     N     0.27184   0.61354   0.86408   0.01267  Uiso   1.00
N10    N     0.07410   0.84840   0.70370   0.01267  Uiso   1.00
N11    N     0.25054   0.27184   0.86408   0.01267  Uiso   1.00
N12    N     0.37380   0.07410   0.70370   0.01267  Uiso   1.00
N13    N     0.11354   0.77184   0.36408   0.01267  Uiso   1.00
N14    N     0.34840   0.57410   0.20370   0.01267  Uiso   1.00
N15    N     0.77184   0.75054   0.36408   0.01267  Uiso   1.00
N16    N     0.57410   0.87380   0.20370   0.01267  Uiso   1.00
N17    N     0.75054   0.11354   0.36408   0.01267  Uiso   1.00
N18    N     0.87380   0.34840   0.20370   0.01267  Uiso   1.00
N19    N     0.38646   0.74946   0.13592   0.01267  Uiso   1.00
N20    N     0.15160   0.62620   0.29630   0.01267  Uiso   1.00
N21    N     0.72816   0.38646   0.13592   0.01267  Uiso   1.00
N22    N     0.92590   0.15160   0.29630   0.01267  Uiso   1.00
N23    N     0.74946   0.72816   0.13592   0.01267  Uiso   1.00
N24    N     0.62620   0.92590   0.29630   0.01267  Uiso   1.00
O1     O     0.70176   0.38606   0.50062   0.01267  Uiso   1.00
O2     O     0.81461   0.32871   0.41347   0.01267  Uiso   1.00
O3     O     0.75300   0.34760   0.62050   0.01267  Uiso   1.00
O4     O     0.46810   0.56600   0.65890   0.01267  Uiso   1.00
O5     O     0.39043   0.67943   0.71491   0.01267  Uiso   1.00
O6     O     0.60461   0.40951   0.72097   0.01267  Uiso   1.00
O7     O     0.38606   0.41156   0.50062   0.01267  Uiso   1.00
O8     O     0.32871   0.44321   0.41347   0.01267  Uiso   1.00
O9     O     0.34760   0.27890   0.62050   0.01267  Uiso   1.00
O10    O     0.56600   0.30700   0.65890   0.01267  Uiso   1.00
O11    O     0.67943   0.21523   0.71491   0.01267  Uiso   1.00
O12    O     0.40951   0.26491   0.72097   0.01267  Uiso   1.00
O13    O     0.41156   0.70176   0.50062   0.01267  Uiso   1.00
O14    O     0.44321   0.81461   0.41347   0.01267  Uiso   1.00
O15    O     0.27890   0.75300   0.62050   0.01267  Uiso   1.00
O16    O     0.30700   0.46810   0.65890   0.01267  Uiso   1.00
O17    O     0.21523   0.39043   0.71491   0.01267  Uiso   1.00
O18    O     0.26491   0.60461   0.72097   0.01267  Uiso   1.00
O19    O     0.79824   0.08844   0.99938   0.01267  Uiso   1.00
O20    O     0.68539   0.05679   0.08653   0.01267  Uiso   1.00
O21    O     0.74700   0.22110   0.87950   0.01267  Uiso   1.00
O22    O     0.03190   0.19300   0.84110   0.01267  Uiso   1.00
O23    O     0.10957   0.28477   0.78509   0.01267  Uiso   1.00
O24    O     0.89539   0.23509   0.77903   0.01267  Uiso   1.00
O25    O     0.11394   0.79824   0.99938   0.01267  Uiso   1.00
O26    O     0.17129   0.68539   0.08653   0.01267  Uiso   1.00
O27    O     0.15240   0.74700   0.87950   0.01267  Uiso   1.00
O28    O     0.93400   0.03190   0.84110   0.01267  Uiso   1.00
O29    O     0.82057   0.10957   0.78509   0.01267  Uiso   1.00
O30    O     0.09049   0.89539   0.77903   0.01267  Uiso   1.00
O31    O     0.08844   0.11394   0.99938   0.01267  Uiso   1.00
O32    O     0.05679   0.17129   0.08653   0.01267  Uiso   1.00
O33    O     0.22110   0.15240   0.87950   0.01267  Uiso   1.00
O34    O     0.19300   0.93400   0.84110   0.01267  Uiso   1.00
O35    O     0.28477   0.82057   0.78509   0.01267  Uiso   1.00
O36    O     0.23509   0.09049   0.77903   0.01267  Uiso   1.00
O37    O     0.29824   0.61394   0.49938   0.01267  Uiso   1.00
O38    O     0.18539   0.67129   0.58653   0.01267  Uiso   1.00
O39    O     0.24700   0.65240   0.37950   0.01267  Uiso   1.00
O40    O     0.53190   0.43400   0.34110   0.01267  Uiso   1.00
O41    O     0.60957   0.32057   0.28509   0.01267  Uiso   1.00
O42    O     0.39539   0.59049   0.27903   0.01267  Uiso   1.00
O43    O     0.61394   0.58844   0.49938   0.01267  Uiso   1.00
O44    O     0.67129   0.55679   0.58653   0.01267  Uiso   1.00
O45    O     0.65240   0.72110   0.37950   0.01267  Uiso   1.00
O46    O     0.43400   0.69300   0.34110   0.01267  Uiso   1.00
O47    O     0.32057   0.78477   0.28509   0.01267  Uiso   1.00
O48    O     0.59049   0.73509   0.27903   0.01267  Uiso   1.00
O49    O     0.58844   0.29824   0.49938   0.01267  Uiso   1.00
O50    O     0.55679   0.18539   0.58653   0.01267  Uiso   1.00
O51    O     0.72110   0.24700   0.37950   0.01267  Uiso   1.00
O52    O     0.69300   0.53190   0.34110   0.01267  Uiso   1.00
O53    O     0.78477   0.60957   0.28509   0.01267  Uiso   1.00
O54    O     0.73509   0.39539   0.27903   0.01267  Uiso   1.00
O55    O     0.20176   0.91156   0.00062   0.01267  Uiso   1.00
O56    O     0.31461   0.94321   0.91347   0.01267  Uiso   1.00
O57    O     0.25300   0.77890   0.12050   0.01267  Uiso   1.00
O58    O     0.96810   0.80700   0.15890   0.01267  Uiso   1.00
O59    O     0.89043   0.71523   0.21491   0.01267  Uiso   1.00
O60    O     0.10461   0.76491   0.22097   0.01267  Uiso   1.00
O61    O     0.88606   0.20176   0.00062   0.01267  Uiso   1.00
O62    O     0.82871   0.31461   0.91347   0.01267  Uiso   1.00
O63    O     0.84760   0.25300   0.12050   0.01267  Uiso   1.00
O64    O     0.06600   0.96810   0.15890   0.01267  Uiso   1.00
O65    O     0.17943   0.89043   0.21491   0.01267  Uiso   1.00
O66    O     0.90951   0.10461   0.22097   0.01267  Uiso   1.00
O67    O     0.91156   0.88606   0.00062   0.01267  Uiso   1.00
O68    O     0.94321   0.82871   0.91347   0.01267  Uiso   1.00
O69    O     0.77890   0.84760   0.12050   0.01267  Uiso   1.00
O70    O     0.80700   0.06600   0.15890   0.01267  Uiso   1.00
O71    O     0.71523   0.17943   0.21491   0.01267  Uiso   1.00
O72    O     0.76491   0.90951   0.22097   0.01267  Uiso   1.00
O73    O     0.47761   0.47761   0.56717   0.01267  Uiso   1.00
O74    O     0.02239   0.02239   0.93283   0.01267  Uiso   1.00
O75    O     0.52239   0.52239   0.43283   0.01267  Uiso   1.00
O76    O     0.97761   0.97761   0.06717   0.01267  Uiso   1.00
