data_ISUGIN_clean
_audit_creation_date              2014-07-02
_audit_creation_method            'Materials Studio'
_symmetry_space_group_name_H-M    'P1'
_symmetry_Int_Tables_number       1
_symmetry_cell_setting            triclinic
loop_
_symmetry_equiv_pos_as_xyz
  x,y,z
_cell_length_a                    17.0151
_cell_length_b                    17.0151
_cell_length_c                    21.1625
_cell_angle_alpha                 66.2960
_cell_angle_beta                  66.2960
_cell_angle_gamma                 60.0000
loop_
_atom_site_label
_atom_site_type_symbol
_atom_site_fract_x
_atom_site_fract_y
_atom_site_fract_z
_atom_site_U_iso_or_equiv
_atom_site_adp_type
_atom_site_occupancy
Gd1    Gd    0.15470   0.05250   0.89682   0.01267  Uiso   1.00
Gd2    Gd    0.05250   0.89598   0.89682   0.01267  Uiso   1.00
Gd3    Gd    0.89598   0.15470   0.89682   0.01267  Uiso   1.00
Gd4    Gd    0.34530   0.60402   0.60318   0.01267  Uiso   1.00
Gd5    Gd    0.44750   0.34530   0.60318   0.01267  Uiso   1.00
Gd6    Gd    0.60402   0.44750   0.60318   0.01267  Uiso   1.00
Gd7    Gd    0.84530   0.94750   0.10318   0.01267  Uiso   1.00
Gd8    Gd    0.94750   0.10402   0.10318   0.01267  Uiso   1.00
Gd9    Gd    0.10402   0.84530   0.10318   0.01267  Uiso   1.00
Gd10   Gd    0.65470   0.39598   0.39682   0.01267  Uiso   1.00
Gd11   Gd    0.55250   0.65470   0.39682   0.01267  Uiso   1.00
Gd12   Gd    0.39598   0.55250   0.39682   0.01267  Uiso   1.00
Gd13   Gd    0.27613   0.22387   0.75000   0.01267  Uiso   1.00
Gd14   Gd    0.22387   0.75000   0.75000   0.01267  Uiso   1.00
Gd15   Gd    0.75000   0.27613   0.75000   0.01267  Uiso   1.00
Gd16   Gd    0.72387   0.77613   0.25000   0.01267  Uiso   1.00
Gd17   Gd    0.77613   0.25000   0.25000   0.01267  Uiso   1.00
Gd18   Gd    0.25000   0.72387   0.25000   0.01267  Uiso   1.00
H1     H     0.13330   0.28100   0.05190   0.01267  Uiso   1.00
H2     H     0.21880   0.37090   0.97930   0.01267  Uiso   1.00
H3     H     0.27860   0.37270   0.85990   0.01267  Uiso   1.00
H4     H     0.02900   0.43050   0.70660   0.01267  Uiso   1.00
H5     H     0.92540   0.53500   0.63490   0.01267  Uiso   1.00
H6     H     0.81210   0.49710   0.63730   0.01267  Uiso   1.00
H7     H     0.28100   0.53380   0.05190   0.01267  Uiso   1.00
H8     H     0.37090   0.43100   0.97930   0.01267  Uiso   1.00
H9     H     0.37270   0.48880   0.85990   0.01267  Uiso   1.00
H10    H     0.43050   0.83390   0.70660   0.01267  Uiso   1.00
H11    H     0.53500   0.90470   0.63490   0.01267  Uiso   1.00
H12    H     0.49710   0.05350   0.63730   0.01267  Uiso   1.00
H13    H     0.53380   0.13330   0.05190   0.01267  Uiso   1.00
H14    H     0.43100   0.21880   0.97930   0.01267  Uiso   1.00
H15    H     0.48880   0.27860   0.85990   0.01267  Uiso   1.00
H16    H     0.83390   0.02900   0.70660   0.01267  Uiso   1.00
H17    H     0.90470   0.92540   0.63490   0.01267  Uiso   1.00
H18    H     0.05350   0.81210   0.63730   0.01267  Uiso   1.00
H19    H     0.36670   0.96620   0.44810   0.01267  Uiso   1.00
H20    H     0.28120   0.06900   0.52070   0.01267  Uiso   1.00
H21    H     0.22140   0.01120   0.64010   0.01267  Uiso   1.00
H22    H     0.47100   0.66610   0.79340   0.01267  Uiso   1.00
H23    H     0.57460   0.59530   0.86510   0.01267  Uiso   1.00
H24    H     0.68790   0.44650   0.86270   0.01267  Uiso   1.00
H25    H     0.21900   0.36670   0.44810   0.01267  Uiso   1.00
H26    H     0.12910   0.28120   0.52070   0.01267  Uiso   1.00
H27    H     0.12730   0.22140   0.64010   0.01267  Uiso   1.00
H28    H     0.06950   0.47100   0.79340   0.01267  Uiso   1.00
H29    H     0.96500   0.57460   0.86510   0.01267  Uiso   1.00
H30    H     0.00290   0.68790   0.86270   0.01267  Uiso   1.00
H31    H     0.96620   0.21900   0.44810   0.01267  Uiso   1.00
H32    H     0.06900   0.12910   0.52070   0.01267  Uiso   1.00
H33    H     0.01120   0.12730   0.64010   0.01267  Uiso   1.00
H34    H     0.66610   0.06950   0.79340   0.01267  Uiso   1.00
H35    H     0.59530   0.96500   0.86510   0.01267  Uiso   1.00
H36    H     0.44650   0.00290   0.86270   0.01267  Uiso   1.00
H37    H     0.86670   0.71900   0.94810   0.01267  Uiso   1.00
H38    H     0.78120   0.62910   0.02070   0.01267  Uiso   1.00
H39    H     0.72140   0.62730   0.14010   0.01267  Uiso   1.00
H40    H     0.97100   0.56950   0.29340   0.01267  Uiso   1.00
H41    H     0.07460   0.46500   0.36510   0.01267  Uiso   1.00
H42    H     0.18790   0.50290   0.36270   0.01267  Uiso   1.00
H43    H     0.71900   0.46620   0.94810   0.01267  Uiso   1.00
H44    H     0.62910   0.56900   0.02070   0.01267  Uiso   1.00
H45    H     0.62730   0.51120   0.14010   0.01267  Uiso   1.00
H46    H     0.56950   0.16610   0.29340   0.01267  Uiso   1.00
H47    H     0.46500   0.09530   0.36510   0.01267  Uiso   1.00
H48    H     0.50290   0.94650   0.36270   0.01267  Uiso   1.00
H49    H     0.46620   0.86670   0.94810   0.01267  Uiso   1.00
H50    H     0.56900   0.78120   0.02070   0.01267  Uiso   1.00
H51    H     0.51120   0.72140   0.14010   0.01267  Uiso   1.00
H52    H     0.16610   0.97100   0.29340   0.01267  Uiso   1.00
H53    H     0.09530   0.07460   0.36510   0.01267  Uiso   1.00
H54    H     0.94650   0.18790   0.36270   0.01267  Uiso   1.00
H55    H     0.63330   0.03380   0.55190   0.01267  Uiso   1.00
H56    H     0.71880   0.93100   0.47930   0.01267  Uiso   1.00
H57    H     0.77860   0.98880   0.35990   0.01267  Uiso   1.00
H58    H     0.52900   0.33390   0.20660   0.01267  Uiso   1.00
H59    H     0.42540   0.40470   0.13490   0.01267  Uiso   1.00
H60    H     0.31210   0.55350   0.13730   0.01267  Uiso   1.00
H61    H     0.78100   0.63330   0.55190   0.01267  Uiso   1.00
H62    H     0.87090   0.71880   0.47930   0.01267  Uiso   1.00
H63    H     0.87270   0.77860   0.35990   0.01267  Uiso   1.00
H64    H     0.93050   0.52900   0.20660   0.01267  Uiso   1.00
H65    H     0.03500   0.42540   0.13490   0.01267  Uiso   1.00
H66    H     0.99710   0.31210   0.13730   0.01267  Uiso   1.00
H67    H     0.03380   0.78100   0.55190   0.01267  Uiso   1.00
H68    H     0.93100   0.87090   0.47930   0.01267  Uiso   1.00
H69    H     0.98880   0.87270   0.35990   0.01267  Uiso   1.00
H70    H     0.33390   0.93050   0.20660   0.01267  Uiso   1.00
H71    H     0.40470   0.03500   0.13490   0.01267  Uiso   1.00
H72    H     0.55350   0.99710   0.13730   0.01267  Uiso   1.00
H73    H     0.00000   0.00000   0.00000   0.01267  Uiso   1.00
H74    H     0.50000   0.50000   0.50000   0.01267  Uiso   1.00
C1     C     0.20941   0.21181   0.90877   0.01267  Uiso   1.00
C2     C     0.16031   0.21561   0.97987   0.01267  Uiso   1.00
C3     C     0.16391   0.27731   0.00507   0.01267  Uiso   1.00
C4     C     0.21223   0.33313   0.96151   0.01267  Uiso   1.00
C5     C     0.25065   0.33125   0.89065   0.01267  Uiso   1.00
C6     C     0.09986   0.16276   0.02502   0.01267  Uiso   1.00
C7     C     0.90867   0.31117   0.74509   0.01267  Uiso   1.00
C8     C     0.97722   0.33122   0.74944   0.01267  Uiso   1.00
C9     C     0.98328   0.41568   0.70666   0.01267  Uiso   1.00
C10    C     0.92160   0.47830   0.66370   0.01267  Uiso   1.00
C11    C     0.85470   0.45450   0.66490   0.01267  Uiso   1.00
C12    C     0.04426   0.26556   0.79462   0.01267  Uiso   1.00
C13    C     0.21181   0.67001   0.90877   0.01267  Uiso   1.00
C14    C     0.21561   0.64421   0.97987   0.01267  Uiso   1.00
C15    C     0.27731   0.55371   0.00507   0.01267  Uiso   1.00
C16    C     0.33313   0.49313   0.96151   0.01267  Uiso   1.00
C17    C     0.33125   0.52745   0.89065   0.01267  Uiso   1.00
C18    C     0.16276   0.71236   0.02502   0.01267  Uiso   1.00
C19    C     0.31117   0.03507   0.74509   0.01267  Uiso   1.00
C20    C     0.33122   0.94212   0.74944   0.01267  Uiso   1.00
C21    C     0.41568   0.89438   0.70666   0.01267  Uiso   1.00
C22    C     0.47830   0.93640   0.66370   0.01267  Uiso   1.00
C23    C     0.45450   0.02590   0.66490   0.01267  Uiso   1.00
C24    C     0.26556   0.89556   0.79462   0.01267  Uiso   1.00
C25    C     0.67001   0.20941   0.90877   0.01267  Uiso   1.00
C26    C     0.64421   0.16031   0.97987   0.01267  Uiso   1.00
C27    C     0.55371   0.16391   0.00507   0.01267  Uiso   1.00
C28    C     0.49313   0.21223   0.96151   0.01267  Uiso   1.00
C29    C     0.52745   0.25065   0.89065   0.01267  Uiso   1.00
C30    C     0.71236   0.09986   0.02502   0.01267  Uiso   1.00
C31    C     0.03507   0.90867   0.74509   0.01267  Uiso   1.00
C32    C     0.94212   0.97722   0.74944   0.01267  Uiso   1.00
C33    C     0.89438   0.98328   0.70666   0.01267  Uiso   1.00
C34    C     0.93640   0.92160   0.66370   0.01267  Uiso   1.00
C35    C     0.02590   0.85470   0.66490   0.01267  Uiso   1.00
C36    C     0.89556   0.04426   0.79462   0.01267  Uiso   1.00
C37    C     0.29059   0.82999   0.59123   0.01267  Uiso   1.00
C38    C     0.33969   0.85579   0.52013   0.01267  Uiso   1.00
C39    C     0.33609   0.94629   0.49493   0.01267  Uiso   1.00
C40    C     0.28777   0.00687   0.53849   0.01267  Uiso   1.00
C41    C     0.24935   0.97255   0.60935   0.01267  Uiso   1.00
C42    C     0.40014   0.78764   0.47498   0.01267  Uiso   1.00
C43    C     0.59133   0.46493   0.75491   0.01267  Uiso   1.00
C44    C     0.52278   0.55788   0.75056   0.01267  Uiso   1.00
C45    C     0.51672   0.60562   0.79334   0.01267  Uiso   1.00
C46    C     0.57840   0.56360   0.83630   0.01267  Uiso   1.00
C47    C     0.64530   0.47410   0.83510   0.01267  Uiso   1.00
C48    C     0.45574   0.60444   0.70538   0.01267  Uiso   1.00
C49    C     0.28819   0.29059   0.59123   0.01267  Uiso   1.00
C50    C     0.28439   0.33969   0.52013   0.01267  Uiso   1.00
C51    C     0.22269   0.33609   0.49493   0.01267  Uiso   1.00
C52    C     0.16687   0.28777   0.53849   0.01267  Uiso   1.00
C53    C     0.16875   0.24935   0.60935   0.01267  Uiso   1.00
C54    C     0.33724   0.40014   0.47498   0.01267  Uiso   1.00
C55    C     0.18883   0.59133   0.75491   0.01267  Uiso   1.00
C56    C     0.16878   0.52278   0.75056   0.01267  Uiso   1.00
C57    C     0.08432   0.51672   0.79334   0.01267  Uiso   1.00
C58    C     0.02170   0.57840   0.83630   0.01267  Uiso   1.00
C59    C     0.04550   0.64530   0.83510   0.01267  Uiso   1.00
C60    C     0.23444   0.45574   0.70538   0.01267  Uiso   1.00
C61    C     0.82999   0.28819   0.59123   0.01267  Uiso   1.00
C62    C     0.85579   0.28439   0.52013   0.01267  Uiso   1.00
C63    C     0.94629   0.22269   0.49493   0.01267  Uiso   1.00
C64    C     0.00687   0.16687   0.53849   0.01267  Uiso   1.00
C65    C     0.97255   0.16875   0.60935   0.01267  Uiso   1.00
C66    C     0.78764   0.33724   0.47498   0.01267  Uiso   1.00
C67    C     0.46493   0.18883   0.75491   0.01267  Uiso   1.00
C68    C     0.55788   0.16878   0.75056   0.01267  Uiso   1.00
C69    C     0.60562   0.08432   0.79334   0.01267  Uiso   1.00
C70    C     0.56360   0.02170   0.83630   0.01267  Uiso   1.00
C71    C     0.47410   0.04550   0.83510   0.01267  Uiso   1.00
C72    C     0.60444   0.23444   0.70538   0.01267  Uiso   1.00
C73    C     0.79059   0.78819   0.09123   0.01267  Uiso   1.00
C74    C     0.83969   0.78439   0.02013   0.01267  Uiso   1.00
C75    C     0.83609   0.72269   0.99493   0.01267  Uiso   1.00
C76    C     0.78777   0.66687   0.03849   0.01267  Uiso   1.00
C77    C     0.74935   0.66875   0.10935   0.01267  Uiso   1.00
C78    C     0.90014   0.83724   0.97498   0.01267  Uiso   1.00
C79    C     0.09133   0.68883   0.25491   0.01267  Uiso   1.00
C80    C     0.02278   0.66878   0.25056   0.01267  Uiso   1.00
C81    C     0.01672   0.58432   0.29334   0.01267  Uiso   1.00
C82    C     0.07840   0.52170   0.33630   0.01267  Uiso   1.00
C83    C     0.14530   0.54550   0.33510   0.01267  Uiso   1.00
C84    C     0.95574   0.73444   0.20538   0.01267  Uiso   1.00
C85    C     0.78819   0.32999   0.09123   0.01267  Uiso   1.00
C86    C     0.78439   0.35579   0.02013   0.01267  Uiso   1.00
C87    C     0.72269   0.44629   0.99493   0.01267  Uiso   1.00
C88    C     0.66687   0.50687   0.03849   0.01267  Uiso   1.00
C89    C     0.66875   0.47255   0.10935   0.01267  Uiso   1.00
C90    C     0.83724   0.28764   0.97498   0.01267  Uiso   1.00
C91    C     0.68883   0.96493   0.25491   0.01267  Uiso   1.00
C92    C     0.66878   0.05788   0.25056   0.01267  Uiso   1.00
C93    C     0.58432   0.10562   0.29334   0.01267  Uiso   1.00
C94    C     0.52170   0.06360   0.33630   0.01267  Uiso   1.00
C95    C     0.54550   0.97410   0.33510   0.01267  Uiso   1.00
C96    C     0.73444   0.10444   0.20538   0.01267  Uiso   1.00
C97    C     0.32999   0.79059   0.09123   0.01267  Uiso   1.00
C98    C     0.35579   0.83969   0.02013   0.01267  Uiso   1.00
C99    C     0.44629   0.83609   0.99493   0.01267  Uiso   1.00
C100   C     0.50687   0.78777   0.03849   0.01267  Uiso   1.00
C101   C     0.47255   0.74935   0.10935   0.01267  Uiso   1.00
C102   C     0.28764   0.90014   0.97498   0.01267  Uiso   1.00
C103   C     0.96493   0.09133   0.25491   0.01267  Uiso   1.00
C104   C     0.05788   0.02278   0.25056   0.01267  Uiso   1.00
C105   C     0.10562   0.01672   0.29334   0.01267  Uiso   1.00
C106   C     0.06360   0.07840   0.33630   0.01267  Uiso   1.00
C107   C     0.97410   0.14530   0.33510   0.01267  Uiso   1.00
C108   C     0.10444   0.95574   0.20538   0.01267  Uiso   1.00
C109   C     0.70941   0.17001   0.40877   0.01267  Uiso   1.00
C110   C     0.66031   0.14421   0.47987   0.01267  Uiso   1.00
C111   C     0.66391   0.05371   0.50507   0.01267  Uiso   1.00
C112   C     0.71223   0.99313   0.46151   0.01267  Uiso   1.00
C113   C     0.75065   0.02745   0.39065   0.01267  Uiso   1.00
C114   C     0.59986   0.21236   0.52502   0.01267  Uiso   1.00
C115   C     0.40867   0.53507   0.24509   0.01267  Uiso   1.00
C116   C     0.47722   0.44212   0.24944   0.01267  Uiso   1.00
C117   C     0.48328   0.39438   0.20666   0.01267  Uiso   1.00
C118   C     0.42160   0.43640   0.16370   0.01267  Uiso   1.00
C119   C     0.35470   0.52590   0.16490   0.01267  Uiso   1.00
C120   C     0.54426   0.39556   0.29462   0.01267  Uiso   1.00
C121   C     0.71181   0.70941   0.40877   0.01267  Uiso   1.00
C122   C     0.71561   0.66031   0.47987   0.01267  Uiso   1.00
C123   C     0.77731   0.66391   0.50507   0.01267  Uiso   1.00
C124   C     0.83313   0.71223   0.46151   0.01267  Uiso   1.00
C125   C     0.83125   0.75065   0.39065   0.01267  Uiso   1.00
C126   C     0.66276   0.59986   0.52502   0.01267  Uiso   1.00
C127   C     0.81117   0.40867   0.24509   0.01267  Uiso   1.00
C128   C     0.83122   0.47722   0.24944   0.01267  Uiso   1.00
C129   C     0.91568   0.48328   0.20666   0.01267  Uiso   1.00
C130   C     0.97830   0.42160   0.16370   0.01267  Uiso   1.00
C131   C     0.95450   0.35470   0.16490   0.01267  Uiso   1.00
C132   C     0.76556   0.54426   0.29462   0.01267  Uiso   1.00
C133   C     0.17001   0.71181   0.40877   0.01267  Uiso   1.00
C134   C     0.14421   0.71561   0.47987   0.01267  Uiso   1.00
C135   C     0.05371   0.77731   0.50507   0.01267  Uiso   1.00
C136   C     0.99313   0.83313   0.46151   0.01267  Uiso   1.00
C137   C     0.02745   0.83125   0.39065   0.01267  Uiso   1.00
C138   C     0.21236   0.66276   0.52502   0.01267  Uiso   1.00
C139   C     0.53507   0.81117   0.24509   0.01267  Uiso   1.00
C140   C     0.44212   0.83122   0.24944   0.01267  Uiso   1.00
C141   C     0.39438   0.91568   0.20666   0.01267  Uiso   1.00
C142   C     0.43640   0.97830   0.16370   0.01267  Uiso   1.00
C143   C     0.52590   0.95450   0.16490   0.01267  Uiso   1.00
C144   C     0.39556   0.76556   0.29462   0.01267  Uiso   1.00
N1     N     0.24959   0.27299   0.86443   0.01267  Uiso   1.00
N2     N     0.84801   0.37321   0.70387   0.01267  Uiso   1.00
N3     N     0.27299   0.61299   0.86443   0.01267  Uiso   1.00
N4     N     0.37321   0.07491   0.70387   0.01267  Uiso   1.00
N5     N     0.61299   0.24959   0.86443   0.01267  Uiso   1.00
N6     N     0.07491   0.84801   0.70387   0.01267  Uiso   1.00
N7     N     0.25041   0.88701   0.63557   0.01267  Uiso   1.00
N8     N     0.65199   0.42509   0.79613   0.01267  Uiso   1.00
N9     N     0.22701   0.25041   0.63557   0.01267  Uiso   1.00
N10    N     0.12679   0.65199   0.79613   0.01267  Uiso   1.00
N11    N     0.88701   0.22701   0.63557   0.01267  Uiso   1.00
N12    N     0.42509   0.12679   0.79613   0.01267  Uiso   1.00
N13    N     0.75041   0.72701   0.13557   0.01267  Uiso   1.00
N14    N     0.15199   0.62679   0.29613   0.01267  Uiso   1.00
N15    N     0.72701   0.38701   0.13557   0.01267  Uiso   1.00
N16    N     0.62679   0.92509   0.29613   0.01267  Uiso   1.00
N17    N     0.38701   0.75041   0.13557   0.01267  Uiso   1.00
N18    N     0.92509   0.15199   0.29613   0.01267  Uiso   1.00
N19    N     0.74959   0.11299   0.36443   0.01267  Uiso   1.00
N20    N     0.34801   0.57491   0.20387   0.01267  Uiso   1.00
N21    N     0.77299   0.74959   0.36443   0.01267  Uiso   1.00
N22    N     0.87321   0.34801   0.20387   0.01267  Uiso   1.00
N23    N     0.11299   0.77299   0.36443   0.01267  Uiso   1.00
N24    N     0.57491   0.87321   0.20387   0.01267  Uiso   1.00
O1     O     0.08764   0.11344   0.99988   0.01267  Uiso   1.00
O2     O     0.05578   0.17068   0.08736   0.01267  Uiso   1.00
O3     O     0.22050   0.15190   0.87970   0.01267  Uiso   1.00
O4     O     0.03211   0.19281   0.84157   0.01267  Uiso   1.00
O5     O     0.10989   0.28489   0.78493   0.01267  Uiso   1.00
O6     O     0.89628   0.23398   0.77896   0.01267  Uiso   1.00
O7     O     0.11344   0.79904   0.99988   0.01267  Uiso   1.00
O8     O     0.17068   0.68618   0.08736   0.01267  Uiso   1.00
O9     O     0.15190   0.74790   0.87970   0.01267  Uiso   1.00
O10    O     0.19281   0.93351   0.84157   0.01267  Uiso   1.00
O11    O     0.28489   0.82029   0.78493   0.01267  Uiso   1.00
O12    O     0.23398   0.09078   0.77896   0.01267  Uiso   1.00
O13    O     0.79904   0.08764   0.99988   0.01267  Uiso   1.00
O14    O     0.68618   0.05578   0.08736   0.01267  Uiso   1.00
O15    O     0.74790   0.22050   0.87970   0.01267  Uiso   1.00
O16    O     0.93351   0.03211   0.84157   0.01267  Uiso   1.00
O17    O     0.82029   0.10989   0.78493   0.01267  Uiso   1.00
O18    O     0.09078   0.89628   0.77896   0.01267  Uiso   1.00
O19    O     0.41236   0.70096   0.50012   0.01267  Uiso   1.00
O20    O     0.44422   0.81382   0.41264   0.01267  Uiso   1.00
O21    O     0.27950   0.75210   0.62030   0.01267  Uiso   1.00
O22    O     0.46789   0.56649   0.65843   0.01267  Uiso   1.00
O23    O     0.39011   0.67971   0.71507   0.01267  Uiso   1.00
O24    O     0.60372   0.40922   0.72104   0.01267  Uiso   1.00
O25    O     0.38656   0.41236   0.50012   0.01267  Uiso   1.00
O26    O     0.32932   0.44422   0.41264   0.01267  Uiso   1.00
O27    O     0.34810   0.27950   0.62030   0.01267  Uiso   1.00
O28    O     0.30719   0.46789   0.65843   0.01267  Uiso   1.00
O29    O     0.21511   0.39011   0.71507   0.01267  Uiso   1.00
O30    O     0.26602   0.60372   0.72104   0.01267  Uiso   1.00
O31    O     0.70096   0.38656   0.50012   0.01267  Uiso   1.00
O32    O     0.81382   0.32932   0.41264   0.01267  Uiso   1.00
O33    O     0.75210   0.34810   0.62030   0.01267  Uiso   1.00
O34    O     0.56649   0.30719   0.65843   0.01267  Uiso   1.00
O35    O     0.67971   0.21511   0.71507   0.01267  Uiso   1.00
O36    O     0.40922   0.26602   0.72104   0.01267  Uiso   1.00
O37    O     0.91236   0.88656   0.00012   0.01267  Uiso   1.00
O38    O     0.94422   0.82932   0.91264   0.01267  Uiso   1.00
O39    O     0.77950   0.84810   0.12030   0.01267  Uiso   1.00
O40    O     0.96789   0.80719   0.15843   0.01267  Uiso   1.00
O41    O     0.89011   0.71511   0.21507   0.01267  Uiso   1.00
O42    O     0.10372   0.76602   0.22104   0.01267  Uiso   1.00
O43    O     0.88656   0.20096   0.00012   0.01267  Uiso   1.00
O44    O     0.82932   0.31382   0.91264   0.01267  Uiso   1.00
O45    O     0.84810   0.25210   0.12030   0.01267  Uiso   1.00
O46    O     0.80719   0.06649   0.15843   0.01267  Uiso   1.00
O47    O     0.71511   0.17971   0.21507   0.01267  Uiso   1.00
O48    O     0.76602   0.90922   0.22104   0.01267  Uiso   1.00
O49    O     0.20096   0.91236   0.00012   0.01267  Uiso   1.00
O50    O     0.31382   0.94422   0.91264   0.01267  Uiso   1.00
O51    O     0.25210   0.77950   0.12030   0.01267  Uiso   1.00
O52    O     0.06649   0.96789   0.15843   0.01267  Uiso   1.00
O53    O     0.17971   0.89011   0.21507   0.01267  Uiso   1.00
O54    O     0.90922   0.10372   0.22104   0.01267  Uiso   1.00
O55    O     0.58764   0.29904   0.49988   0.01267  Uiso   1.00
O56    O     0.55578   0.18618   0.58736   0.01267  Uiso   1.00
O57    O     0.72050   0.24790   0.37970   0.01267  Uiso   1.00
O58    O     0.53211   0.43351   0.34157   0.01267  Uiso   1.00
O59    O     0.60989   0.32029   0.28493   0.01267  Uiso   1.00
O60    O     0.39628   0.59078   0.27896   0.01267  Uiso   1.00
O61    O     0.61344   0.58764   0.49988   0.01267  Uiso   1.00
O62    O     0.67068   0.55578   0.58736   0.01267  Uiso   1.00
O63    O     0.65190   0.72050   0.37970   0.01267  Uiso   1.00
O64    O     0.69281   0.53211   0.34157   0.01267  Uiso   1.00
O65    O     0.78489   0.60989   0.28493   0.01267  Uiso   1.00
O66    O     0.73398   0.39628   0.27896   0.01267  Uiso   1.00
O67    O     0.29904   0.61344   0.49988   0.01267  Uiso   1.00
O68    O     0.18618   0.67068   0.58736   0.01267  Uiso   1.00
O69    O     0.24790   0.65190   0.37970   0.01267  Uiso   1.00
O70    O     0.43351   0.69281   0.34157   0.01267  Uiso   1.00
O71    O     0.32029   0.78489   0.28493   0.01267  Uiso   1.00
O72    O     0.59078   0.73398   0.27896   0.01267  Uiso   1.00
O73    O     0.02244   0.02244   0.93268   0.01267  Uiso   1.00
O74    O     0.47756   0.47756   0.56732   0.01267  Uiso   1.00
O75    O     0.97756   0.97756   0.06732   0.01267  Uiso   1.00
O76    O     0.52244   0.52244   0.43268   0.01267  Uiso   1.00
