data_ISUXAW_clean
_audit_creation_date              2014-07-02
_audit_creation_method            'Materials Studio'
_symmetry_space_group_name_H-M    'P1'
_symmetry_Int_Tables_number       1
_symmetry_cell_setting            triclinic
loop_
_symmetry_equiv_pos_as_xyz
  x,y,z
_cell_length_a                    6.8811
_cell_length_b                    18.3510
_cell_length_c                    18.4070
_cell_angle_alpha                 110.1200
_cell_angle_beta                  90.0000
_cell_angle_gamma                 90.0000
loop_
_atom_site_label
_atom_site_type_symbol
_atom_site_fract_x
_atom_site_fract_y
_atom_site_fract_z
_atom_site_U_iso_or_equiv
_atom_site_adp_type
_atom_site_occupancy
Dy1    Dy    0.77688   0.62647   0.62305   0.01267  Uiso   1.00
Dy2    Dy    0.74753   0.62460   0.10414   0.01267  Uiso   1.00
Dy3    Dy    0.27688   0.87353   0.87695   0.01267  Uiso   1.00
Dy4    Dy    0.24753   0.87540   0.39586   0.01267  Uiso   1.00
Dy5    Dy    0.22312   0.37353   0.37695   0.01267  Uiso   1.00
Dy6    Dy    0.25247   0.37540   0.89586   0.01267  Uiso   1.00
Dy7    Dy    0.72312   0.12647   0.12305   0.01267  Uiso   1.00
Dy8    Dy    0.75247   0.12460   0.60414   0.01267  Uiso   1.00
H1     H     0.51280   0.62590   0.89770   0.01267  Uiso   1.00
H2     H     0.73220   0.41660   0.76260   0.01267  Uiso   1.00
H3     H     0.59300   0.72640   0.41050   0.01267  Uiso   1.00
H4     H     0.79860   0.50660   0.33110   0.01267  Uiso   1.00
H5     H     0.01280   0.87410   0.60230   0.01267  Uiso   1.00
H6     H     0.23220   0.08340   0.73740   0.01267  Uiso   1.00
H7     H     0.09300   0.77360   0.08950   0.01267  Uiso   1.00
H8     H     0.29860   0.99340   0.16890   0.01267  Uiso   1.00
H9     H     0.48720   0.37410   0.10230   0.01267  Uiso   1.00
H10    H     0.26780   0.58340   0.23740   0.01267  Uiso   1.00
H11    H     0.40700   0.27360   0.58950   0.01267  Uiso   1.00
H12    H     0.20140   0.49340   0.66890   0.01267  Uiso   1.00
H13    H     0.98720   0.12590   0.39770   0.01267  Uiso   1.00
H14    H     0.76780   0.91660   0.26260   0.01267  Uiso   1.00
H15    H     0.90700   0.22640   0.91050   0.01267  Uiso   1.00
H16    H     0.70140   0.00660   0.83110   0.01267  Uiso   1.00
C1     C     0.58740   0.61650   0.78910   0.01267  Uiso   1.00
C2     C     0.56600   0.59330   0.85150   0.01267  Uiso   1.00
C3     C     0.62820   0.51780   0.84280   0.01267  Uiso   1.00
C4     C     0.69880   0.46770   0.76970   0.01267  Uiso   1.00
C5     C     0.71630   0.49580   0.71110   0.01267  Uiso   1.00
C6     C     0.53350   0.69750   0.78950   0.01267  Uiso   1.00
C7     C     0.62710   0.49200   0.91080   0.01267  Uiso   1.00
C8     C     0.79560   0.45020   0.63020   0.01267  Uiso   1.00
C9     C     0.64550   0.68070   0.29530   0.01267  Uiso   1.00
C10    C     0.63670   0.68260   0.37090   0.01267  Uiso   1.00
C11    C     0.69560   0.61680   0.38540   0.01267  Uiso   1.00
C12    C     0.76250   0.55190   0.32260   0.01267  Uiso   1.00
C13    C     0.77410   0.55560   0.24910   0.01267  Uiso   1.00
C14    C     0.58000   0.74710   0.27090   0.01267  Uiso   1.00
C15    C     0.69560   0.61640   0.46660   0.01267  Uiso   1.00
C16    C     0.85500   0.49080   0.17600   0.01267  Uiso   1.00
C17    C     0.08740   0.88350   0.71090   0.01267  Uiso   1.00
C18    C     0.06600   0.90670   0.64850   0.01267  Uiso   1.00
C19    C     0.12820   0.98220   0.65720   0.01267  Uiso   1.00
C20    C     0.19880   0.03230   0.73030   0.01267  Uiso   1.00
C21    C     0.21630   0.00420   0.78890   0.01267  Uiso   1.00
C22    C     0.03350   0.80250   0.71050   0.01267  Uiso   1.00
C23    C     0.12710   0.00800   0.58920   0.01267  Uiso   1.00
C24    C     0.29560   0.04980   0.86980   0.01267  Uiso   1.00
C25    C     0.14550   0.81930   0.20470   0.01267  Uiso   1.00
C26    C     0.13670   0.81740   0.12910   0.01267  Uiso   1.00
C27    C     0.19560   0.88320   0.11460   0.01267  Uiso   1.00
C28    C     0.26250   0.94810   0.17740   0.01267  Uiso   1.00
C29    C     0.27410   0.94440   0.25090   0.01267  Uiso   1.00
C30    C     0.08000   0.75290   0.22910   0.01267  Uiso   1.00
C31    C     0.19560   0.88360   0.03340   0.01267  Uiso   1.00
C32    C     0.35500   0.00920   0.32400   0.01267  Uiso   1.00
C33    C     0.41260   0.38350   0.21090   0.01267  Uiso   1.00
C34    C     0.43400   0.40670   0.14850   0.01267  Uiso   1.00
C35    C     0.37180   0.48220   0.15720   0.01267  Uiso   1.00
C36    C     0.30120   0.53230   0.23030   0.01267  Uiso   1.00
C37    C     0.28370   0.50420   0.28890   0.01267  Uiso   1.00
C38    C     0.46650   0.30250   0.21050   0.01267  Uiso   1.00
C39    C     0.37290   0.50800   0.08920   0.01267  Uiso   1.00
C40    C     0.20440   0.54980   0.36980   0.01267  Uiso   1.00
C41    C     0.35450   0.31930   0.70470   0.01267  Uiso   1.00
C42    C     0.36330   0.31740   0.62910   0.01267  Uiso   1.00
C43    C     0.30440   0.38320   0.61460   0.01267  Uiso   1.00
C44    C     0.23750   0.44810   0.67740   0.01267  Uiso   1.00
C45    C     0.22590   0.44440   0.75090   0.01267  Uiso   1.00
C46    C     0.42000   0.25290   0.72910   0.01267  Uiso   1.00
C47    C     0.30440   0.38360   0.53340   0.01267  Uiso   1.00
C48    C     0.14500   0.50920   0.82400   0.01267  Uiso   1.00
C49    C     0.91260   0.11650   0.28910   0.01267  Uiso   1.00
C50    C     0.93400   0.09330   0.35150   0.01267  Uiso   1.00
C51    C     0.87180   0.01780   0.34280   0.01267  Uiso   1.00
C52    C     0.80120   0.96770   0.26970   0.01267  Uiso   1.00
C53    C     0.78370   0.99580   0.21110   0.01267  Uiso   1.00
C54    C     0.96650   0.19750   0.28950   0.01267  Uiso   1.00
C55    C     0.87290   0.99200   0.41080   0.01267  Uiso   1.00
C56    C     0.70440   0.95020   0.13020   0.01267  Uiso   1.00
C57    C     0.85450   0.18070   0.79530   0.01267  Uiso   1.00
C58    C     0.86330   0.18260   0.87090   0.01267  Uiso   1.00
C59    C     0.80440   0.11680   0.88540   0.01267  Uiso   1.00
C60    C     0.73750   0.05190   0.82260   0.01267  Uiso   1.00
C61    C     0.72590   0.05560   0.74910   0.01267  Uiso   1.00
C62    C     0.92000   0.24710   0.77090   0.01267  Uiso   1.00
C63    C     0.80440   0.11640   0.96660   0.01267  Uiso   1.00
C64    C     0.64500   0.99080   0.67600   0.01267  Uiso   1.00
N1     N     0.66810   0.57020   0.72050   0.01267  Uiso   1.00
N2     N     0.71530   0.61810   0.23540   0.01267  Uiso   1.00
N3     N     0.16810   0.92980   0.77950   0.01267  Uiso   1.00
N4     N     0.21530   0.88190   0.26460   0.01267  Uiso   1.00
N5     N     0.33190   0.42980   0.27950   0.01267  Uiso   1.00
N6     N     0.28470   0.38190   0.76460   0.01267  Uiso   1.00
N7     N     0.83190   0.07020   0.22050   0.01267  Uiso   1.00
N8     N     0.78470   0.11810   0.73540   0.01267  Uiso   1.00
O1     O     0.42590   0.74093   0.84179   0.01267  Uiso   1.00
O2     O     0.60810   0.71400   0.73449   0.01267  Uiso   1.00
O3     O     0.68470   0.54014   0.97474   0.01267  Uiso   1.00
O4     O     0.57390   0.42174   0.89791   0.01267  Uiso   1.00
O5     O     0.81880   0.37831   0.60897   0.01267  Uiso   1.00
O6     O     0.83250   0.49065   0.58858   0.01267  Uiso   1.00
O7     O     0.51030   0.80699   0.32318   0.01267  Uiso   1.00
O8     O     0.60020   0.73740   0.20005   0.01267  Uiso   1.00
O9     O     0.71490   0.55273   0.47630   0.01267  Uiso   1.00
O10    O     0.68400   0.68130   0.52451   0.01267  Uiso   1.00
O11    O     0.91430   0.42826   0.18020   0.01267  Uiso   1.00
O12    O     0.85450   0.50621   0.11466   0.01267  Uiso   1.00
O13    O     0.92590   0.75907   0.65821   0.01267  Uiso   1.00
O14    O     0.10810   0.78600   0.76551   0.01267  Uiso   1.00
O15    O     0.18470   0.95986   0.52526   0.01267  Uiso   1.00
O16    O     0.07390   0.07826   0.60209   0.01267  Uiso   1.00
O17    O     0.31880   0.12169   0.89103   0.01267  Uiso   1.00
O18    O     0.33250   0.00935   0.91142   0.01267  Uiso   1.00
O19    O     0.01030   0.69301   0.17682   0.01267  Uiso   1.00
O20    O     0.10020   0.76260   0.29995   0.01267  Uiso   1.00
O21    O     0.21490   0.94727   0.02370   0.01267  Uiso   1.00
O22    O     0.18400   0.81870   0.97549   0.01267  Uiso   1.00
O23    O     0.41430   0.07174   0.31980   0.01267  Uiso   1.00
O24    O     0.35450   0.99379   0.38534   0.01267  Uiso   1.00
O25    O     0.57410   0.25907   0.15821   0.01267  Uiso   1.00
O26    O     0.39190   0.28600   0.26551   0.01267  Uiso   1.00
O27    O     0.31530   0.45986   0.02526   0.01267  Uiso   1.00
O28    O     0.42610   0.57826   0.10209   0.01267  Uiso   1.00
O29    O     0.18120   0.62169   0.39103   0.01267  Uiso   1.00
O30    O     0.16750   0.50935   0.41142   0.01267  Uiso   1.00
O31    O     0.48970   0.19301   0.67682   0.01267  Uiso   1.00
O32    O     0.39980   0.26260   0.79995   0.01267  Uiso   1.00
O33    O     0.28510   0.44727   0.52370   0.01267  Uiso   1.00
O34    O     0.31600   0.31870   0.47549   0.01267  Uiso   1.00
O35    O     0.08570   0.57174   0.81980   0.01267  Uiso   1.00
O36    O     0.14550   0.49379   0.88534   0.01267  Uiso   1.00
O37    O     0.07410   0.24093   0.34179   0.01267  Uiso   1.00
O38    O     0.89190   0.21400   0.23449   0.01267  Uiso   1.00
O39    O     0.81530   0.04014   0.47474   0.01267  Uiso   1.00
O40    O     0.92610   0.92174   0.39791   0.01267  Uiso   1.00
O41    O     0.68120   0.87831   0.10897   0.01267  Uiso   1.00
O42    O     0.66750   0.99065   0.08858   0.01267  Uiso   1.00
O43    O     0.98970   0.30699   0.82318   0.01267  Uiso   1.00
O44    O     0.89980   0.23740   0.70005   0.01267  Uiso   1.00
O45    O     0.78510   0.05273   0.97630   0.01267  Uiso   1.00
O46    O     0.81600   0.18130   0.02451   0.01267  Uiso   1.00
O47    O     0.58570   0.92826   0.68020   0.01267  Uiso   1.00
O48    O     0.64550   0.00621   0.61466   0.01267  Uiso   1.00
