data_image0
_cell_length_a       13.504
_cell_length_b       7.4447
_cell_length_c       8.2059
_cell_angle_alpha    90
_cell_angle_beta     90
_cell_angle_gamma    90

_symmetry_space_group_name_H-M    "P 1"
_symmetry_int_tables_number       1

loop_
  _symmetry_equiv_pos_as_xyz
  'x, y, z'

loop_
  _atom_site_label
  _atom_site_occupancy
  _atom_site_fract_x
  _atom_site_fract_y
  _atom_site_fract_z
  _atom_site_thermal_displace_type
  _atom_site_B_iso_or_equiv
  _atom_site_type_symbol
  Cu1      1.0000 0.43512  0.15208  0.03785  Biso   1.000  Cu
  Cu2      1.0000 0.06663  0.15093  0.14566  Biso   1.000  Cu
  N1       1.0000 0.29300  0.16880  0.08040  Biso   1.000  N
  C1       1.0000 0.20890  0.17010  0.11070  Biso   1.000  C
  N2       1.0000 0.45970  0.50640  0.84680  Biso   1.000  N
  C2       1.0000 0.48550  0.42110  0.95510  Biso   1.000  C
  N3       1.0000 0.46280  0.99970  0.84760  Biso   1.000  N
  C3       1.0000 0.48350  0.91360  0.73630  Biso   1.000  C
  Cu3      1.0000 0.56488  0.84792  0.53785  Biso   1.000  Cu
  Cu4      1.0000 0.93337  0.84907  0.64566  Biso   1.000  Cu
  N4       1.0000 0.70700  0.83120  0.58040  Biso   1.000  N
  C4       1.0000 0.79110  0.82990  0.61070  Biso   1.000  C
  N5       1.0000 0.54030  0.49360  0.34680  Biso   1.000  N
  C5       1.0000 0.51450  0.57890  0.45510  Biso   1.000  C
  N6       1.0000 0.53720  0.00030  0.34760  Biso   1.000  N
  C6       1.0000 0.51650  0.08640  0.23630  Biso   1.000  C
  Cu5      1.0000 0.93512  0.34792  0.03785  Biso   1.000  Cu
  Cu6      1.0000 0.56663  0.34907  0.14566  Biso   1.000  Cu
  N7       1.0000 0.79300  0.33120  0.08040  Biso   1.000  N
  C7       1.0000 0.70890  0.32990  0.11070  Biso   1.000  C
  N8       1.0000 0.95970  0.99360  0.84680  Biso   1.000  N
  C8       1.0000 0.98550  0.07890  0.95510  Biso   1.000  C
  N9       1.0000 0.96280  0.50030  0.84760  Biso   1.000  N
  C9       1.0000 0.98350  0.58640  0.73630  Biso   1.000  C
  Cu7      1.0000 0.06488  0.65208  0.53785  Biso   1.000  Cu
  Cu8      1.0000 0.43337  0.65093  0.64566  Biso   1.000  Cu
  N10      1.0000 0.20700  0.66880  0.58040  Biso   1.000  N
  C10      1.0000 0.29110  0.67010  0.61070  Biso   1.000  C
  N11      1.0000 0.04030  0.00640  0.34680  Biso   1.000  N
  C11      1.0000 0.01450  0.92110  0.45510  Biso   1.000  C
  N12      1.0000 0.03720  0.49970  0.34760  Biso   1.000  N
  C12      1.0000 0.01650  0.41360  0.23630  Biso   1.000  C
