data_image0
_cell_length_a       12.848
_cell_length_b       13.37
_cell_length_c       13.967
_cell_angle_alpha    90
_cell_angle_beta     90
_cell_angle_gamma    90

_symmetry_space_group_name_H-M    "P 1"
_symmetry_int_tables_number       1

loop_
  _symmetry_equiv_pos_as_xyz
  'x, y, z'

loop_
  _atom_site_label
  _atom_site_occupancy
  _atom_site_fract_x
  _atom_site_fract_y
  _atom_site_fract_z
  _atom_site_thermal_displace_type
  _atom_site_B_iso_or_equiv
  _atom_site_type_symbol
  Cu1      1.0000 0.39472  0.18663  0.63628  Biso   1.000  Cu
  Cu2      1.0000 0.54851  0.05078  0.94170  Biso   1.000  Cu
  C1       1.0000 0.46395  0.13169  0.74539  Biso   1.000  C
  N1       1.0000 0.49498  0.09973  0.81703  Biso   1.000  N
  C2       1.0000 0.45686  0.39350  0.55453  Biso   1.000  C
  N2       1.0000 0.42683  0.32222  0.59089  Biso   1.000  N
  C3       1.0000 0.27699  0.12684  0.57220  Biso   1.000  C
  N3       1.0000 0.19587  0.09534  0.55300  Biso   1.000  N
  Cu3      1.0000 0.10528  0.81337  0.13628  Biso   1.000  Cu
  Cu4      1.0000 0.95149  0.94922  0.44170  Biso   1.000  Cu
  C4       1.0000 0.03605  0.86831  0.24539  Biso   1.000  C
  N4       1.0000 0.00502  0.90027  0.31703  Biso   1.000  N
  C5       1.0000 0.04314  0.60650  0.05453  Biso   1.000  C
  N5       1.0000 0.07317  0.67778  0.09089  Biso   1.000  N
  C6       1.0000 0.22301  0.87316  0.07220  Biso   1.000  C
  N6       1.0000 0.30413  0.90466  0.05300  Biso   1.000  N
  Cu5      1.0000 0.60528  0.68663  0.86372  Biso   1.000  Cu
  Cu6      1.0000 0.45149  0.55078  0.55830  Biso   1.000  Cu
  C7       1.0000 0.53605  0.63169  0.75461  Biso   1.000  C
  N7       1.0000 0.50502  0.59973  0.68297  Biso   1.000  N
  C8       1.0000 0.54314  0.89350  0.94547  Biso   1.000  C
  N8       1.0000 0.57317  0.82222  0.90911  Biso   1.000  N
  C9       1.0000 0.72301  0.62684  0.92780  Biso   1.000  C
  N9       1.0000 0.80413  0.59534  0.94700  Biso   1.000  N
  Cu7      1.0000 0.89472  0.31337  0.36372  Biso   1.000  Cu
  Cu8      1.0000 0.04851  0.44922  0.05830  Biso   1.000  Cu
  C10      1.0000 0.96395  0.36831  0.25461  Biso   1.000  C
  N10      1.0000 0.99498  0.40027  0.18297  Biso   1.000  N
  C11      1.0000 0.95686  0.10650  0.44547  Biso   1.000  C
  N11      1.0000 0.92683  0.17778  0.40911  Biso   1.000  N
  C12      1.0000 0.77699  0.37316  0.42780  Biso   1.000  C
  N12      1.0000 0.69587  0.40466  0.44700  Biso   1.000  N
  Cu9      1.0000 0.60528  0.81337  0.36372  Biso   1.000  Cu
  Cu10     1.0000 0.45149  0.94922  0.05830  Biso   1.000  Cu
  C13      1.0000 0.53605  0.86831  0.25461  Biso   1.000  C
  N13      1.0000 0.50502  0.90027  0.18297  Biso   1.000  N
  C14      1.0000 0.54314  0.60650  0.44547  Biso   1.000  C
  N14      1.0000 0.57317  0.67778  0.40911  Biso   1.000  N
  C15      1.0000 0.72301  0.87316  0.42780  Biso   1.000  C
  N15      1.0000 0.80413  0.90466  0.44700  Biso   1.000  N
  Cu11     1.0000 0.89472  0.18663  0.86372  Biso   1.000  Cu
  Cu12     1.0000 0.04851  0.05078  0.55830  Biso   1.000  Cu
  C16      1.0000 0.96395  0.13169  0.75461  Biso   1.000  C
  N16      1.0000 0.99498  0.09973  0.68297  Biso   1.000  N
  C17      1.0000 0.95686  0.39350  0.94547  Biso   1.000  C
  N17      1.0000 0.92683  0.32222  0.90911  Biso   1.000  N
  C18      1.0000 0.77699  0.12684  0.92780  Biso   1.000  C
  N18      1.0000 0.69587  0.09534  0.94700  Biso   1.000  N
  Cu13     1.0000 0.39472  0.31337  0.13628  Biso   1.000  Cu
  Cu14     1.0000 0.54851  0.44922  0.44170  Biso   1.000  Cu
  C19      1.0000 0.46395  0.36831  0.24539  Biso   1.000  C
  N19      1.0000 0.49498  0.40027  0.31703  Biso   1.000  N
  C20      1.0000 0.45686  0.10650  0.05453  Biso   1.000  C
  N20      1.0000 0.42683  0.17778  0.09089  Biso   1.000  N
  C21      1.0000 0.27699  0.37316  0.07220  Biso   1.000  C
  N21      1.0000 0.19587  0.40466  0.05300  Biso   1.000  N
  Cu15     1.0000 0.10528  0.68663  0.63628  Biso   1.000  Cu
  Cu16     1.0000 0.95149  0.55078  0.94170  Biso   1.000  Cu
  C22      1.0000 0.03605  0.63169  0.74539  Biso   1.000  C
  N22      1.0000 0.00502  0.59973  0.81703  Biso   1.000  N
  C23      1.0000 0.04314  0.89350  0.55453  Biso   1.000  C
  N23      1.0000 0.07317  0.82222  0.59089  Biso   1.000  N
  C24      1.0000 0.22301  0.62684  0.57220  Biso   1.000  C
  N24      1.0000 0.30413  0.59534  0.55300  Biso   1.000  N
