data_ITETEH_clean
_audit_creation_date              2014-07-02
_audit_creation_method            'Materials Studio'
_symmetry_space_group_name_H-M    'P1'
_symmetry_Int_Tables_number       1
_symmetry_cell_setting            triclinic
loop_
_symmetry_equiv_pos_as_xyz
  x,y,z
_cell_length_a                    8.6716
_cell_length_b                    8.6716
_cell_length_c                    10.8650
_cell_angle_alpha                 90.0000
_cell_angle_beta                  90.0000
_cell_angle_gamma                 120.0000
loop_
_atom_site_label
_atom_site_type_symbol
_atom_site_fract_x
_atom_site_fract_y
_atom_site_fract_z
_atom_site_U_iso_or_equiv
_atom_site_adp_type
_atom_site_occupancy
Fe1    Fe    0.94182   0.00000   0.50000   0.01267  Uiso   1.00
Fe2    Fe    0.05818   0.05818   0.16667   0.01267  Uiso   1.00
Fe3    Fe    0.00000   0.94182   0.83333   0.01267  Uiso   1.00
H1     H     0.39080   0.48820   0.49020   0.01267  Uiso   1.00
H2     H     0.09740   0.60920   0.15687   0.01267  Uiso   1.00
H3     H     0.51180   0.90260   0.82353   0.01267  Uiso   1.00
H4     H     0.90260   0.51180   0.50980   0.01267  Uiso   1.00
H5     H     0.48820   0.39080   0.84313   0.01267  Uiso   1.00
H6     H     0.60920   0.09740   0.17647   0.01267  Uiso   1.00
C1     C     0.62460   0.68520   0.56250   0.01267  Uiso   1.00
C2     C     0.46510   0.52430   0.56090   0.01267  Uiso   1.00
C3     C     0.06060   0.37540   0.22917   0.01267  Uiso   1.00
C4     C     0.05920   0.53490   0.22757   0.01267  Uiso   1.00
C5     C     0.31480   0.93940   0.89583   0.01267  Uiso   1.00
C6     C     0.47570   0.94080   0.89423   0.01267  Uiso   1.00
C7     C     0.93940   0.31480   0.43750   0.01267  Uiso   1.00
C8     C     0.94080   0.47570   0.43910   0.01267  Uiso   1.00
C9     C     0.68520   0.62460   0.77083   0.01267  Uiso   1.00
C10    C     0.52430   0.46510   0.77243   0.01267  Uiso   1.00
C11    C     0.37540   0.06060   0.10417   0.01267  Uiso   1.00
C12    C     0.53490   0.05920   0.10577   0.01267  Uiso   1.00
C13    C     0.73060   0.73060   0.66667   0.01267  Uiso   1.00
C14    C     0.41640   0.41640   0.66667   0.01267  Uiso   1.00
C15    C     0.24530   0.24530   0.66667   0.01267  Uiso   1.00
C16    C     0.00000   0.26940   0.33333   0.01267  Uiso   1.00
C17    C     0.00000   0.58360   0.33333   0.01267  Uiso   1.00
C18    C     1.00000   0.75470   0.33333   0.01267  Uiso   1.00
C19    C     0.26940   1.00000   0.00000   0.01267  Uiso   1.00
C20    C     0.58360   0.00000   1.00000   0.01267  Uiso   1.00
C21    C     0.75470   1.00000   0.00000   0.01267  Uiso   1.00
O1     O     0.68710   0.80750   0.47030   0.01267  Uiso   1.00
O2     O     0.18910   0.16640   0.56470   0.01267  Uiso   1.00
O3     O     0.12040   0.31290   0.13697   0.01267  Uiso   1.00
O4     O     0.97730   0.81090   0.23137   0.01267  Uiso   1.00
O5     O     0.19250   0.87960   0.80363   0.01267  Uiso   1.00
O6     O     0.83360   0.02270   0.89803   0.01267  Uiso   1.00
O7     O     0.87960   0.19250   0.52970   0.01267  Uiso   1.00
O8     O     0.02270   0.83360   0.43530   0.01267  Uiso   1.00
O9     O     0.80750   0.68710   0.86303   0.01267  Uiso   1.00
O10    O     0.16640   0.18910   0.76863   0.01267  Uiso   1.00
O11    O     0.31290   0.12040   0.19637   0.01267  Uiso   1.00
O12    O     0.81090   0.97730   0.10197   0.01267  Uiso   1.00
O13    O     0.88740   0.88740   0.66667   0.01267  Uiso   1.00
O14    O     0.00000   0.11260   0.33333   0.01267  Uiso   1.00
O15    O     0.11260   1.00000   0.00000   0.01267  Uiso   1.00
