data_image0
_cell_length_a       18.4202
_cell_length_b       9.551
_cell_length_c       33.879
_cell_angle_alpha    90
_cell_angle_beta     92.718
_cell_angle_gamma    90

_symmetry_space_group_name_H-M    "P 1"
_symmetry_int_tables_number       1

loop_
  _symmetry_equiv_pos_as_xyz
  'x, y, z'

loop_
  _atom_site_label
  _atom_site_occupancy
  _atom_site_fract_x
  _atom_site_fract_y
  _atom_site_fract_z
  _atom_site_thermal_displace_type
  _atom_site_B_iso_or_equiv
  _atom_site_type_symbol
  Mn1      1.0000 0.47987  0.64725  0.02827  Biso   1.000  Mn
  C1       1.0000 0.61070  0.83150  0.05090  Biso   1.000  C
  C2       1.0000 0.66600  0.87100  0.08330  Biso   1.000  C
  C3       1.0000 0.71760  0.97160  0.07670  Biso   1.000  C
  H1       1.0000 0.71720  0.01620  0.05230  Biso   1.000  H
  C4       1.0000 0.76980  0.00780  0.10530  Biso   1.000  C
  H2       1.0000 0.80540  0.07310  0.10000  Biso   1.000  H
  C5       1.0000 0.76820  0.94560  0.14180  Biso   1.000  C
  C6       1.0000 0.71600  0.84600  0.14950  Biso   1.000  C
  H3       1.0000 0.71510  0.80500  0.17430  Biso   1.000  H
  C7       1.0000 0.66580  0.80780  0.12010  Biso   1.000  C
  H4       1.0000 0.63150  0.73920  0.12500  Biso   1.000  H
  C8       1.0000 0.98710  0.81080  0.44990  Biso   1.000  C
  C9       1.0000 0.96880  0.80510  0.40780  Biso   1.000  C
  C10      1.0000 0.98390  0.91630  0.38260  Biso   1.000  C
  H5       1.0000 0.00740  0.99520  0.39300  Biso   1.000  H
  C11      1.0000 0.96520  0.91240  0.34330  Biso   1.000  C
  H6       1.0000 0.97600  0.98690  0.32690  Biso   1.000  H
  C12      1.0000 0.92940  0.79370  0.32810  Biso   1.000  C
  C13      1.0000 0.91510  0.68280  0.35170  Biso   1.000  C
  H7       1.0000 0.89240  0.60350  0.34110  Biso   1.000  H
  C14      1.0000 0.93410  0.68810  0.39100  Biso   1.000  C
  H8       1.0000 0.92370  0.61220  0.40700  Biso   1.000  H
  C15      1.0000 0.56900  0.85190  0.41880  Biso   1.000  C
  C16      1.0000 0.59830  0.91130  0.38200  Biso   1.000  C
  C17      1.0000 0.62060  0.82160  0.35290  Biso   1.000  C
  H9       1.0000 0.61330  0.72580  0.35550  Biso   1.000  H
  C18      1.0000 0.65400  0.87330  0.31980  Biso   1.000  C
  H10      1.0000 0.66780  0.81310  0.29990  Biso   1.000  H
  C19      1.0000 0.66620  0.01560  0.31700  Biso   1.000  C
  C20      1.0000 0.64070  0.10590  0.34500  Biso   1.000  C
  H11      1.0000 0.64630  0.20210  0.34200  Biso   1.000  H
  C21      1.0000 0.60690  0.05390  0.37750  Biso   1.000  C
  H12      1.0000 0.58990  0.11500  0.39630  Biso   1.000  H
  C22      1.0000 0.81530  0.96150  0.20890  Biso   1.000  C
  C23      1.0000 0.86890  0.88690  0.22920  Biso   1.000  C
  H13      1.0000 0.90720  0.84700  0.21630  Biso   1.000  H
  C24      1.0000 0.86390  0.87320  0.26910  Biso   1.000  C
  C25      1.0000 0.80780  0.93190  0.28920  Biso   1.000  C
  H14      1.0000 0.80560  0.92100  0.31640  Biso   1.000  H
  C26      1.0000 0.75570  0.00620  0.26810  Biso   1.000  C
  C27      1.0000 0.75860  0.02430  0.22770  Biso   1.000  C
  H15      1.0000 0.72360  0.07670  0.21360  Biso   1.000  H
  O1       1.0000 0.59850  0.91890  0.02441  Biso   1.000  O
  O2       1.0000 0.58200  0.71090  0.05311  Biso   1.000  O
  O3       1.0000 0.01010  0.92510  0.46540  Biso   1.000  O
  O4       1.0000 0.97530  0.70810  0.47258  Biso   1.000  O
  O5       1.0000 0.56500  0.72120  0.42120  Biso   1.000  O
  O6       1.0000 0.55160  0.93130  0.44610  Biso   1.000  O
  O7       1.0000 0.82410  0.98250  0.16857  Biso   1.000  O
  O8       1.0000 0.91550  0.78370  0.28772  Biso   1.000  O
  O9       1.0000 0.69940  0.07530  0.28530  Biso   1.000  O
  Mn2      1.0000 0.97987  0.14725  0.02827  Biso   1.000  Mn
  C28      1.0000 0.11070  0.33150  0.05090  Biso   1.000  C
  C29      1.0000 0.16600  0.37100  0.08330  Biso   1.000  C
  C30      1.0000 0.21760  0.47160  0.07670  Biso   1.000  C
  H16      1.0000 0.21720  0.51620  0.05230  Biso   1.000  H
  C31      1.0000 0.26980  0.50780  0.10530  Biso   1.000  C
  H17      1.0000 0.30540  0.57310  0.10000  Biso   1.000  H
  C32      1.0000 0.26820  0.44560  0.14180  Biso   1.000  C
  C33      1.0000 0.21600  0.34600  0.14950  Biso   1.000  C
  H18      1.0000 0.21510  0.30500  0.17430  Biso   1.000  H
  C34      1.0000 0.16580  0.30780  0.12010  Biso   1.000  C
  H19      1.0000 0.13150  0.23920  0.12500  Biso   1.000  H
  C35      1.0000 0.48710  0.31080  0.44990  Biso   1.000  C
  C36      1.0000 0.46880  0.30510  0.40780  Biso   1.000  C
  C37      1.0000 0.48390  0.41630  0.38260  Biso   1.000  C
  H20      1.0000 0.50740  0.49520  0.39300  Biso   1.000  H
  C38      1.0000 0.46520  0.41240  0.34330  Biso   1.000  C
  H21      1.0000 0.47600  0.48690  0.32690  Biso   1.000  H
  C39      1.0000 0.42940  0.29370  0.32810  Biso   1.000  C
  C40      1.0000 0.41510  0.18280  0.35170  Biso   1.000  C
  H22      1.0000 0.39240  0.10350  0.34110  Biso   1.000  H
  C41      1.0000 0.43410  0.18810  0.39100  Biso   1.000  C
  H23      1.0000 0.42370  0.11220  0.40700  Biso   1.000  H
  C42      1.0000 0.06900  0.35190  0.41880  Biso   1.000  C
  C43      1.0000 0.09830  0.41130  0.38200  Biso   1.000  C
  C44      1.0000 0.12060  0.32160  0.35290  Biso   1.000  C
  H24      1.0000 0.11330  0.22580  0.35550  Biso   1.000  H
  C45      1.0000 0.15400  0.37330  0.31980  Biso   1.000  C
  H25      1.0000 0.16780  0.31310  0.29990  Biso   1.000  H
  C46      1.0000 0.16620  0.51560  0.31700  Biso   1.000  C
  C47      1.0000 0.14070  0.60590  0.34500  Biso   1.000  C
  H26      1.0000 0.14630  0.70210  0.34200  Biso   1.000  H
  C48      1.0000 0.10690  0.55390  0.37750  Biso   1.000  C
  H27      1.0000 0.08990  0.61500  0.39630  Biso   1.000  H
  C49      1.0000 0.31530  0.46150  0.20890  Biso   1.000  C
  C50      1.0000 0.36890  0.38690  0.22920  Biso   1.000  C
  H28      1.0000 0.40720  0.34700  0.21630  Biso   1.000  H
  C51      1.0000 0.36390  0.37320  0.26910  Biso   1.000  C
  C52      1.0000 0.30780  0.43190  0.28920  Biso   1.000  C
  H29      1.0000 0.30560  0.42100  0.31640  Biso   1.000  H
  C53      1.0000 0.25570  0.50620  0.26810  Biso   1.000  C
  C54      1.0000 0.25860  0.52430  0.22770  Biso   1.000  C
  H30      1.0000 0.22360  0.57670  0.21360  Biso   1.000  H
  O10      1.0000 0.09850  0.41890  0.02441  Biso   1.000  O
  O11      1.0000 0.08200  0.21090  0.05311  Biso   1.000  O
  O12      1.0000 0.51010  0.42510  0.46540  Biso   1.000  O
  O13      1.0000 0.47530  0.20810  0.47258  Biso   1.000  O
  O14      1.0000 0.06500  0.22120  0.42120  Biso   1.000  O
  O15      1.0000 0.05160  0.43130  0.44610  Biso   1.000  O
  O16      1.0000 0.32410  0.48250  0.16857  Biso   1.000  O
  O17      1.0000 0.41550  0.28370  0.28772  Biso   1.000  O
  O18      1.0000 0.19940  0.57530  0.28530  Biso   1.000  O
  Mn3      1.0000 0.52013  0.64725  0.47173  Biso   1.000  Mn
  C55      1.0000 0.38930  0.83150  0.44910  Biso   1.000  C
  C56      1.0000 0.33400  0.87100  0.41670  Biso   1.000  C
  C57      1.0000 0.28240  0.97160  0.42330  Biso   1.000  C
  H31      1.0000 0.28280  0.01620  0.44770  Biso   1.000  H
  C58      1.0000 0.23020  0.00780  0.39470  Biso   1.000  C
  H32      1.0000 0.19460  0.07310  0.40000  Biso   1.000  H
  C59      1.0000 0.23180  0.94560  0.35820  Biso   1.000  C
  C60      1.0000 0.28400  0.84600  0.35050  Biso   1.000  C
  H33      1.0000 0.28490  0.80500  0.32570  Biso   1.000  H
  C61      1.0000 0.33420  0.80780  0.37990  Biso   1.000  C
  H34      1.0000 0.36850  0.73920  0.37500  Biso   1.000  H
  C62      1.0000 0.01290  0.81080  0.05010  Biso   1.000  C
  C63      1.0000 0.03120  0.80510  0.09220  Biso   1.000  C
  C64      1.0000 0.01610  0.91630  0.11740  Biso   1.000  C
  H35      1.0000 0.99260  0.99520  0.10700  Biso   1.000  H
  C65      1.0000 0.03480  0.91240  0.15670  Biso   1.000  C
  H36      1.0000 0.02400  0.98690  0.17310  Biso   1.000  H
  C66      1.0000 0.07060  0.79370  0.17190  Biso   1.000  C
  C67      1.0000 0.08490  0.68280  0.14830  Biso   1.000  C
  H37      1.0000 0.10760  0.60350  0.15890  Biso   1.000  H
  C68      1.0000 0.06590  0.68810  0.10900  Biso   1.000  C
  H38      1.0000 0.07630  0.61220  0.09300  Biso   1.000  H
  C69      1.0000 0.43100  0.85190  0.08120  Biso   1.000  C
  C70      1.0000 0.40170  0.91130  0.11800  Biso   1.000  C
  C71      1.0000 0.37940  0.82160  0.14710  Biso   1.000  C
  H39      1.0000 0.38670  0.72580  0.14450  Biso   1.000  H
  C72      1.0000 0.34600  0.87330  0.18020  Biso   1.000  C
  H40      1.0000 0.33220  0.81310  0.20010  Biso   1.000  H
  C73      1.0000 0.33380  0.01560  0.18300  Biso   1.000  C
  C74      1.0000 0.35930  0.10590  0.15500  Biso   1.000  C
  H41      1.0000 0.35370  0.20210  0.15800  Biso   1.000  H
  C75      1.0000 0.39310  0.05390  0.12250  Biso   1.000  C
  H42      1.0000 0.41010  0.11500  0.10370  Biso   1.000  H
  C76      1.0000 0.18470  0.96150  0.29110  Biso   1.000  C
  C77      1.0000 0.13110  0.88690  0.27080  Biso   1.000  C
  H43      1.0000 0.09280  0.84700  0.28370  Biso   1.000  H
  C78      1.0000 0.13610  0.87320  0.23090  Biso   1.000  C
  C79      1.0000 0.19220  0.93190  0.21080  Biso   1.000  C
  H44      1.0000 0.19440  0.92100  0.18360  Biso   1.000  H
  C80      1.0000 0.24430  0.00620  0.23190  Biso   1.000  C
  C81      1.0000 0.24140  0.02430  0.27230  Biso   1.000  C
  H45      1.0000 0.27640  0.07670  0.28640  Biso   1.000  H
  O19      1.0000 0.40150  0.91890  0.47559  Biso   1.000  O
  O20      1.0000 0.41800  0.71090  0.44689  Biso   1.000  O
  O21      1.0000 0.98990  0.92510  0.03460  Biso   1.000  O
  O22      1.0000 0.02470  0.70810  0.02742  Biso   1.000  O
  O23      1.0000 0.43500  0.72120  0.07880  Biso   1.000  O
  O24      1.0000 0.44840  0.93130  0.05390  Biso   1.000  O
  O25      1.0000 0.17590  0.98250  0.33143  Biso   1.000  O
  O26      1.0000 0.08450  0.78370  0.21228  Biso   1.000  O
  O27      1.0000 0.30060  0.07530  0.21470  Biso   1.000  O
  Mn4      1.0000 0.02013  0.14725  0.47173  Biso   1.000  Mn
  C82      1.0000 0.88930  0.33150  0.44910  Biso   1.000  C
  C83      1.0000 0.83400  0.37100  0.41670  Biso   1.000  C
  C84      1.0000 0.78240  0.47160  0.42330  Biso   1.000  C
  H46      1.0000 0.78280  0.51620  0.44770  Biso   1.000  H
  C85      1.0000 0.73020  0.50780  0.39470  Biso   1.000  C
  H47      1.0000 0.69460  0.57310  0.40000  Biso   1.000  H
  C86      1.0000 0.73180  0.44560  0.35820  Biso   1.000  C
  C87      1.0000 0.78400  0.34600  0.35050  Biso   1.000  C
  H48      1.0000 0.78490  0.30500  0.32570  Biso   1.000  H
  C88      1.0000 0.83420  0.30780  0.37990  Biso   1.000  C
  H49      1.0000 0.86850  0.23920  0.37500  Biso   1.000  H
  C89      1.0000 0.51290  0.31080  0.05010  Biso   1.000  C
  C90      1.0000 0.53120  0.30510  0.09220  Biso   1.000  C
  C91      1.0000 0.51610  0.41630  0.11740  Biso   1.000  C
  H50      1.0000 0.49260  0.49520  0.10700  Biso   1.000  H
  C92      1.0000 0.53480  0.41240  0.15670  Biso   1.000  C
  H51      1.0000 0.52400  0.48690  0.17310  Biso   1.000  H
  C93      1.0000 0.57060  0.29370  0.17190  Biso   1.000  C
  C94      1.0000 0.58490  0.18280  0.14830  Biso   1.000  C
  H52      1.0000 0.60760  0.10350  0.15890  Biso   1.000  H
  C95      1.0000 0.56590  0.18810  0.10900  Biso   1.000  C
  H53      1.0000 0.57630  0.11220  0.09300  Biso   1.000  H
  C96      1.0000 0.93100  0.35190  0.08120  Biso   1.000  C
  C97      1.0000 0.90170  0.41130  0.11800  Biso   1.000  C
  C98      1.0000 0.87940  0.32160  0.14710  Biso   1.000  C
  H54      1.0000 0.88670  0.22580  0.14450  Biso   1.000  H
  C99      1.0000 0.84600  0.37330  0.18020  Biso   1.000  C
  H55      1.0000 0.83220  0.31310  0.20010  Biso   1.000  H
  C100     1.0000 0.83380  0.51560  0.18300  Biso   1.000  C
  C101     1.0000 0.85930  0.60590  0.15500  Biso   1.000  C
  H56      1.0000 0.85370  0.70210  0.15800  Biso   1.000  H
  C102     1.0000 0.89310  0.55390  0.12250  Biso   1.000  C
  H57      1.0000 0.91010  0.61500  0.10370  Biso   1.000  H
  C103     1.0000 0.68470  0.46150  0.29110  Biso   1.000  C
  C104     1.0000 0.63110  0.38690  0.27080  Biso   1.000  C
  H58      1.0000 0.59280  0.34700  0.28370  Biso   1.000  H
  C105     1.0000 0.63610  0.37320  0.23090  Biso   1.000  C
  C106     1.0000 0.69220  0.43190  0.21080  Biso   1.000  C
  H59      1.0000 0.69440  0.42100  0.18360  Biso   1.000  H
  C107     1.0000 0.74430  0.50620  0.23190  Biso   1.000  C
  C108     1.0000 0.74140  0.52430  0.27230  Biso   1.000  C
  H60      1.0000 0.77640  0.57670  0.28640  Biso   1.000  H
  O28      1.0000 0.90150  0.41890  0.47559  Biso   1.000  O
  O29      1.0000 0.91800  0.21090  0.44689  Biso   1.000  O
  O30      1.0000 0.48990  0.42510  0.03460  Biso   1.000  O
  O31      1.0000 0.52470  0.20810  0.02742  Biso   1.000  O
  O32      1.0000 0.93500  0.22120  0.07880  Biso   1.000  O
  O33      1.0000 0.94840  0.43130  0.05390  Biso   1.000  O
  O34      1.0000 0.67590  0.48250  0.33143  Biso   1.000  O
  O35      1.0000 0.58450  0.28370  0.21228  Biso   1.000  O
  O36      1.0000 0.80060  0.57530  0.21470  Biso   1.000  O
  Mn5      1.0000 0.52013  0.35275  0.97173  Biso   1.000  Mn
  C109     1.0000 0.38930  0.16850  0.94910  Biso   1.000  C
  C110     1.0000 0.33400  0.12900  0.91670  Biso   1.000  C
  C111     1.0000 0.28240  0.02840  0.92330  Biso   1.000  C
  H61      1.0000 0.28280  0.98380  0.94770  Biso   1.000  H
  C112     1.0000 0.23020  0.99220  0.89470  Biso   1.000  C
  H62      1.0000 0.19460  0.92690  0.90000  Biso   1.000  H
  C113     1.0000 0.23180  0.05440  0.85820  Biso   1.000  C
  C114     1.0000 0.28400  0.15400  0.85050  Biso   1.000  C
  H63      1.0000 0.28490  0.19500  0.82570  Biso   1.000  H
  C115     1.0000 0.33420  0.19220  0.87990  Biso   1.000  C
  H64      1.0000 0.36850  0.26080  0.87500  Biso   1.000  H
  C116     1.0000 0.01290  0.18920  0.55010  Biso   1.000  C
  C117     1.0000 0.03120  0.19490  0.59220  Biso   1.000  C
  C118     1.0000 0.01610  0.08370  0.61740  Biso   1.000  C
  H65      1.0000 0.99260  0.00480  0.60700  Biso   1.000  H
  C119     1.0000 0.03480  0.08760  0.65670  Biso   1.000  C
  H66      1.0000 0.02400  0.01310  0.67310  Biso   1.000  H
  C120     1.0000 0.07060  0.20630  0.67190  Biso   1.000  C
  C121     1.0000 0.08490  0.31720  0.64830  Biso   1.000  C
  H67      1.0000 0.10760  0.39650  0.65890  Biso   1.000  H
  C122     1.0000 0.06590  0.31190  0.60900  Biso   1.000  C
  H68      1.0000 0.07630  0.38780  0.59300  Biso   1.000  H
  C123     1.0000 0.43100  0.14810  0.58120  Biso   1.000  C
  C124     1.0000 0.40170  0.08870  0.61800  Biso   1.000  C
  C125     1.0000 0.37940  0.17840  0.64710  Biso   1.000  C
  H69      1.0000 0.38670  0.27420  0.64450  Biso   1.000  H
  C126     1.0000 0.34600  0.12670  0.68020  Biso   1.000  C
  H70      1.0000 0.33220  0.18690  0.70010  Biso   1.000  H
  C127     1.0000 0.33380  0.98440  0.68300  Biso   1.000  C
  C128     1.0000 0.35930  0.89410  0.65500  Biso   1.000  C
  H71      1.0000 0.35370  0.79790  0.65800  Biso   1.000  H
  C129     1.0000 0.39310  0.94610  0.62250  Biso   1.000  C
  H72      1.0000 0.41010  0.88500  0.60370  Biso   1.000  H
  C130     1.0000 0.18470  0.03850  0.79110  Biso   1.000  C
  C131     1.0000 0.13110  0.11310  0.77080  Biso   1.000  C
  H73      1.0000 0.09280  0.15300  0.78370  Biso   1.000  H
  C132     1.0000 0.13610  0.12680  0.73090  Biso   1.000  C
  C133     1.0000 0.19220  0.06810  0.71080  Biso   1.000  C
  H74      1.0000 0.19440  0.07900  0.68360  Biso   1.000  H
  C134     1.0000 0.24430  0.99380  0.73190  Biso   1.000  C
  C135     1.0000 0.24140  0.97570  0.77230  Biso   1.000  C
  H75      1.0000 0.27640  0.92330  0.78640  Biso   1.000  H
  O37      1.0000 0.40150  0.08110  0.97559  Biso   1.000  O
  O38      1.0000 0.41800  0.28910  0.94689  Biso   1.000  O
  O39      1.0000 0.98990  0.07490  0.53460  Biso   1.000  O
  O40      1.0000 0.02470  0.29190  0.52742  Biso   1.000  O
  O41      1.0000 0.43500  0.27880  0.57880  Biso   1.000  O
  O42      1.0000 0.44840  0.06870  0.55390  Biso   1.000  O
  O43      1.0000 0.17590  0.01750  0.83143  Biso   1.000  O
  O44      1.0000 0.08450  0.21630  0.71228  Biso   1.000  O
  O45      1.0000 0.30060  0.92470  0.71470  Biso   1.000  O
  Mn6      1.0000 0.02013  0.85275  0.97173  Biso   1.000  Mn
  C136     1.0000 0.88930  0.66850  0.94910  Biso   1.000  C
  C137     1.0000 0.83400  0.62900  0.91670  Biso   1.000  C
  C138     1.0000 0.78240  0.52840  0.92330  Biso   1.000  C
  H76      1.0000 0.78280  0.48380  0.94770  Biso   1.000  H
  C139     1.0000 0.73020  0.49220  0.89470  Biso   1.000  C
  H77      1.0000 0.69460  0.42690  0.90000  Biso   1.000  H
  C140     1.0000 0.73180  0.55440  0.85820  Biso   1.000  C
  C141     1.0000 0.78400  0.65400  0.85050  Biso   1.000  C
  H78      1.0000 0.78490  0.69500  0.82570  Biso   1.000  H
  C142     1.0000 0.83420  0.69220  0.87990  Biso   1.000  C
  H79      1.0000 0.86850  0.76080  0.87500  Biso   1.000  H
  C143     1.0000 0.51290  0.68920  0.55010  Biso   1.000  C
  C144     1.0000 0.53120  0.69490  0.59220  Biso   1.000  C
  C145     1.0000 0.51610  0.58370  0.61740  Biso   1.000  C
  H80      1.0000 0.49260  0.50480  0.60700  Biso   1.000  H
  C146     1.0000 0.53480  0.58760  0.65670  Biso   1.000  C
  H81      1.0000 0.52400  0.51310  0.67310  Biso   1.000  H
  C147     1.0000 0.57060  0.70630  0.67190  Biso   1.000  C
  C148     1.0000 0.58490  0.81720  0.64830  Biso   1.000  C
  H82      1.0000 0.60760  0.89650  0.65890  Biso   1.000  H
  C149     1.0000 0.56590  0.81190  0.60900  Biso   1.000  C
  H83      1.0000 0.57630  0.88780  0.59300  Biso   1.000  H
  C150     1.0000 0.93100  0.64810  0.58120  Biso   1.000  C
  C151     1.0000 0.90170  0.58870  0.61800  Biso   1.000  C
  C152     1.0000 0.87940  0.67840  0.64710  Biso   1.000  C
  H84      1.0000 0.88670  0.77420  0.64450  Biso   1.000  H
  C153     1.0000 0.84600  0.62670  0.68020  Biso   1.000  C
  H85      1.0000 0.83220  0.68690  0.70010  Biso   1.000  H
  C154     1.0000 0.83380  0.48440  0.68300  Biso   1.000  C
  C155     1.0000 0.85930  0.39410  0.65500  Biso   1.000  C
  H86      1.0000 0.85370  0.29790  0.65800  Biso   1.000  H
  C156     1.0000 0.89310  0.44610  0.62250  Biso   1.000  C
  H87      1.0000 0.91010  0.38500  0.60370  Biso   1.000  H
  C157     1.0000 0.68470  0.53850  0.79110  Biso   1.000  C
  C158     1.0000 0.63110  0.61310  0.77080  Biso   1.000  C
  H88      1.0000 0.59280  0.65300  0.78370  Biso   1.000  H
  C159     1.0000 0.63610  0.62680  0.73090  Biso   1.000  C
  C160     1.0000 0.69220  0.56810  0.71080  Biso   1.000  C
  H89      1.0000 0.69440  0.57900  0.68360  Biso   1.000  H
  C161     1.0000 0.74430  0.49380  0.73190  Biso   1.000  C
  C162     1.0000 0.74140  0.47570  0.77230  Biso   1.000  C
  H90      1.0000 0.77640  0.42330  0.78640  Biso   1.000  H
  O46      1.0000 0.90150  0.58110  0.97559  Biso   1.000  O
  O47      1.0000 0.91800  0.78910  0.94689  Biso   1.000  O
  O48      1.0000 0.48990  0.57490  0.53460  Biso   1.000  O
  O49      1.0000 0.52470  0.79190  0.52742  Biso   1.000  O
  O50      1.0000 0.93500  0.77880  0.57880  Biso   1.000  O
  O51      1.0000 0.94840  0.56870  0.55390  Biso   1.000  O
  O52      1.0000 0.67590  0.51750  0.83143  Biso   1.000  O
  O53      1.0000 0.58450  0.71630  0.71228  Biso   1.000  O
  O54      1.0000 0.80060  0.42470  0.71470  Biso   1.000  O
  Mn7      1.0000 0.47987  0.35275  0.52827  Biso   1.000  Mn
  C163     1.0000 0.61070  0.16850  0.55090  Biso   1.000  C
  C164     1.0000 0.66600  0.12900  0.58330  Biso   1.000  C
  C165     1.0000 0.71760  0.02840  0.57670  Biso   1.000  C
  H91      1.0000 0.71720  0.98380  0.55230  Biso   1.000  H
  C166     1.0000 0.76980  0.99220  0.60530  Biso   1.000  C
  H92      1.0000 0.80540  0.92690  0.60000  Biso   1.000  H
  C167     1.0000 0.76820  0.05440  0.64180  Biso   1.000  C
  C168     1.0000 0.71600  0.15400  0.64950  Biso   1.000  C
  H93      1.0000 0.71510  0.19500  0.67430  Biso   1.000  H
  C169     1.0000 0.66580  0.19220  0.62010  Biso   1.000  C
  H94      1.0000 0.63150  0.26080  0.62500  Biso   1.000  H
  C170     1.0000 0.98710  0.18920  0.94990  Biso   1.000  C
  C171     1.0000 0.96880  0.19490  0.90780  Biso   1.000  C
  C172     1.0000 0.98390  0.08370  0.88260  Biso   1.000  C
  H95      1.0000 0.00740  0.00480  0.89300  Biso   1.000  H
  C173     1.0000 0.96520  0.08760  0.84330  Biso   1.000  C
  H96      1.0000 0.97600  0.01310  0.82690  Biso   1.000  H
  C174     1.0000 0.92940  0.20630  0.82810  Biso   1.000  C
  C175     1.0000 0.91510  0.31720  0.85170  Biso   1.000  C
  H97      1.0000 0.89240  0.39650  0.84110  Biso   1.000  H
  C176     1.0000 0.93410  0.31190  0.89100  Biso   1.000  C
  H98      1.0000 0.92370  0.38780  0.90700  Biso   1.000  H
  C177     1.0000 0.56900  0.14810  0.91880  Biso   1.000  C
  C178     1.0000 0.59830  0.08870  0.88200  Biso   1.000  C
  C179     1.0000 0.62060  0.17840  0.85290  Biso   1.000  C
  H99      1.0000 0.61330  0.27420  0.85550  Biso   1.000  H
  C180     1.0000 0.65400  0.12670  0.81980  Biso   1.000  C
  H100     1.0000 0.66780  0.18690  0.79990  Biso   1.000  H
  C181     1.0000 0.66620  0.98440  0.81700  Biso   1.000  C
  C182     1.0000 0.64070  0.89410  0.84500  Biso   1.000  C
  H101     1.0000 0.64630  0.79790  0.84200  Biso   1.000  H
  C183     1.0000 0.60690  0.94610  0.87750  Biso   1.000  C
  H102     1.0000 0.58990  0.88500  0.89630  Biso   1.000  H
  C184     1.0000 0.81530  0.03850  0.70890  Biso   1.000  C
  C185     1.0000 0.86890  0.11310  0.72920  Biso   1.000  C
  H103     1.0000 0.90720  0.15300  0.71630  Biso   1.000  H
  C186     1.0000 0.86390  0.12680  0.76910  Biso   1.000  C
  C187     1.0000 0.80780  0.06810  0.78920  Biso   1.000  C
  H104     1.0000 0.80560  0.07900  0.81640  Biso   1.000  H
  C188     1.0000 0.75570  0.99380  0.76810  Biso   1.000  C
  C189     1.0000 0.75860  0.97570  0.72770  Biso   1.000  C
  H105     1.0000 0.72360  0.92330  0.71360  Biso   1.000  H
  O55      1.0000 0.59850  0.08110  0.52441  Biso   1.000  O
  O56      1.0000 0.58200  0.28910  0.55311  Biso   1.000  O
  O57      1.0000 0.01010  0.07490  0.96540  Biso   1.000  O
  O58      1.0000 0.97530  0.29190  0.97258  Biso   1.000  O
  O59      1.0000 0.56500  0.27880  0.92120  Biso   1.000  O
  O60      1.0000 0.55160  0.06870  0.94610  Biso   1.000  O
  O61      1.0000 0.82410  0.01750  0.66857  Biso   1.000  O
  O62      1.0000 0.91550  0.21630  0.78772  Biso   1.000  O
  O63      1.0000 0.69940  0.92470  0.78530  Biso   1.000  O
  Mn8      1.0000 0.97987  0.85275  0.52827  Biso   1.000  Mn
  C190     1.0000 0.11070  0.66850  0.55090  Biso   1.000  C
  C191     1.0000 0.16600  0.62900  0.58330  Biso   1.000  C
  C192     1.0000 0.21760  0.52840  0.57670  Biso   1.000  C
  H106     1.0000 0.21720  0.48380  0.55230  Biso   1.000  H
  C193     1.0000 0.26980  0.49220  0.60530  Biso   1.000  C
  H107     1.0000 0.30540  0.42690  0.60000  Biso   1.000  H
  C194     1.0000 0.26820  0.55440  0.64180  Biso   1.000  C
  C195     1.0000 0.21600  0.65400  0.64950  Biso   1.000  C
  H108     1.0000 0.21510  0.69500  0.67430  Biso   1.000  H
  C196     1.0000 0.16580  0.69220  0.62010  Biso   1.000  C
  H109     1.0000 0.13150  0.76080  0.62500  Biso   1.000  H
  C197     1.0000 0.48710  0.68920  0.94990  Biso   1.000  C
  C198     1.0000 0.46880  0.69490  0.90780  Biso   1.000  C
  C199     1.0000 0.48390  0.58370  0.88260  Biso   1.000  C
  H110     1.0000 0.50740  0.50480  0.89300  Biso   1.000  H
  C200     1.0000 0.46520  0.58760  0.84330  Biso   1.000  C
  H111     1.0000 0.47600  0.51310  0.82690  Biso   1.000  H
  C201     1.0000 0.42940  0.70630  0.82810  Biso   1.000  C
  C202     1.0000 0.41510  0.81720  0.85170  Biso   1.000  C
  H112     1.0000 0.39240  0.89650  0.84110  Biso   1.000  H
  C203     1.0000 0.43410  0.81190  0.89100  Biso   1.000  C
  H113     1.0000 0.42370  0.88780  0.90700  Biso   1.000  H
  C204     1.0000 0.06900  0.64810  0.91880  Biso   1.000  C
  C205     1.0000 0.09830  0.58870  0.88200  Biso   1.000  C
  C206     1.0000 0.12060  0.67840  0.85290  Biso   1.000  C
  H114     1.0000 0.11330  0.77420  0.85550  Biso   1.000  H
  C207     1.0000 0.15400  0.62670  0.81980  Biso   1.000  C
  H115     1.0000 0.16780  0.68690  0.79990  Biso   1.000  H
  C208     1.0000 0.16620  0.48440  0.81700  Biso   1.000  C
  C209     1.0000 0.14070  0.39410  0.84500  Biso   1.000  C
  H116     1.0000 0.14630  0.29790  0.84200  Biso   1.000  H
  C210     1.0000 0.10690  0.44610  0.87750  Biso   1.000  C
  H117     1.0000 0.08990  0.38500  0.89630  Biso   1.000  H
  C211     1.0000 0.31530  0.53850  0.70890  Biso   1.000  C
  C212     1.0000 0.36890  0.61310  0.72920  Biso   1.000  C
  H118     1.0000 0.40720  0.65300  0.71630  Biso   1.000  H
  C213     1.0000 0.36390  0.62680  0.76910  Biso   1.000  C
  C214     1.0000 0.30780  0.56810  0.78920  Biso   1.000  C
  H119     1.0000 0.30560  0.57900  0.81640  Biso   1.000  H
  C215     1.0000 0.25570  0.49380  0.76810  Biso   1.000  C
  C216     1.0000 0.25860  0.47570  0.72770  Biso   1.000  C
  H120     1.0000 0.22360  0.42330  0.71360  Biso   1.000  H
  O64      1.0000 0.09850  0.58110  0.52441  Biso   1.000  O
  O65      1.0000 0.08200  0.78910  0.55311  Biso   1.000  O
  O66      1.0000 0.51010  0.57490  0.96540  Biso   1.000  O
  O67      1.0000 0.47530  0.79190  0.97258  Biso   1.000  O
  O68      1.0000 0.06500  0.77880  0.92120  Biso   1.000  O
  O69      1.0000 0.05160  0.56870  0.94610  Biso   1.000  O
  O70      1.0000 0.32410  0.51750  0.66857  Biso   1.000  O
  O71      1.0000 0.41550  0.71630  0.78772  Biso   1.000  O
  O72      1.0000 0.19940  0.42470  0.78530  Biso   1.000  O
  Mn9      1.0000 0.50000  0.00000  0.00000  Biso   1.000  Mn
  Mn10     1.0000 0.00000  0.50000  0.00000  Biso   1.000  Mn
  Mn11     1.0000 0.50000  0.00000  0.50000  Biso   1.000  Mn
  Mn12     1.0000 0.00000  0.50000  0.50000  Biso   1.000  Mn
