data_image0
_cell_length_a       21.2895
_cell_length_b       14.5585
_cell_length_c       8.1066
_cell_angle_alpha    90
_cell_angle_beta     84.173
_cell_angle_gamma    90

_symmetry_space_group_name_H-M    "P 1"
_symmetry_int_tables_number       1

loop_
  _symmetry_equiv_pos_as_xyz
  'x, y, z'

loop_
  _atom_site_label
  _atom_site_occupancy
  _atom_site_fract_x
  _atom_site_fract_y
  _atom_site_fract_z
  _atom_site_thermal_displace_type
  _atom_site_B_iso_or_equiv
  _atom_site_type_symbol
  Zr1      1.0000 0.57851  0.61912  0.04052  Biso   1.000  Zr
  O1       1.0000 0.51662  0.62830  0.83320  Biso   1.000  O
  O2       1.0000 0.61125  0.59852  0.60310  Biso   1.000  O
  O3       1.0000 0.55225  0.76629  0.01290  Biso   1.000  O
  O4       1.0000 0.64326  0.65660  0.83440  Biso   1.000  O
  O5       1.0000 0.67366  0.57536  0.09680  Biso   1.000  O
  C1       1.0000 0.64462  0.64903  0.67904  Biso   1.000  C
  C2       1.0000 0.69773  0.70101  0.58423  Biso   1.000  C
  C3       1.0000 0.72860  0.77244  0.66249  Biso   1.000  C
  N1       1.0000 0.72018  0.67907  0.42030  Biso   1.000  N
  C4       1.0000 0.54239  0.95320  0.09180  Biso   1.000  C
  Zr2      1.0000 0.07851  0.11912  0.04052  Biso   1.000  Zr
  O6       1.0000 0.01662  0.12830  0.83320  Biso   1.000  O
  O7       1.0000 0.11125  0.09852  0.60310  Biso   1.000  O
  O8       1.0000 0.05225  0.26629  0.01290  Biso   1.000  O
  O9       1.0000 0.14326  0.15660  0.83440  Biso   1.000  O
  O10      1.0000 0.17366  0.07536  0.09680  Biso   1.000  O
  C5       1.0000 0.14462  0.14903  0.67904  Biso   1.000  C
  C6       1.0000 0.19773  0.20101  0.58423  Biso   1.000  C
  C7       1.0000 0.22860  0.27244  0.66249  Biso   1.000  C
  N2       1.0000 0.22018  0.17907  0.42030  Biso   1.000  N
  C8       1.0000 0.04239  0.45320  0.09180  Biso   1.000  C
  Zr3      1.0000 0.42149  0.61912  0.95948  Biso   1.000  Zr
  O11      1.0000 0.48338  0.62830  0.16680  Biso   1.000  O
  O12      1.0000 0.38875  0.59852  0.39690  Biso   1.000  O
  O13      1.0000 0.44775  0.76629  0.98710  Biso   1.000  O
  O14      1.0000 0.35674  0.65660  0.16560  Biso   1.000  O
  O15      1.0000 0.32634  0.57536  0.90320  Biso   1.000  O
  C9       1.0000 0.35538  0.64903  0.32096  Biso   1.000  C
  C10      1.0000 0.30227  0.70101  0.41577  Biso   1.000  C
  C11      1.0000 0.27140  0.77244  0.33751  Biso   1.000  C
  N3       1.0000 0.27982  0.67907  0.57970  Biso   1.000  N
  C12      1.0000 0.45761  0.95320  0.90820  Biso   1.000  C
  Zr4      1.0000 0.92149  0.11912  0.95948  Biso   1.000  Zr
  O16      1.0000 0.98338  0.12830  0.16680  Biso   1.000  O
  O17      1.0000 0.88875  0.09852  0.39690  Biso   1.000  O
  O18      1.0000 0.94775  0.26629  0.98710  Biso   1.000  O
  O19      1.0000 0.85674  0.15660  0.16560  Biso   1.000  O
  O20      1.0000 0.82634  0.07536  0.90320  Biso   1.000  O
  C13      1.0000 0.85538  0.14903  0.32096  Biso   1.000  C
  C14      1.0000 0.80227  0.20101  0.41577  Biso   1.000  C
  C15      1.0000 0.77140  0.27244  0.33751  Biso   1.000  C
  N4       1.0000 0.77982  0.17907  0.57970  Biso   1.000  N
  C16      1.0000 0.95761  0.45320  0.90820  Biso   1.000  C
  Zr5      1.0000 0.42149  0.38088  0.95948  Biso   1.000  Zr
  O21      1.0000 0.48338  0.37170  0.16680  Biso   1.000  O
  O22      1.0000 0.38875  0.40148  0.39690  Biso   1.000  O
  O23      1.0000 0.44775  0.23371  0.98710  Biso   1.000  O
  O24      1.0000 0.35674  0.34340  0.16560  Biso   1.000  O
  O25      1.0000 0.32634  0.42464  0.90320  Biso   1.000  O
  C17      1.0000 0.35538  0.35097  0.32096  Biso   1.000  C
  C18      1.0000 0.30227  0.29899  0.41577  Biso   1.000  C
  C19      1.0000 0.27140  0.22756  0.33751  Biso   1.000  C
  N5       1.0000 0.27982  0.32093  0.57970  Biso   1.000  N
  C20      1.0000 0.45761  0.04680  0.90820  Biso   1.000  C
  Zr6      1.0000 0.92149  0.88088  0.95948  Biso   1.000  Zr
  O26      1.0000 0.98338  0.87170  0.16680  Biso   1.000  O
  O27      1.0000 0.88875  0.90148  0.39690  Biso   1.000  O
  O28      1.0000 0.94775  0.73371  0.98710  Biso   1.000  O
  O29      1.0000 0.85674  0.84340  0.16560  Biso   1.000  O
  O30      1.0000 0.82634  0.92464  0.90320  Biso   1.000  O
  C21      1.0000 0.85538  0.85097  0.32096  Biso   1.000  C
  C22      1.0000 0.80227  0.79899  0.41577  Biso   1.000  C
  C23      1.0000 0.77140  0.72756  0.33751  Biso   1.000  C
  N6       1.0000 0.77982  0.82093  0.57970  Biso   1.000  N
  C24      1.0000 0.95761  0.54680  0.90820  Biso   1.000  C
  Zr7      1.0000 0.57851  0.38088  0.04052  Biso   1.000  Zr
  O31      1.0000 0.51662  0.37170  0.83320  Biso   1.000  O
  O32      1.0000 0.61125  0.40148  0.60310  Biso   1.000  O
  O33      1.0000 0.55225  0.23371  0.01290  Biso   1.000  O
  O34      1.0000 0.64326  0.34340  0.83440  Biso   1.000  O
  O35      1.0000 0.67366  0.42464  0.09680  Biso   1.000  O
  C25      1.0000 0.64462  0.35097  0.67904  Biso   1.000  C
  C26      1.0000 0.69773  0.29899  0.58423  Biso   1.000  C
  C27      1.0000 0.72860  0.22756  0.66249  Biso   1.000  C
  N7       1.0000 0.72018  0.32093  0.42030  Biso   1.000  N
  C28      1.0000 0.54239  0.04680  0.09180  Biso   1.000  C
  Zr8      1.0000 0.07851  0.88088  0.04052  Biso   1.000  Zr
  O36      1.0000 0.01662  0.87170  0.83320  Biso   1.000  O
  O37      1.0000 0.11125  0.90148  0.60310  Biso   1.000  O
  O38      1.0000 0.05225  0.73371  0.01290  Biso   1.000  O
  O39      1.0000 0.14326  0.84340  0.83440  Biso   1.000  O
  O40      1.0000 0.17366  0.92464  0.09680  Biso   1.000  O
  C29      1.0000 0.14462  0.85097  0.67904  Biso   1.000  C
  C30      1.0000 0.19773  0.79899  0.58423  Biso   1.000  C
  C31      1.0000 0.22860  0.72756  0.66249  Biso   1.000  C
  N8       1.0000 0.22018  0.82093  0.42030  Biso   1.000  N
  C32      1.0000 0.04239  0.54680  0.09180  Biso   1.000  C
  Zr9      1.0000 0.46334  0.50000  0.30676  Biso   1.000  Zr
  O41      1.0000 0.55665  0.50000  0.18580  Biso   1.000  O
  O42      1.0000 0.60300  0.50000  0.88430  Biso   1.000  O
  C33      1.0000 0.70510  0.50000  0.10580  Biso   1.000  C
  Zr10     1.0000 0.96334  0.00000  0.30676  Biso   1.000  Zr
  O43      1.0000 0.05665  0.00000  0.18580  Biso   1.000  O
  O44      1.0000 0.10300  0.00000  0.88430  Biso   1.000  O
  C34      1.0000 0.20510  0.00000  0.10580  Biso   1.000  C
  Zr11     1.0000 0.53666  0.50000  0.69324  Biso   1.000  Zr
  O45      1.0000 0.44335  0.50000  0.81420  Biso   1.000  O
  O46      1.0000 0.39700  0.50000  0.11570  Biso   1.000  O
  C35      1.0000 0.29490  0.50000  0.89420  Biso   1.000  C
  Zr12     1.0000 0.03666  0.00000  0.69324  Biso   1.000  Zr
  O47      1.0000 0.94335  0.00000  0.81420  Biso   1.000  O
  O48      1.0000 0.89700  0.00000  0.11570  Biso   1.000  O
  C36      1.0000 0.79490  0.00000  0.89420  Biso   1.000  C
  O49      1.0000 0.50000  0.57830  0.50000  Biso   1.000  O
  O50      1.0000 0.00000  0.07830  0.50000  Biso   1.000  O
  O51      1.0000 0.50000  0.42170  0.50000  Biso   1.000  O
  O52      1.0000 0.00000  0.92170  0.50000  Biso   1.000  O
  C37      1.0000 0.50000  0.80360  0.00000  Biso   1.000  C
  C38      1.0000 0.50000  0.91160  0.00000  Biso   1.000  C
  C39      1.0000 0.00000  0.30360  0.00000  Biso   1.000  C
  C40      1.0000 0.00000  0.41160  0.00000  Biso   1.000  C
  C41      1.0000 0.50000  0.19640  0.00000  Biso   1.000  C
  C42      1.0000 0.50000  0.08840  0.00000  Biso   1.000  C
  C43      1.0000 0.00000  0.69640  0.00000  Biso   1.000  C
  C44      1.0000 0.00000  0.58840  0.00000  Biso   1.000  C
