data_image0
_cell_length_a       10.8928
_cell_length_b       8.7917
_cell_length_c       27.7665
_cell_angle_alpha    90
_cell_angle_beta     101.051
_cell_angle_gamma    90

_symmetry_space_group_name_H-M    "P 1"
_symmetry_int_tables_number       1

loop_
  _symmetry_equiv_pos_as_xyz
  'x, y, z'

loop_
  _atom_site_label
  _atom_site_occupancy
  _atom_site_fract_x
  _atom_site_fract_y
  _atom_site_fract_z
  _atom_site_thermal_displace_type
  _atom_site_B_iso_or_equiv
  _atom_site_type_symbol
  Zn1      1.0000 0.62956  0.03308  0.80094  Biso   1.000  Zn
  Zn2      1.0000 0.87284  0.23781  0.70400  Biso   1.000  Zn
  P1       1.0000 0.88172  0.95290  0.76783  Biso   1.000  P
  P2       1.0000 0.61328  0.30500  0.72899  Biso   1.000  P
  O1       1.0000 0.88780  0.02040  0.71823  Biso   1.000  O
  O2       1.0000 0.95466  0.80450  0.77700  Biso   1.000  O
  O3       1.0000 0.74679  0.92040  0.77190  Biso   1.000  O
  O4       1.0000 0.93960  0.07530  0.80678  Biso   1.000  O
  O5       1.0000 0.75207  0.34770  0.73361  Biso   1.000  O
  O6       1.0000 0.58800  0.23930  0.77661  Biso   1.000  O
  O7       1.0000 0.58440  0.17530  0.68933  Biso   1.000  O
  O8       1.0000 0.66800  0.06460  0.87146  Biso   1.000  O
  O9       1.0000 0.83650  0.23780  0.13210  Biso   1.000  O
  O10      1.0000 0.87690  0.05800  0.89168  Biso   1.000  O
  O11      1.0000 0.62840  0.21520  0.11091  Biso   1.000  O
  C1       1.0000 0.77200  0.07300  0.90169  Biso   1.000  C
  C2       1.0000 0.76320  0.10270  0.95430  Biso   1.000  C
  C3       1.0000 0.64770  0.10370  0.96809  Biso   1.000  C
  C4       1.0000 0.63920  0.13950  0.01566  Biso   1.000  C
  C5       1.0000 0.74680  0.16920  0.05056  Biso   1.000  C
  C6       1.0000 0.86230  0.16220  0.03730  Biso   1.000  C
  C7       1.0000 0.87090  0.13050  0.98908  Biso   1.000  C
  C8       1.0000 0.73550  0.20960  0.10215  Biso   1.000  C
  H1       1.0000 0.92430  0.05630  0.83850  Biso   1.000  H
  H2       1.0000 0.60110  0.21050  0.66210  Biso   1.000  H
  H3       1.0000 0.57640  0.08210  0.94520  Biso   1.000  H
  H4       1.0000 0.56140  0.14190  0.02430  Biso   1.000  H
  H5       1.0000 0.93450  0.17640  0.06080  Biso   1.000  H
  H6       1.0000 0.94840  0.12900  0.98040  Biso   1.000  H
  O12      1.0000 0.53370  0.44200  0.71371  Biso   1.000  O
  Zn3      1.0000 0.37044  0.53308  0.69906  Biso   1.000  Zn
  Zn4      1.0000 0.12716  0.73781  0.79599  Biso   1.000  Zn
  P3       1.0000 0.11828  0.45290  0.73217  Biso   1.000  P
  P4       1.0000 0.38672  0.80500  0.77101  Biso   1.000  P
  O13      1.0000 0.11220  0.52040  0.78177  Biso   1.000  O
  O14      1.0000 0.04534  0.30450  0.72300  Biso   1.000  O
  O15      1.0000 0.25321  0.42040  0.72810  Biso   1.000  O
  O16      1.0000 0.06040  0.57530  0.69322  Biso   1.000  O
  O17      1.0000 0.24793  0.84770  0.76639  Biso   1.000  O
  O18      1.0000 0.41200  0.73930  0.72339  Biso   1.000  O
  O19      1.0000 0.41560  0.67530  0.81067  Biso   1.000  O
  O20      1.0000 0.33200  0.56460  0.62854  Biso   1.000  O
  O21      1.0000 0.16350  0.73780  0.36790  Biso   1.000  O
  O22      1.0000 0.12310  0.55800  0.60832  Biso   1.000  O
  O23      1.0000 0.37160  0.71520  0.38909  Biso   1.000  O
  C9       1.0000 0.22800  0.57300  0.59831  Biso   1.000  C
  C10      1.0000 0.23680  0.60270  0.54570  Biso   1.000  C
  C11      1.0000 0.35230  0.60370  0.53191  Biso   1.000  C
  C12      1.0000 0.36080  0.63950  0.48434  Biso   1.000  C
  C13      1.0000 0.25320  0.66920  0.44944  Biso   1.000  C
  C14      1.0000 0.13770  0.66220  0.46270  Biso   1.000  C
  C15      1.0000 0.12910  0.63050  0.51092  Biso   1.000  C
  C16      1.0000 0.26450  0.70960  0.39785  Biso   1.000  C
  H7       1.0000 0.07570  0.55630  0.66150  Biso   1.000  H
  H8       1.0000 0.39890  0.71050  0.83790  Biso   1.000  H
  H9       1.0000 0.42360  0.58210  0.55480  Biso   1.000  H
  H10      1.0000 0.43860  0.64190  0.47570  Biso   1.000  H
  H11      1.0000 0.06550  0.67640  0.43920  Biso   1.000  H
  H12      1.0000 0.05160  0.62900  0.51960  Biso   1.000  H
  O24      1.0000 0.46630  0.94200  0.78629  Biso   1.000  O
  Zn5      1.0000 0.37044  0.96692  0.19906  Biso   1.000  Zn
  Zn6      1.0000 0.12716  0.76219  0.29600  Biso   1.000  Zn
  P5       1.0000 0.11828  0.04710  0.23217  Biso   1.000  P
  P6       1.0000 0.38672  0.69500  0.27101  Biso   1.000  P
  O25      1.0000 0.11220  0.97960  0.28177  Biso   1.000  O
  O26      1.0000 0.04534  0.19550  0.22300  Biso   1.000  O
  O27      1.0000 0.25321  0.07960  0.22810  Biso   1.000  O
  O28      1.0000 0.06040  0.92470  0.19322  Biso   1.000  O
  O29      1.0000 0.24793  0.65230  0.26639  Biso   1.000  O
  O30      1.0000 0.41200  0.76070  0.22339  Biso   1.000  O
  O31      1.0000 0.41560  0.82470  0.31067  Biso   1.000  O
  O32      1.0000 0.33200  0.93540  0.12854  Biso   1.000  O
  O33      1.0000 0.16350  0.76220  0.86790  Biso   1.000  O
  O34      1.0000 0.12310  0.94200  0.10832  Biso   1.000  O
  O35      1.0000 0.37160  0.78480  0.88909  Biso   1.000  O
  C17      1.0000 0.22800  0.92700  0.09831  Biso   1.000  C
  C18      1.0000 0.23680  0.89730  0.04570  Biso   1.000  C
  C19      1.0000 0.35230  0.89630  0.03191  Biso   1.000  C
  C20      1.0000 0.36080  0.86050  0.98434  Biso   1.000  C
  C21      1.0000 0.25320  0.83080  0.94944  Biso   1.000  C
  C22      1.0000 0.13770  0.83780  0.96270  Biso   1.000  C
  C23      1.0000 0.12910  0.86950  0.01092  Biso   1.000  C
  C24      1.0000 0.26450  0.79040  0.89785  Biso   1.000  C
  H13      1.0000 0.07570  0.94370  0.16150  Biso   1.000  H
  H14      1.0000 0.39890  0.78950  0.33790  Biso   1.000  H
  H15      1.0000 0.42360  0.91790  0.05480  Biso   1.000  H
  H16      1.0000 0.43860  0.85810  0.97570  Biso   1.000  H
  H17      1.0000 0.06550  0.82360  0.93920  Biso   1.000  H
  H18      1.0000 0.05160  0.87100  0.01960  Biso   1.000  H
  O36      1.0000 0.46630  0.55800  0.28629  Biso   1.000  O
  Zn7      1.0000 0.62956  0.46692  0.30094  Biso   1.000  Zn
  Zn8      1.0000 0.87284  0.26219  0.20400  Biso   1.000  Zn
  P7       1.0000 0.88172  0.54710  0.26783  Biso   1.000  P
  P8       1.0000 0.61328  0.19500  0.22899  Biso   1.000  P
  O37      1.0000 0.88780  0.47960  0.21823  Biso   1.000  O
  O38      1.0000 0.95466  0.69550  0.27700  Biso   1.000  O
  O39      1.0000 0.74679  0.57960  0.27190  Biso   1.000  O
  O40      1.0000 0.93960  0.42470  0.30678  Biso   1.000  O
  O41      1.0000 0.75207  0.15230  0.23361  Biso   1.000  O
  O42      1.0000 0.58800  0.26070  0.27661  Biso   1.000  O
  O43      1.0000 0.58440  0.32470  0.18933  Biso   1.000  O
  O44      1.0000 0.66800  0.43540  0.37146  Biso   1.000  O
  O45      1.0000 0.83650  0.26220  0.63210  Biso   1.000  O
  O46      1.0000 0.87690  0.44200  0.39168  Biso   1.000  O
  O47      1.0000 0.62840  0.28480  0.61091  Biso   1.000  O
  C25      1.0000 0.77200  0.42700  0.40169  Biso   1.000  C
  C26      1.0000 0.76320  0.39730  0.45430  Biso   1.000  C
  C27      1.0000 0.64770  0.39630  0.46809  Biso   1.000  C
  C28      1.0000 0.63920  0.36050  0.51566  Biso   1.000  C
  C29      1.0000 0.74680  0.33080  0.55056  Biso   1.000  C
  C30      1.0000 0.86230  0.33780  0.53730  Biso   1.000  C
  C31      1.0000 0.87090  0.36950  0.48908  Biso   1.000  C
  C32      1.0000 0.73550  0.29040  0.60215  Biso   1.000  C
  H19      1.0000 0.92430  0.44370  0.33850  Biso   1.000  H
  H20      1.0000 0.60110  0.28950  0.16210  Biso   1.000  H
  H21      1.0000 0.57640  0.41790  0.44520  Biso   1.000  H
  H22      1.0000 0.56140  0.35810  0.52430  Biso   1.000  H
  H23      1.0000 0.93450  0.32360  0.56080  Biso   1.000  H
  H24      1.0000 0.94840  0.37100  0.48040  Biso   1.000  H
  O48      1.0000 0.53370  0.05800  0.21371  Biso   1.000  O
