data_IVARUT_clean
_audit_creation_date              2014-07-02
_audit_creation_method            'Materials Studio'
_symmetry_space_group_name_H-M    'P1'
_symmetry_Int_Tables_number       1
_symmetry_cell_setting            triclinic
loop_
_symmetry_equiv_pos_as_xyz
  x,y,z
_cell_length_a                    11.3356
_cell_length_b                    12.1513
_cell_length_c                    12.8611
_cell_angle_alpha                 87.5430
_cell_angle_beta                  68.7610
_cell_angle_gamma                 71.7990
loop_
_atom_site_label
_atom_site_type_symbol
_atom_site_fract_x
_atom_site_fract_y
_atom_site_fract_z
_atom_site_U_iso_or_equiv
_atom_site_adp_type
_atom_site_occupancy
Cd1    Cd    0.65252   0.21755   0.70992   0.01267  Uiso   1.00
Cd2    Cd    0.34748   0.78245   0.29008   0.01267  Uiso   1.00
H1     H     0.58630   0.98380   0.78280   0.01267  Uiso   1.00
H2     H     0.42370   0.91400   0.90120   0.01267  Uiso   1.00
H3     H     0.23510   0.23100   0.06170   0.01267  Uiso   1.00
H4     H     0.40090   0.29310   0.93900   0.01267  Uiso   1.00
H5     H     0.13660   0.08340   0.13000   0.01267  Uiso   1.00
H6     H     0.23690   0.95650   0.10780   0.01267  Uiso   1.00
H7     H     0.06150   0.88220   0.12940   0.01267  Uiso   1.00
H8     H     0.96250   0.00990   0.15300   0.01267  Uiso   1.00
H9     H     0.00340   0.15020   0.01740   0.01267  Uiso   1.00
H10    H     0.12860   0.11370   0.90540   0.01267  Uiso   1.00
H11    H     0.87980   0.98730   0.37620   0.01267  Uiso   1.00
H12    H     0.95590   0.90320   0.44390   0.01267  Uiso   1.00
H13    H     0.78550   0.82430   0.51940   0.01267  Uiso   1.00
H14    H     0.81770   0.82160   0.39020   0.01267  Uiso   1.00
H15    H     0.56000   0.89170   0.63480   0.01267  Uiso   1.00
H16    H     0.66160   0.00870   0.33010   0.01267  Uiso   1.00
H17    H     0.69240   0.43960   0.97710   0.01267  Uiso   1.00
H18    H     0.74690   0.50140   0.86950   0.01267  Uiso   1.00
H19    H     0.89000   0.30040   0.93280   0.01267  Uiso   1.00
H20    H     0.94570   0.35180   0.81870   0.01267  Uiso   1.00
H21    H     0.88720   0.37860   0.09750   0.01267  Uiso   1.00
H22    H     0.01540   0.53140   0.82030   0.01267  Uiso   1.00
H23    H     0.55230   0.22210   0.50750   0.01267  Uiso   1.00
H24    H     0.41180   0.33240   0.42580   0.01267  Uiso   1.00
H25    H     0.27230   0.57730   0.67600   0.01267  Uiso   1.00
H26    H     0.41680   0.46050   0.75180   0.01267  Uiso   1.00
H27    H     0.28550   0.56510   0.41630   0.01267  Uiso   1.00
H28    H     0.18380   0.62040   0.53550   0.01267  Uiso   1.00
H29    H     0.11020   0.41000   0.61590   0.01267  Uiso   1.00
H30    H     0.00720   0.53580   0.63590   0.01267  Uiso   1.00
H31    H     0.00050   0.65210   0.48200   0.01267  Uiso   1.00
H32    H     0.09950   0.60340   0.35980   0.01267  Uiso   1.00
H33    H     0.41370   0.01620   0.21720   0.01267  Uiso   1.00
H34    H     0.57630   0.08600   0.09880   0.01267  Uiso   1.00
H35    H     0.76490   0.76900   0.93830   0.01267  Uiso   1.00
H36    H     0.59910   0.70690   0.06100   0.01267  Uiso   1.00
H37    H     0.86340   0.91660   0.87000   0.01267  Uiso   1.00
H38    H     0.76310   0.04350   0.89220   0.01267  Uiso   1.00
H39    H     0.93850   0.11780   0.87060   0.01267  Uiso   1.00
H40    H     0.03750   0.99010   0.84700   0.01267  Uiso   1.00
H41    H     0.99660   0.84980   0.98260   0.01267  Uiso   1.00
H42    H     0.87140   0.88630   0.09460   0.01267  Uiso   1.00
H43    H     0.12020   0.01270   0.62380   0.01267  Uiso   1.00
H44    H     0.04410   0.09680   0.55610   0.01267  Uiso   1.00
H45    H     0.21450   0.17570   0.48060   0.01267  Uiso   1.00
H46    H     0.18230   0.17840   0.60980   0.01267  Uiso   1.00
H47    H     0.44000   0.10830   0.36520   0.01267  Uiso   1.00
H48    H     0.33840   0.99130   0.66990   0.01267  Uiso   1.00
H49    H     0.30760   0.56040   0.02290   0.01267  Uiso   1.00
H50    H     0.25310   0.49860   0.13050   0.01267  Uiso   1.00
H51    H     0.11000   0.69960   0.06720   0.01267  Uiso   1.00
H52    H     0.05430   0.64820   0.18130   0.01267  Uiso   1.00
H53    H     0.11280   0.62140   0.90250   0.01267  Uiso   1.00
H54    H     0.98460   0.46860   0.17970   0.01267  Uiso   1.00
H55    H     0.44770   0.77790   0.49250   0.01267  Uiso   1.00
H56    H     0.58820   0.66760   0.57420   0.01267  Uiso   1.00
H57    H     0.72770   0.42270   0.32400   0.01267  Uiso   1.00
H58    H     0.58320   0.53950   0.24820   0.01267  Uiso   1.00
H59    H     0.71450   0.43490   0.58370   0.01267  Uiso   1.00
H60    H     0.81620   0.37960   0.46450   0.01267  Uiso   1.00
H61    H     0.88980   0.59000   0.38410   0.01267  Uiso   1.00
H62    H     0.99280   0.46420   0.36410   0.01267  Uiso   1.00
H63    H     0.99950   0.34790   0.51800   0.01267  Uiso   1.00
H64    H     0.90050   0.39660   0.64020   0.01267  Uiso   1.00
C1     C     0.51400   0.03440   0.83892   0.01267  Uiso   1.00
C2     C     0.41650   0.99170   0.90995   0.01267  Uiso   1.00
C3     C     0.30810   0.06530   0.99421   0.01267  Uiso   1.00
C4     C     0.30490   0.17940   0.00470   0.01267  Uiso   1.00
C5     C     0.40500   0.21620   0.93090   0.01267  Uiso   1.00
C6     C     0.19840   0.02240   0.07200   0.01267  Uiso   1.00
C7     C     0.02060   0.94800   0.09481   0.01267  Uiso   1.00
C8     C     0.06100   0.08680   0.96066   0.01267  Uiso   1.00
C9     C     0.80660   0.04370   0.54229   0.01267  Uiso   1.00
C10    C     0.86840   0.95070   0.44610   0.01267  Uiso   1.00
C11    C     0.78100   0.87270   0.45800   0.01267  Uiso   1.00
C12    C     0.63580   0.93851   0.47900   0.01267  Uiso   1.00
C13    C     0.53660   0.93520   0.57990   0.01267  Uiso   1.00
C14    C     0.59720   0.00470   0.39870   0.01267  Uiso   1.00
C15    C     0.70360   0.35890   0.83620   0.01267  Uiso   1.00
C16    C     0.75270   0.42610   0.89950   0.01267  Uiso   1.00
C17    C     0.88680   0.37230   0.89640   0.01267  Uiso   1.00
C18    C     0.94270   0.44220   0.94970   0.01267  Uiso   1.00
C19    C     0.93330   0.42720   0.05670   0.01267  Uiso   1.00
C20    C     0.00930   0.51760   0.89350   0.01267  Uiso   1.00
C21    C     0.49540   0.29490   0.54180   0.01267  Uiso   1.00
C22    C     0.41110   0.36070   0.49220   0.01267  Uiso   1.00
C23    C     0.32500   0.46920   0.54136   0.01267  Uiso   1.00
C24    C     0.32890   0.50510   0.63980   0.01267  Uiso   1.00
C25    C     0.41630   0.43430   0.68510   0.01267  Uiso   1.00
C26    C     0.23250   0.54772   0.48930   0.01267  Uiso   1.00
C27    C     0.05370   0.46674   0.58423   0.01267  Uiso   1.00
C28    C     0.04700   0.58244   0.43118   0.01267  Uiso   1.00
C29    C     0.48600   0.96560   0.16108   0.01267  Uiso   1.00
C30    C     0.58350   0.00830   0.09005   0.01267  Uiso   1.00
C31    C     0.69190   0.93470   0.00579   0.01267  Uiso   1.00
C32    C     0.69510   0.82060   0.99530   0.01267  Uiso   1.00
C33    C     0.59500   0.78380   0.06910   0.01267  Uiso   1.00
C34    C     0.80160   0.97760   0.92800   0.01267  Uiso   1.00
C35    C     0.97940   0.05200   0.90519   0.01267  Uiso   1.00
C36    C     0.93900   0.91320   0.03934   0.01267  Uiso   1.00
C37    C     0.19340   0.95630   0.45771   0.01267  Uiso   1.00
C38    C     0.13160   0.04930   0.55390   0.01267  Uiso   1.00
C39    C     0.21900   0.12730   0.54200   0.01267  Uiso   1.00
C40    C     0.36420   0.06149   0.52100   0.01267  Uiso   1.00
C41    C     0.46340   0.06480   0.42010   0.01267  Uiso   1.00
C42    C     0.40280   0.99530   0.60130   0.01267  Uiso   1.00
C43    C     0.29640   0.64110   0.16380   0.01267  Uiso   1.00
C44    C     0.24730   0.57390   0.10050   0.01267  Uiso   1.00
C45    C     0.11320   0.62770   0.10360   0.01267  Uiso   1.00
C46    C     0.05730   0.55780   0.05030   0.01267  Uiso   1.00
C47    C     0.06670   0.57280   0.94330   0.01267  Uiso   1.00
C48    C     0.99070   0.48240   0.10650   0.01267  Uiso   1.00
C49    C     0.50460   0.70510   0.45820   0.01267  Uiso   1.00
C50    C     0.58890   0.63930   0.50780   0.01267  Uiso   1.00
C51    C     0.67500   0.53080   0.45864   0.01267  Uiso   1.00
C52    C     0.67110   0.49490   0.36020   0.01267  Uiso   1.00
C53    C     0.58370   0.56570   0.31490   0.01267  Uiso   1.00
C54    C     0.76750   0.45228   0.51070   0.01267  Uiso   1.00
C55    C     0.94630   0.53326   0.41577   0.01267  Uiso   1.00
C56    C     0.95300   0.41756   0.56882   0.01267  Uiso   1.00
N1     N     0.50845   0.14565   0.84753   0.01267  Uiso   1.00
N2     N     0.12526   0.98783   0.01228   0.01267  Uiso   1.00
N3     N     0.50036   0.32983   0.63717   0.01267  Uiso   1.00
N4     N     0.13626   0.49615   0.47663   0.01267  Uiso   1.00
N5     N     0.49155   0.85435   0.15247   0.01267  Uiso   1.00
N6     N     0.87474   0.01217   0.98772   0.01267  Uiso   1.00
N7     N     0.49964   0.67017   0.36283   0.01267  Uiso   1.00
N8     N     0.86374   0.50385   0.52337   0.01267  Uiso   1.00
O1     O     0.78035   0.14934   0.52195   0.01267  Uiso   1.00
O2     O     0.77837   0.01522   0.64137   0.01267  Uiso   1.00
O3     O     0.78211   0.26228   0.78443   0.01267  Uiso   1.00
O4     O     0.58955   0.40211   0.83308   0.01267  Uiso   1.00
O5     O     0.21965   0.85066   0.47805   0.01267  Uiso   1.00
O6     O     0.22163   0.98478   0.35863   0.01267  Uiso   1.00
O7     O     0.21789   0.73772   0.21557   0.01267  Uiso   1.00
O8     O     0.41045   0.59789   0.16692   0.01267  Uiso   1.00
