data_image0
_cell_length_a       20.835
_cell_length_b       10.177
_cell_length_c       16.014
_cell_angle_alpha    90
_cell_angle_beta     106.12
_cell_angle_gamma    90

_symmetry_space_group_name_H-M    "P 1"
_symmetry_int_tables_number       1

loop_
  _symmetry_equiv_pos_as_xyz
  'x, y, z'

loop_
  _atom_site_label
  _atom_site_occupancy
  _atom_site_fract_x
  _atom_site_fract_y
  _atom_site_fract_z
  _atom_site_thermal_displace_type
  _atom_site_B_iso_or_equiv
  _atom_site_type_symbol
  Cd1      1.0000 0.05960  0.10735  0.57743  Biso   1.000  Cd
  O1       1.0000 0.05468  0.97620  0.69860  Biso   1.000  O
  O2       1.0000 0.01197  0.09050  0.42600  Biso   1.000  O
  N1       1.0000 0.96910  0.22750  0.58240  Biso   1.000  N
  N2       1.0000 0.15250  0.00120  0.56360  Biso   1.000  N
  C1       1.0000 0.01140  0.89860  0.65580  Biso   1.000  C
  C2       1.0000 0.99010  0.78690  0.70150  Biso   1.000  C
  C3       1.0000 0.97600  0.65370  0.65440  Biso   1.000  C
  C4       1.0000 0.04890  0.60540  0.68180  Biso   1.000  C
  C5       1.0000 0.92600  0.59570  0.71840  Biso   1.000  C
  C6       1.0000 0.91990  0.72730  0.66940  Biso   1.000  C
  C7       1.0000 0.94250  0.32050  0.52690  Biso   1.000  C
  H1       1.0000 0.96740  0.35060  0.48910  Biso   1.000  H
  C8       1.0000 0.88160  0.37770  0.51930  Biso   1.000  C
  H2       1.0000 0.86520  0.44310  0.47640  Biso   1.000  H
  C9       1.0000 0.84460  0.34040  0.57340  Biso   1.000  C
  C10      1.0000 0.87120  0.24170  0.63170  Biso   1.000  C
  H3       1.0000 0.84660  0.20840  0.66890  Biso   1.000  H
  C11      1.0000 0.93270  0.19170  0.63610  Biso   1.000  C
  H4       1.0000 0.95090  0.12790  0.67950  Biso   1.000  H
  C12      1.0000 0.77760  0.39810  0.56880  Biso   1.000  C
  C13      1.0000 0.74430  0.47990  0.50370  Biso   1.000  C
  H5       1.0000 0.76360  0.50330  0.45850  Biso   1.000  H
  C14      1.0000 0.18300  0.02830  0.50380  Biso   1.000  C
  H6       1.0000 0.16110  0.08520  0.45770  Biso   1.000  H
  C15      1.0000 0.18570  0.92380  0.62710  Biso   1.000  C
  H7       1.0000 0.16570  0.90410  0.67220  Biso   1.000  H
  C16      1.0000 0.74690  0.36990  0.63280  Biso   1.000  C
  H8       1.0000 0.76790  0.31390  0.68000  Biso   1.000  H
  Cd2      1.0000 0.55960  0.60735  0.57743  Biso   1.000  Cd
  O3       1.0000 0.55468  0.47620  0.69860  Biso   1.000  O
  O4       1.0000 0.51197  0.59050  0.42600  Biso   1.000  O
  N3       1.0000 0.46910  0.72750  0.58240  Biso   1.000  N
  N4       1.0000 0.65250  0.50120  0.56360  Biso   1.000  N
  C17      1.0000 0.51140  0.39860  0.65580  Biso   1.000  C
  C18      1.0000 0.49010  0.28690  0.70150  Biso   1.000  C
  C19      1.0000 0.47600  0.15370  0.65440  Biso   1.000  C
  C20      1.0000 0.54890  0.10540  0.68180  Biso   1.000  C
  C21      1.0000 0.42600  0.09570  0.71840  Biso   1.000  C
  C22      1.0000 0.41990  0.22730  0.66940  Biso   1.000  C
  C23      1.0000 0.44250  0.82050  0.52690  Biso   1.000  C
  H9       1.0000 0.46740  0.85060  0.48910  Biso   1.000  H
  C24      1.0000 0.38160  0.87770  0.51930  Biso   1.000  C
  H10      1.0000 0.36520  0.94310  0.47640  Biso   1.000  H
  C25      1.0000 0.34460  0.84040  0.57340  Biso   1.000  C
  C26      1.0000 0.37120  0.74170  0.63170  Biso   1.000  C
  H11      1.0000 0.34660  0.70840  0.66890  Biso   1.000  H
  C27      1.0000 0.43270  0.69170  0.63610  Biso   1.000  C
  H12      1.0000 0.45090  0.62790  0.67950  Biso   1.000  H
  C28      1.0000 0.27760  0.89810  0.56880  Biso   1.000  C
  C29      1.0000 0.24430  0.97990  0.50370  Biso   1.000  C
  H13      1.0000 0.26360  0.00330  0.45850  Biso   1.000  H
  C30      1.0000 0.68300  0.52830  0.50380  Biso   1.000  C
  H14      1.0000 0.66110  0.58520  0.45770  Biso   1.000  H
  C31      1.0000 0.68570  0.42380  0.62710  Biso   1.000  C
  H15      1.0000 0.66570  0.40410  0.67220  Biso   1.000  H
  C32      1.0000 0.24690  0.86990  0.63280  Biso   1.000  C
  H16      1.0000 0.26790  0.81390  0.68000  Biso   1.000  H
  Cd3      1.0000 0.94040  0.10735  0.92257  Biso   1.000  Cd
  O5       1.0000 0.94532  0.97620  0.80140  Biso   1.000  O
  O6       1.0000 0.98803  0.09050  0.07400  Biso   1.000  O
  N5       1.0000 0.03090  0.22750  0.91760  Biso   1.000  N
  N6       1.0000 0.84750  0.00120  0.93640  Biso   1.000  N
  C33      1.0000 0.98860  0.89860  0.84420  Biso   1.000  C
  C34      1.0000 0.00990  0.78690  0.79850  Biso   1.000  C
  C35      1.0000 0.02400  0.65370  0.84560  Biso   1.000  C
  C36      1.0000 0.95110  0.60540  0.81820  Biso   1.000  C
  C37      1.0000 0.07400  0.59570  0.78160  Biso   1.000  C
  C38      1.0000 0.08010  0.72730  0.83060  Biso   1.000  C
  C39      1.0000 0.05750  0.32050  0.97310  Biso   1.000  C
  H17      1.0000 0.03260  0.35060  0.01090  Biso   1.000  H
  C40      1.0000 0.11840  0.37770  0.98070  Biso   1.000  C
  H18      1.0000 0.13480  0.44310  0.02360  Biso   1.000  H
  C41      1.0000 0.15540  0.34040  0.92660  Biso   1.000  C
  C42      1.0000 0.12880  0.24170  0.86830  Biso   1.000  C
  H19      1.0000 0.15340  0.20840  0.83110  Biso   1.000  H
  C43      1.0000 0.06730  0.19170  0.86390  Biso   1.000  C
  H20      1.0000 0.04910  0.12790  0.82050  Biso   1.000  H
  C44      1.0000 0.22240  0.39810  0.93120  Biso   1.000  C
  C45      1.0000 0.25570  0.47990  0.99630  Biso   1.000  C
  H21      1.0000 0.23640  0.50330  0.04150  Biso   1.000  H
  C46      1.0000 0.81700  0.02830  0.99620  Biso   1.000  C
  H22      1.0000 0.83890  0.08520  0.04230  Biso   1.000  H
  C47      1.0000 0.81430  0.92380  0.87290  Biso   1.000  C
  H23      1.0000 0.83430  0.90410  0.82780  Biso   1.000  H
  C48      1.0000 0.25310  0.36990  0.86720  Biso   1.000  C
  H24      1.0000 0.23210  0.31390  0.82000  Biso   1.000  H
  Cd4      1.0000 0.44040  0.60735  0.92257  Biso   1.000  Cd
  O7       1.0000 0.44532  0.47620  0.80140  Biso   1.000  O
  O8       1.0000 0.48803  0.59050  0.07400  Biso   1.000  O
  N7       1.0000 0.53090  0.72750  0.91760  Biso   1.000  N
  N8       1.0000 0.34750  0.50120  0.93640  Biso   1.000  N
  C49      1.0000 0.48860  0.39860  0.84420  Biso   1.000  C
  C50      1.0000 0.50990  0.28690  0.79850  Biso   1.000  C
  C51      1.0000 0.52400  0.15370  0.84560  Biso   1.000  C
  C52      1.0000 0.45110  0.10540  0.81820  Biso   1.000  C
  C53      1.0000 0.57400  0.09570  0.78160  Biso   1.000  C
  C54      1.0000 0.58010  0.22730  0.83060  Biso   1.000  C
  C55      1.0000 0.55750  0.82050  0.97310  Biso   1.000  C
  H25      1.0000 0.53260  0.85060  0.01090  Biso   1.000  H
  C56      1.0000 0.61840  0.87770  0.98070  Biso   1.000  C
  H26      1.0000 0.63480  0.94310  0.02360  Biso   1.000  H
  C57      1.0000 0.65540  0.84040  0.92660  Biso   1.000  C
  C58      1.0000 0.62880  0.74170  0.86830  Biso   1.000  C
  H27      1.0000 0.65340  0.70840  0.83110  Biso   1.000  H
  C59      1.0000 0.56730  0.69170  0.86390  Biso   1.000  C
  H28      1.0000 0.54910  0.62790  0.82050  Biso   1.000  H
  C60      1.0000 0.72240  0.89810  0.93120  Biso   1.000  C
  C61      1.0000 0.75570  0.97990  0.99630  Biso   1.000  C
  H29      1.0000 0.73640  0.00330  0.04150  Biso   1.000  H
  C62      1.0000 0.31700  0.52830  0.99620  Biso   1.000  C
  H30      1.0000 0.33890  0.58520  0.04230  Biso   1.000  H
  C63      1.0000 0.31430  0.42380  0.87290  Biso   1.000  C
  H31      1.0000 0.33430  0.40410  0.82780  Biso   1.000  H
  C64      1.0000 0.75310  0.86990  0.86720  Biso   1.000  C
  H32      1.0000 0.73210  0.81390  0.82000  Biso   1.000  H
  Cd5      1.0000 0.94040  0.89265  0.42257  Biso   1.000  Cd
  O9       1.0000 0.94532  0.02380  0.30140  Biso   1.000  O
  O10      1.0000 0.98803  0.90950  0.57400  Biso   1.000  O
  N9       1.0000 0.03090  0.77250  0.41760  Biso   1.000  N
  N10      1.0000 0.84750  0.99880  0.43640  Biso   1.000  N
  C65      1.0000 0.98860  0.10140  0.34420  Biso   1.000  C
  C66      1.0000 0.00990  0.21310  0.29850  Biso   1.000  C
  C67      1.0000 0.02400  0.34630  0.34560  Biso   1.000  C
  C68      1.0000 0.95110  0.39460  0.31820  Biso   1.000  C
  C69      1.0000 0.07400  0.40430  0.28160  Biso   1.000  C
  C70      1.0000 0.08010  0.27270  0.33060  Biso   1.000  C
  C71      1.0000 0.05750  0.67950  0.47310  Biso   1.000  C
  H33      1.0000 0.03260  0.64940  0.51090  Biso   1.000  H
  C72      1.0000 0.11840  0.62230  0.48070  Biso   1.000  C
  H34      1.0000 0.13480  0.55690  0.52360  Biso   1.000  H
  C73      1.0000 0.15540  0.65960  0.42660  Biso   1.000  C
  C74      1.0000 0.12880  0.75830  0.36830  Biso   1.000  C
  H35      1.0000 0.15340  0.79160  0.33110  Biso   1.000  H
  C75      1.0000 0.06730  0.80830  0.36390  Biso   1.000  C
  H36      1.0000 0.04910  0.87210  0.32050  Biso   1.000  H
  C76      1.0000 0.22240  0.60190  0.43120  Biso   1.000  C
  C77      1.0000 0.25570  0.52010  0.49630  Biso   1.000  C
  H37      1.0000 0.23640  0.49670  0.54150  Biso   1.000  H
  C78      1.0000 0.81700  0.97170  0.49620  Biso   1.000  C
  H38      1.0000 0.83890  0.91480  0.54230  Biso   1.000  H
  C79      1.0000 0.81430  0.07620  0.37290  Biso   1.000  C
  H39      1.0000 0.83430  0.09590  0.32780  Biso   1.000  H
  C80      1.0000 0.25310  0.63010  0.36720  Biso   1.000  C
  H40      1.0000 0.23210  0.68610  0.32000  Biso   1.000  H
  Cd6      1.0000 0.44040  0.39265  0.42257  Biso   1.000  Cd
  O11      1.0000 0.44532  0.52380  0.30140  Biso   1.000  O
  O12      1.0000 0.48803  0.40950  0.57400  Biso   1.000  O
  N11      1.0000 0.53090  0.27250  0.41760  Biso   1.000  N
  N12      1.0000 0.34750  0.49880  0.43640  Biso   1.000  N
  C81      1.0000 0.48860  0.60140  0.34420  Biso   1.000  C
  C82      1.0000 0.50990  0.71310  0.29850  Biso   1.000  C
  C83      1.0000 0.52400  0.84630  0.34560  Biso   1.000  C
  C84      1.0000 0.45110  0.89460  0.31820  Biso   1.000  C
  C85      1.0000 0.57400  0.90430  0.28160  Biso   1.000  C
  C86      1.0000 0.58010  0.77270  0.33060  Biso   1.000  C
  C87      1.0000 0.55750  0.17950  0.47310  Biso   1.000  C
  H41      1.0000 0.53260  0.14940  0.51090  Biso   1.000  H
  C88      1.0000 0.61840  0.12230  0.48070  Biso   1.000  C
  H42      1.0000 0.63480  0.05690  0.52360  Biso   1.000  H
  C89      1.0000 0.65540  0.15960  0.42660  Biso   1.000  C
  C90      1.0000 0.62880  0.25830  0.36830  Biso   1.000  C
  H43      1.0000 0.65340  0.29160  0.33110  Biso   1.000  H
  C91      1.0000 0.56730  0.30830  0.36390  Biso   1.000  C
  H44      1.0000 0.54910  0.37210  0.32050  Biso   1.000  H
  C92      1.0000 0.72240  0.10190  0.43120  Biso   1.000  C
  C93      1.0000 0.75570  0.02010  0.49630  Biso   1.000  C
  H45      1.0000 0.73640  0.99670  0.54150  Biso   1.000  H
  C94      1.0000 0.31700  0.47170  0.49620  Biso   1.000  C
  H46      1.0000 0.33890  0.41480  0.54230  Biso   1.000  H
  C95      1.0000 0.31430  0.57620  0.37290  Biso   1.000  C
  H47      1.0000 0.33430  0.59590  0.32780  Biso   1.000  H
  C96      1.0000 0.75310  0.13010  0.36720  Biso   1.000  C
  H48      1.0000 0.73210  0.18610  0.32000  Biso   1.000  H
  Cd7      1.0000 0.05960  0.89265  0.07743  Biso   1.000  Cd
  O13      1.0000 0.05468  0.02380  0.19860  Biso   1.000  O
  O14      1.0000 0.01197  0.90950  0.92600  Biso   1.000  O
  N13      1.0000 0.96910  0.77250  0.08240  Biso   1.000  N
  N14      1.0000 0.15250  0.99880  0.06360  Biso   1.000  N
  C97      1.0000 0.01140  0.10140  0.15580  Biso   1.000  C
  C98      1.0000 0.99010  0.21310  0.20150  Biso   1.000  C
  C99      1.0000 0.97600  0.34630  0.15440  Biso   1.000  C
  C100     1.0000 0.04890  0.39460  0.18180  Biso   1.000  C
  C101     1.0000 0.92600  0.40430  0.21840  Biso   1.000  C
  C102     1.0000 0.91990  0.27270  0.16940  Biso   1.000  C
  C103     1.0000 0.94250  0.67950  0.02690  Biso   1.000  C
  H49      1.0000 0.96740  0.64940  0.98910  Biso   1.000  H
  C104     1.0000 0.88160  0.62230  0.01930  Biso   1.000  C
  H50      1.0000 0.86520  0.55690  0.97640  Biso   1.000  H
  C105     1.0000 0.84460  0.65960  0.07340  Biso   1.000  C
  C106     1.0000 0.87120  0.75830  0.13170  Biso   1.000  C
  H51      1.0000 0.84660  0.79160  0.16890  Biso   1.000  H
  C107     1.0000 0.93270  0.80830  0.13610  Biso   1.000  C
  H52      1.0000 0.95090  0.87210  0.17950  Biso   1.000  H
  C108     1.0000 0.77760  0.60190  0.06880  Biso   1.000  C
  C109     1.0000 0.74430  0.52010  0.00370  Biso   1.000  C
  H53      1.0000 0.76360  0.49670  0.95850  Biso   1.000  H
  C110     1.0000 0.18300  0.97170  0.00380  Biso   1.000  C
  H54      1.0000 0.16110  0.91480  0.95770  Biso   1.000  H
  C111     1.0000 0.18570  0.07620  0.12710  Biso   1.000  C
  H55      1.0000 0.16570  0.09590  0.17220  Biso   1.000  H
  C112     1.0000 0.74690  0.63010  0.13280  Biso   1.000  C
  H56      1.0000 0.76790  0.68610  0.18000  Biso   1.000  H
  Cd8      1.0000 0.55960  0.39265  0.07743  Biso   1.000  Cd
  O15      1.0000 0.55468  0.52380  0.19860  Biso   1.000  O
  O16      1.0000 0.51197  0.40950  0.92600  Biso   1.000  O
  N15      1.0000 0.46910  0.27250  0.08240  Biso   1.000  N
  N16      1.0000 0.65250  0.49880  0.06360  Biso   1.000  N
  C113     1.0000 0.51140  0.60140  0.15580  Biso   1.000  C
  C114     1.0000 0.49010  0.71310  0.20150  Biso   1.000  C
  C115     1.0000 0.47600  0.84630  0.15440  Biso   1.000  C
  C116     1.0000 0.54890  0.89460  0.18180  Biso   1.000  C
  C117     1.0000 0.42600  0.90430  0.21840  Biso   1.000  C
  C118     1.0000 0.41990  0.77270  0.16940  Biso   1.000  C
  C119     1.0000 0.44250  0.17950  0.02690  Biso   1.000  C
  H57      1.0000 0.46740  0.14940  0.98910  Biso   1.000  H
  C120     1.0000 0.38160  0.12230  0.01930  Biso   1.000  C
  H58      1.0000 0.36520  0.05690  0.97640  Biso   1.000  H
  C121     1.0000 0.34460  0.15960  0.07340  Biso   1.000  C
  C122     1.0000 0.37120  0.25830  0.13170  Biso   1.000  C
  H59      1.0000 0.34660  0.29160  0.16890  Biso   1.000  H
  C123     1.0000 0.43270  0.30830  0.13610  Biso   1.000  C
  H60      1.0000 0.45090  0.37210  0.17950  Biso   1.000  H
  C124     1.0000 0.27760  0.10190  0.06880  Biso   1.000  C
  C125     1.0000 0.24430  0.02010  0.00370  Biso   1.000  C
  H61      1.0000 0.26360  0.99670  0.95850  Biso   1.000  H
  C126     1.0000 0.68300  0.47170  0.00380  Biso   1.000  C
  H62      1.0000 0.66110  0.41480  0.95770  Biso   1.000  H
  C127     1.0000 0.68570  0.57620  0.12710  Biso   1.000  C
  H63      1.0000 0.66570  0.59590  0.17220  Biso   1.000  H
  C128     1.0000 0.24690  0.13010  0.13280  Biso   1.000  C
  H64      1.0000 0.26790  0.18610  0.18000  Biso   1.000  H
