data_image0
_cell_length_a       32.1446
_cell_length_b       32.1446
_cell_length_c       10.9808
_cell_angle_alpha    90
_cell_angle_beta     90
_cell_angle_gamma    90

_symmetry_space_group_name_H-M    "P 1"
_symmetry_int_tables_number       1

loop_
  _symmetry_equiv_pos_as_xyz
  'x, y, z'

loop_
  _atom_site_label
  _atom_site_occupancy
  _atom_site_fract_x
  _atom_site_fract_y
  _atom_site_fract_z
  _atom_site_thermal_displace_type
  _atom_site_B_iso_or_equiv
  _atom_site_type_symbol
  Zn1      1.0000 0.28384  0.71609  0.60755  Biso   1.000  Zn
  N1       1.0000 0.27538  0.85586  0.88010  Biso   1.000  N
  O1       1.0000 0.41850  0.79995  0.08810  Biso   1.000  O
  N2       1.0000 0.25632  0.81067  0.72140  Biso   1.000  N
  N3       1.0000 0.34388  0.84370  0.01760  Biso   1.000  N
  H1       1.0000 0.32750  0.86470  0.02320  Biso   1.000  H
  H2       1.0000 0.36500  0.84170  0.06510  Biso   1.000  H
  O2       1.0000 0.65682  0.15720  0.67910  Biso   1.000  O
  C1       1.0000 0.24520  0.84790  0.78260  Biso   1.000  C
  H3       1.0000 0.22250  0.86460  0.76390  Biso   1.000  H
  O3       1.0000 0.68120  0.18160  0.50450  Biso   1.000  O
  C2       1.0000 0.65880  0.15560  0.56750  Biso   1.000  C
  C3       1.0000 0.33529  0.80943  0.92210  Biso   1.000  C
  C4       1.0000 0.29962  0.82003  0.85760  Biso   1.000  C
  C5       1.0000 0.28648  0.79541  0.76090  Biso   1.000  C
  N4       1.0000 0.30901  0.76018  0.72870  Biso   1.000  N
  C6       1.0000 0.34468  0.74957  0.79320  Biso   1.000  C
  H4       1.0000 0.35980  0.72600  0.77160  Biso   1.000  H
  N5       1.0000 0.35782  0.77420  0.88980  Biso   1.000  N
  C7       1.0000 0.59960  0.11110  0.54010  Biso   1.000  C
  H5       1.0000 0.58880  0.12410  0.60890  Biso   1.000  H
  C8       1.0000 0.57590  0.08200  0.47730  Biso   1.000  C
  H6       1.0000 0.54920  0.07550  0.50410  Biso   1.000  H
  C9       1.0000 0.59200  0.06270  0.37440  Biso   1.000  C
  C10      1.0000 0.63180  0.07240  0.33430  Biso   1.000  C
  H7       1.0000 0.64260  0.05950  0.26540  Biso   1.000  H
  C11      1.0000 0.65550  0.10150  0.39700  Biso   1.000  C
  H8       1.0000 0.68220  0.10810  0.37020  Biso   1.000  H
  C12      1.0000 0.63940  0.12090  0.50000  Biso   1.000  C
  O4       1.0000 0.45870  0.79590  0.92860  Biso   1.000  O
  C13      1.0000 0.45000  0.81420  0.02900  Biso   1.000  C
  C14      1.0000 0.47410  0.84720  0.08200  Biso   1.000  C
  C15      1.0000 0.46410  0.86330  0.19570  Biso   1.000  C
  H9       1.0000 0.44300  0.85130  0.24160  Biso   1.000  H
  C16      1.0000 0.48560  0.89750  0.24100  Biso   1.000  C
  H10      1.0000 0.47890  0.90830  0.31700  Biso   1.000  H
  C17      1.0000 0.51720  0.91550  0.17240  Biso   1.000  C
  C18      1.0000 0.52720  0.89940  0.05870  Biso   1.000  C
  H11      1.0000 0.54830  0.91150  0.01280  Biso   1.000  H
  C19      1.0000 0.50570  0.86530  0.01350  Biso   1.000  C
  H12      1.0000 0.51240  0.85450  0.93740  Biso   1.000  H
  C20      1.0000 0.56840  0.02920  0.31420  Biso   1.000  C
  C21      1.0000 0.54130  0.95100  0.21400  Biso   1.000  C
  C22      1.0000 0.54960  0.96180  0.33400  Biso   1.000  C
  C23      1.0000 0.56250  0.02880  0.18700  Biso   1.000  C
  C24      1.0000 0.56070  0.99760  0.40000  Biso   1.000  C
  H13      1.0000 0.56260  0.00000  0.48440  Biso   1.000  H
  C25      1.0000 0.54280  0.99090  0.15700  Biso   1.000  C
  H14      1.0000 0.52780  0.99220  0.08440  Biso   1.000  H
  C26      1.0000 0.57360  0.06380  0.09900  Biso   1.000  C
  H15      1.0000 0.60340  0.06420  0.09250  Biso   1.000  H
  H16      1.0000 0.56180  0.05660  0.02140  Biso   1.000  H
  H17      1.0000 0.56380  0.09080  0.12290  Biso   1.000  H
  C27      1.0000 0.55310  0.92620  0.40200  Biso   1.000  C
  H18      1.0000 0.53630  0.93180  0.47260  Biso   1.000  H
  H19      1.0000 0.58120  0.92090  0.42720  Biso   1.000  H
  H20      1.0000 0.54240  0.90230  0.36030  Biso   1.000  H
  Zn2      1.0000 0.21616  0.78391  0.60755  Biso   1.000  Zn
  N6       1.0000 0.22462  0.64414  0.88010  Biso   1.000  N
  O5       1.0000 0.08150  0.70005  0.08810  Biso   1.000  O
  N7       1.0000 0.24368  0.68933  0.72140  Biso   1.000  N
  N8       1.0000 0.15612  0.65630  0.01760  Biso   1.000  N
  H21      1.0000 0.17250  0.63530  0.02320  Biso   1.000  H
  H22      1.0000 0.13500  0.65830  0.06510  Biso   1.000  H
  O6       1.0000 0.84318  0.34280  0.67910  Biso   1.000  O
  C28      1.0000 0.25480  0.65210  0.78260  Biso   1.000  C
  H23      1.0000 0.27750  0.63540  0.76390  Biso   1.000  H
  O7       1.0000 0.81880  0.31840  0.50450  Biso   1.000  O
  C29      1.0000 0.84120  0.34440  0.56750  Biso   1.000  C
  C30      1.0000 0.16471  0.69057  0.92210  Biso   1.000  C
  C31      1.0000 0.20038  0.67997  0.85760  Biso   1.000  C
  C32      1.0000 0.21352  0.70459  0.76090  Biso   1.000  C
  N9       1.0000 0.19099  0.73982  0.72870  Biso   1.000  N
  C33      1.0000 0.15532  0.75043  0.79320  Biso   1.000  C
  H24      1.0000 0.14020  0.77400  0.77160  Biso   1.000  H
  N10      1.0000 0.14218  0.72580  0.88980  Biso   1.000  N
  C34      1.0000 0.90040  0.38890  0.54010  Biso   1.000  C
  H25      1.0000 0.91120  0.37590  0.60890  Biso   1.000  H
  C35      1.0000 0.92410  0.41800  0.47730  Biso   1.000  C
  H26      1.0000 0.95080  0.42450  0.50410  Biso   1.000  H
  C36      1.0000 0.90800  0.43730  0.37440  Biso   1.000  C
  C37      1.0000 0.86820  0.42760  0.33430  Biso   1.000  C
  H27      1.0000 0.85740  0.44050  0.26540  Biso   1.000  H
  C38      1.0000 0.84450  0.39850  0.39700  Biso   1.000  C
  H28      1.0000 0.81780  0.39190  0.37020  Biso   1.000  H
  C39      1.0000 0.86060  0.37910  0.50000  Biso   1.000  C
  O8       1.0000 0.04130  0.70410  0.92860  Biso   1.000  O
  C40      1.0000 0.05000  0.68580  0.02900  Biso   1.000  C
  C41      1.0000 0.02590  0.65280  0.08200  Biso   1.000  C
  C42      1.0000 0.03590  0.63670  0.19570  Biso   1.000  C
  H29      1.0000 0.05700  0.64870  0.24160  Biso   1.000  H
  C43      1.0000 0.01440  0.60250  0.24100  Biso   1.000  C
  H30      1.0000 0.02110  0.59170  0.31700  Biso   1.000  H
  C44      1.0000 0.98280  0.58450  0.17240  Biso   1.000  C
  C45      1.0000 0.97280  0.60060  0.05870  Biso   1.000  C
  H31      1.0000 0.95170  0.58850  0.01280  Biso   1.000  H
  C46      1.0000 0.99430  0.63470  0.01350  Biso   1.000  C
  H32      1.0000 0.98760  0.64550  0.93740  Biso   1.000  H
  C47      1.0000 0.93160  0.47080  0.31420  Biso   1.000  C
  C48      1.0000 0.95870  0.54900  0.21400  Biso   1.000  C
  C49      1.0000 0.95040  0.53820  0.33400  Biso   1.000  C
  C50      1.0000 0.93750  0.47120  0.18700  Biso   1.000  C
  C51      1.0000 0.93930  0.50240  0.40000  Biso   1.000  C
  H33      1.0000 0.93740  0.50000  0.48440  Biso   1.000  H
  C52      1.0000 0.95720  0.50910  0.15700  Biso   1.000  C
  H34      1.0000 0.97220  0.50780  0.08440  Biso   1.000  H
  C53      1.0000 0.92640  0.43620  0.09900  Biso   1.000  C
  H35      1.0000 0.89660  0.43580  0.09250  Biso   1.000  H
  H36      1.0000 0.93820  0.44340  0.02140  Biso   1.000  H
  H37      1.0000 0.93620  0.40920  0.12290  Biso   1.000  H
  C54      1.0000 0.94690  0.57380  0.40200  Biso   1.000  C
  H38      1.0000 0.96370  0.56820  0.47260  Biso   1.000  H
  H39      1.0000 0.91880  0.57910  0.42720  Biso   1.000  H
  H40      1.0000 0.95760  0.59770  0.36030  Biso   1.000  H
  Zn3      1.0000 0.21616  0.71609  0.39245  Biso   1.000  Zn
  N11      1.0000 0.22462  0.85586  0.11990  Biso   1.000  N
  O9       1.0000 0.08150  0.79995  0.91190  Biso   1.000  O
  N12      1.0000 0.24368  0.81067  0.27860  Biso   1.000  N
  N13      1.0000 0.15612  0.84370  0.98240  Biso   1.000  N
  H41      1.0000 0.17250  0.86470  0.97680  Biso   1.000  H
  H42      1.0000 0.13500  0.84170  0.93490  Biso   1.000  H
  O10      1.0000 0.84318  0.15720  0.32090  Biso   1.000  O
  C55      1.0000 0.25480  0.84790  0.21740  Biso   1.000  C
  H43      1.0000 0.27750  0.86460  0.23610  Biso   1.000  H
  O11      1.0000 0.81880  0.18160  0.49550  Biso   1.000  O
  C56      1.0000 0.84120  0.15560  0.43250  Biso   1.000  C
  C57      1.0000 0.16471  0.80943  0.07790  Biso   1.000  C
  C58      1.0000 0.20038  0.82003  0.14240  Biso   1.000  C
  C59      1.0000 0.21352  0.79541  0.23910  Biso   1.000  C
  N14      1.0000 0.19099  0.76018  0.27130  Biso   1.000  N
  C60      1.0000 0.15532  0.74957  0.20680  Biso   1.000  C
  H44      1.0000 0.14020  0.72600  0.22840  Biso   1.000  H
  N15      1.0000 0.14218  0.77420  0.11020  Biso   1.000  N
  C61      1.0000 0.90040  0.11110  0.45990  Biso   1.000  C
  H45      1.0000 0.91120  0.12410  0.39110  Biso   1.000  H
  C62      1.0000 0.92410  0.08200  0.52270  Biso   1.000  C
  H46      1.0000 0.95080  0.07550  0.49590  Biso   1.000  H
  C63      1.0000 0.90800  0.06270  0.62560  Biso   1.000  C
  C64      1.0000 0.86820  0.07240  0.66570  Biso   1.000  C
  H47      1.0000 0.85740  0.05950  0.73460  Biso   1.000  H
  C65      1.0000 0.84450  0.10150  0.60300  Biso   1.000  C
  H48      1.0000 0.81780  0.10810  0.62980  Biso   1.000  H
  C66      1.0000 0.86060  0.12090  0.50000  Biso   1.000  C
  O12      1.0000 0.04130  0.79590  0.07140  Biso   1.000  O
  C67      1.0000 0.05000  0.81420  0.97100  Biso   1.000  C
  C68      1.0000 0.02590  0.84720  0.91800  Biso   1.000  C
  C69      1.0000 0.03590  0.86330  0.80430  Biso   1.000  C
  H49      1.0000 0.05700  0.85130  0.75840  Biso   1.000  H
  C70      1.0000 0.01440  0.89750  0.75900  Biso   1.000  C
  H50      1.0000 0.02110  0.90830  0.68300  Biso   1.000  H
  C71      1.0000 0.98280  0.91550  0.82760  Biso   1.000  C
  C72      1.0000 0.97280  0.89940  0.94130  Biso   1.000  C
  H51      1.0000 0.95170  0.91150  0.98720  Biso   1.000  H
  C73      1.0000 0.99430  0.86530  0.98650  Biso   1.000  C
  H52      1.0000 0.98760  0.85450  0.06260  Biso   1.000  H
  C74      1.0000 0.93160  0.02920  0.68580  Biso   1.000  C
  C75      1.0000 0.95870  0.95100  0.78600  Biso   1.000  C
  C76      1.0000 0.95040  0.96180  0.66600  Biso   1.000  C
  C77      1.0000 0.93750  0.02880  0.81300  Biso   1.000  C
  C78      1.0000 0.93930  0.99760  0.60000  Biso   1.000  C
  H53      1.0000 0.93740  0.00000  0.51560  Biso   1.000  H
  C79      1.0000 0.95720  0.99090  0.84300  Biso   1.000  C
  H54      1.0000 0.97220  0.99220  0.91560  Biso   1.000  H
  C80      1.0000 0.92640  0.06380  0.90100  Biso   1.000  C
  H55      1.0000 0.89660  0.06420  0.90750  Biso   1.000  H
  H56      1.0000 0.93820  0.05660  0.97860  Biso   1.000  H
  H57      1.0000 0.93620  0.09080  0.87710  Biso   1.000  H
  C81      1.0000 0.94690  0.92620  0.59800  Biso   1.000  C
  H58      1.0000 0.96370  0.93180  0.52740  Biso   1.000  H
  H59      1.0000 0.91880  0.92090  0.57280  Biso   1.000  H
  H60      1.0000 0.95760  0.90230  0.63970  Biso   1.000  H
  Zn4      1.0000 0.28384  0.78391  0.39245  Biso   1.000  Zn
  N16      1.0000 0.27538  0.64414  0.11990  Biso   1.000  N
  O13      1.0000 0.41850  0.70005  0.91190  Biso   1.000  O
  N17      1.0000 0.25632  0.68933  0.27860  Biso   1.000  N
  N18      1.0000 0.34388  0.65630  0.98240  Biso   1.000  N
  H61      1.0000 0.32750  0.63530  0.97680  Biso   1.000  H
  H62      1.0000 0.36500  0.65830  0.93490  Biso   1.000  H
  O14      1.0000 0.65682  0.34280  0.32090  Biso   1.000  O
  C82      1.0000 0.24520  0.65210  0.21740  Biso   1.000  C
  H63      1.0000 0.22250  0.63540  0.23610  Biso   1.000  H
  O15      1.0000 0.68120  0.31840  0.49550  Biso   1.000  O
  C83      1.0000 0.65880  0.34440  0.43250  Biso   1.000  C
  C84      1.0000 0.33529  0.69057  0.07790  Biso   1.000  C
  C85      1.0000 0.29962  0.67997  0.14240  Biso   1.000  C
  C86      1.0000 0.28648  0.70459  0.23910  Biso   1.000  C
  N19      1.0000 0.30901  0.73982  0.27130  Biso   1.000  N
  C87      1.0000 0.34468  0.75043  0.20680  Biso   1.000  C
  H64      1.0000 0.35980  0.77400  0.22840  Biso   1.000  H
  N20      1.0000 0.35782  0.72580  0.11020  Biso   1.000  N
  C88      1.0000 0.59960  0.38890  0.45990  Biso   1.000  C
  H65      1.0000 0.58880  0.37590  0.39110  Biso   1.000  H
  C89      1.0000 0.57590  0.41800  0.52270  Biso   1.000  C
  H66      1.0000 0.54920  0.42450  0.49590  Biso   1.000  H
  C90      1.0000 0.59200  0.43730  0.62560  Biso   1.000  C
  C91      1.0000 0.63180  0.42760  0.66570  Biso   1.000  C
  H67      1.0000 0.64260  0.44050  0.73460  Biso   1.000  H
  C92      1.0000 0.65550  0.39850  0.60300  Biso   1.000  C
  H68      1.0000 0.68220  0.39190  0.62980  Biso   1.000  H
  C93      1.0000 0.63940  0.37910  0.50000  Biso   1.000  C
  O16      1.0000 0.45870  0.70410  0.07140  Biso   1.000  O
  C94      1.0000 0.45000  0.68580  0.97100  Biso   1.000  C
  C95      1.0000 0.47410  0.65280  0.91800  Biso   1.000  C
  C96      1.0000 0.46410  0.63670  0.80430  Biso   1.000  C
  H69      1.0000 0.44300  0.64870  0.75840  Biso   1.000  H
  C97      1.0000 0.48560  0.60250  0.75900  Biso   1.000  C
  H70      1.0000 0.47890  0.59170  0.68300  Biso   1.000  H
  C98      1.0000 0.51720  0.58450  0.82760  Biso   1.000  C
  C99      1.0000 0.52720  0.60060  0.94130  Biso   1.000  C
  H71      1.0000 0.54830  0.58850  0.98720  Biso   1.000  H
  C100     1.0000 0.50570  0.63470  0.98650  Biso   1.000  C
  H72      1.0000 0.51240  0.64550  0.06260  Biso   1.000  H
  C101     1.0000 0.56840  0.47080  0.68580  Biso   1.000  C
  C102     1.0000 0.54130  0.54900  0.78600  Biso   1.000  C
  C103     1.0000 0.54960  0.53820  0.66600  Biso   1.000  C
  C104     1.0000 0.56250  0.47120  0.81300  Biso   1.000  C
  C105     1.0000 0.56070  0.50240  0.60000  Biso   1.000  C
  H73      1.0000 0.56260  0.50000  0.51560  Biso   1.000  H
  C106     1.0000 0.54280  0.50910  0.84300  Biso   1.000  C
  H74      1.0000 0.52780  0.50780  0.91560  Biso   1.000  H
  C107     1.0000 0.57360  0.43620  0.90100  Biso   1.000  C
  H75      1.0000 0.60340  0.43580  0.90750  Biso   1.000  H
  H76      1.0000 0.56180  0.44340  0.97860  Biso   1.000  H
  H77      1.0000 0.56380  0.40920  0.87710  Biso   1.000  H
  C108     1.0000 0.55310  0.57380  0.59800  Biso   1.000  C
  H78      1.0000 0.53630  0.56820  0.52740  Biso   1.000  H
  H79      1.0000 0.58120  0.57910  0.57280  Biso   1.000  H
  H80      1.0000 0.54240  0.59770  0.63970  Biso   1.000  H
  Zn5      1.0000 0.71616  0.28391  0.39245  Biso   1.000  Zn
  N21      1.0000 0.72462  0.14414  0.11990  Biso   1.000  N
  O17      1.0000 0.58150  0.20005  0.91190  Biso   1.000  O
  N22      1.0000 0.74368  0.18933  0.27860  Biso   1.000  N
  N23      1.0000 0.65612  0.15630  0.98240  Biso   1.000  N
  H81      1.0000 0.67250  0.13530  0.97680  Biso   1.000  H
  H82      1.0000 0.63500  0.15830  0.93490  Biso   1.000  H
  O18      1.0000 0.34318  0.84280  0.32090  Biso   1.000  O
  C109     1.0000 0.75480  0.15210  0.21740  Biso   1.000  C
  H83      1.0000 0.77750  0.13540  0.23610  Biso   1.000  H
  O19      1.0000 0.31880  0.81840  0.49550  Biso   1.000  O
  C110     1.0000 0.34120  0.84440  0.43250  Biso   1.000  C
  C111     1.0000 0.66471  0.19057  0.07790  Biso   1.000  C
  C112     1.0000 0.70038  0.17997  0.14240  Biso   1.000  C
  C113     1.0000 0.71352  0.20459  0.23910  Biso   1.000  C
  N24      1.0000 0.69099  0.23982  0.27130  Biso   1.000  N
  C114     1.0000 0.65532  0.25043  0.20680  Biso   1.000  C
  H84      1.0000 0.64020  0.27400  0.22840  Biso   1.000  H
  N25      1.0000 0.64218  0.22580  0.11020  Biso   1.000  N
  C115     1.0000 0.40040  0.88890  0.45990  Biso   1.000  C
  H85      1.0000 0.41120  0.87590  0.39110  Biso   1.000  H
  C116     1.0000 0.42410  0.91800  0.52270  Biso   1.000  C
  H86      1.0000 0.45080  0.92450  0.49590  Biso   1.000  H
  C117     1.0000 0.40800  0.93730  0.62560  Biso   1.000  C
  C118     1.0000 0.36820  0.92760  0.66570  Biso   1.000  C
  H87      1.0000 0.35740  0.94050  0.73460  Biso   1.000  H
  C119     1.0000 0.34450  0.89850  0.60300  Biso   1.000  C
  H88      1.0000 0.31780  0.89190  0.62980  Biso   1.000  H
  C120     1.0000 0.36060  0.87910  0.50000  Biso   1.000  C
  O20      1.0000 0.54130  0.20410  0.07140  Biso   1.000  O
  C121     1.0000 0.55000  0.18580  0.97100  Biso   1.000  C
  C122     1.0000 0.52590  0.15280  0.91800  Biso   1.000  C
  C123     1.0000 0.53590  0.13670  0.80430  Biso   1.000  C
  H89      1.0000 0.55700  0.14870  0.75840  Biso   1.000  H
  C124     1.0000 0.51440  0.10250  0.75900  Biso   1.000  C
  H90      1.0000 0.52110  0.09170  0.68300  Biso   1.000  H
  C125     1.0000 0.48280  0.08450  0.82760  Biso   1.000  C
  C126     1.0000 0.47280  0.10060  0.94130  Biso   1.000  C
  H91      1.0000 0.45170  0.08850  0.98720  Biso   1.000  H
  C127     1.0000 0.49430  0.13470  0.98650  Biso   1.000  C
  H92      1.0000 0.48760  0.14550  0.06260  Biso   1.000  H
  C128     1.0000 0.43160  0.97080  0.68580  Biso   1.000  C
  C129     1.0000 0.45870  0.04900  0.78600  Biso   1.000  C
  C130     1.0000 0.45040  0.03820  0.66600  Biso   1.000  C
  C131     1.0000 0.43750  0.97120  0.81300  Biso   1.000  C
  C132     1.0000 0.43930  0.00240  0.60000  Biso   1.000  C
  H93      1.0000 0.43740  0.00000  0.51560  Biso   1.000  H
  C133     1.0000 0.45720  0.00910  0.84300  Biso   1.000  C
  H94      1.0000 0.47220  0.00780  0.91560  Biso   1.000  H
  C134     1.0000 0.42640  0.93620  0.90100  Biso   1.000  C
  H95      1.0000 0.39660  0.93580  0.90750  Biso   1.000  H
  H96      1.0000 0.43820  0.94340  0.97860  Biso   1.000  H
  H97      1.0000 0.43620  0.90920  0.87710  Biso   1.000  H
  C135     1.0000 0.44690  0.07380  0.59800  Biso   1.000  C
  H98      1.0000 0.46370  0.06820  0.52740  Biso   1.000  H
  H99      1.0000 0.41880  0.07910  0.57280  Biso   1.000  H
  H100     1.0000 0.45760  0.09770  0.63970  Biso   1.000  H
  Zn6      1.0000 0.78384  0.21609  0.39245  Biso   1.000  Zn
  N26      1.0000 0.77538  0.35586  0.11990  Biso   1.000  N
  O21      1.0000 0.91850  0.29995  0.91190  Biso   1.000  O
  N27      1.0000 0.75632  0.31067  0.27860  Biso   1.000  N
  N28      1.0000 0.84388  0.34370  0.98240  Biso   1.000  N
  H101     1.0000 0.82750  0.36470  0.97680  Biso   1.000  H
  H102     1.0000 0.86500  0.34170  0.93490  Biso   1.000  H
  O22      1.0000 0.15682  0.65720  0.32090  Biso   1.000  O
  C136     1.0000 0.74520  0.34790  0.21740  Biso   1.000  C
  H103     1.0000 0.72250  0.36460  0.23610  Biso   1.000  H
  O23      1.0000 0.18120  0.68160  0.49550  Biso   1.000  O
  C137     1.0000 0.15880  0.65560  0.43250  Biso   1.000  C
  C138     1.0000 0.83529  0.30943  0.07790  Biso   1.000  C
  C139     1.0000 0.79962  0.32003  0.14240  Biso   1.000  C
  C140     1.0000 0.78648  0.29541  0.23910  Biso   1.000  C
  N29      1.0000 0.80901  0.26018  0.27130  Biso   1.000  N
  C141     1.0000 0.84468  0.24957  0.20680  Biso   1.000  C
  H104     1.0000 0.85980  0.22600  0.22840  Biso   1.000  H
  N30      1.0000 0.85782  0.27420  0.11020  Biso   1.000  N
  C142     1.0000 0.09960  0.61110  0.45990  Biso   1.000  C
  H105     1.0000 0.08880  0.62410  0.39110  Biso   1.000  H
  C143     1.0000 0.07590  0.58200  0.52270  Biso   1.000  C
  H106     1.0000 0.04920  0.57550  0.49590  Biso   1.000  H
  C144     1.0000 0.09200  0.56270  0.62560  Biso   1.000  C
  C145     1.0000 0.13180  0.57240  0.66570  Biso   1.000  C
  H107     1.0000 0.14260  0.55950  0.73460  Biso   1.000  H
  C146     1.0000 0.15550  0.60150  0.60300  Biso   1.000  C
  H108     1.0000 0.18220  0.60810  0.62980  Biso   1.000  H
  C147     1.0000 0.13940  0.62090  0.50000  Biso   1.000  C
  O24      1.0000 0.95870  0.29590  0.07140  Biso   1.000  O
  C148     1.0000 0.95000  0.31420  0.97100  Biso   1.000  C
  C149     1.0000 0.97410  0.34720  0.91800  Biso   1.000  C
  C150     1.0000 0.96410  0.36330  0.80430  Biso   1.000  C
  H109     1.0000 0.94300  0.35130  0.75840  Biso   1.000  H
  C151     1.0000 0.98560  0.39750  0.75900  Biso   1.000  C
  H110     1.0000 0.97890  0.40830  0.68300  Biso   1.000  H
  C152     1.0000 0.01720  0.41550  0.82760  Biso   1.000  C
  C153     1.0000 0.02720  0.39940  0.94130  Biso   1.000  C
  H111     1.0000 0.04830  0.41150  0.98720  Biso   1.000  H
  C154     1.0000 0.00570  0.36530  0.98650  Biso   1.000  C
  H112     1.0000 0.01240  0.35450  0.06260  Biso   1.000  H
  C155     1.0000 0.06840  0.52920  0.68580  Biso   1.000  C
  C156     1.0000 0.04130  0.45100  0.78600  Biso   1.000  C
  C157     1.0000 0.04960  0.46180  0.66600  Biso   1.000  C
  C158     1.0000 0.06250  0.52880  0.81300  Biso   1.000  C
  C159     1.0000 0.06070  0.49760  0.60000  Biso   1.000  C
  H113     1.0000 0.06260  0.50000  0.51560  Biso   1.000  H
  C160     1.0000 0.04280  0.49090  0.84300  Biso   1.000  C
  H114     1.0000 0.02780  0.49220  0.91560  Biso   1.000  H
  C161     1.0000 0.07360  0.56380  0.90100  Biso   1.000  C
  H115     1.0000 0.10340  0.56420  0.90750  Biso   1.000  H
  H116     1.0000 0.06180  0.55660  0.97860  Biso   1.000  H
  H117     1.0000 0.06380  0.59080  0.87710  Biso   1.000  H
  C162     1.0000 0.05310  0.42620  0.59800  Biso   1.000  C
  H118     1.0000 0.03630  0.43180  0.52740  Biso   1.000  H
  H119     1.0000 0.08120  0.42090  0.57280  Biso   1.000  H
  H120     1.0000 0.04240  0.40230  0.63970  Biso   1.000  H
  Zn7      1.0000 0.78384  0.28391  0.60755  Biso   1.000  Zn
  N31      1.0000 0.77538  0.14414  0.88010  Biso   1.000  N
  O25      1.0000 0.91850  0.20005  0.08810  Biso   1.000  O
  N32      1.0000 0.75632  0.18933  0.72140  Biso   1.000  N
  N33      1.0000 0.84388  0.15630  0.01760  Biso   1.000  N
  H121     1.0000 0.82750  0.13530  0.02320  Biso   1.000  H
  H122     1.0000 0.86500  0.15830  0.06510  Biso   1.000  H
  O26      1.0000 0.15682  0.84280  0.67910  Biso   1.000  O
  C163     1.0000 0.74520  0.15210  0.78260  Biso   1.000  C
  H123     1.0000 0.72250  0.13540  0.76390  Biso   1.000  H
  O27      1.0000 0.18120  0.81840  0.50450  Biso   1.000  O
  C164     1.0000 0.15880  0.84440  0.56750  Biso   1.000  C
  C165     1.0000 0.83529  0.19057  0.92210  Biso   1.000  C
  C166     1.0000 0.79962  0.17997  0.85760  Biso   1.000  C
  C167     1.0000 0.78648  0.20459  0.76090  Biso   1.000  C
  N34      1.0000 0.80901  0.23982  0.72870  Biso   1.000  N
  C168     1.0000 0.84468  0.25043  0.79320  Biso   1.000  C
  H124     1.0000 0.85980  0.27400  0.77160  Biso   1.000  H
  N35      1.0000 0.85782  0.22580  0.88980  Biso   1.000  N
  C169     1.0000 0.09960  0.88890  0.54010  Biso   1.000  C
  H125     1.0000 0.08880  0.87590  0.60890  Biso   1.000  H
  C170     1.0000 0.07590  0.91800  0.47730  Biso   1.000  C
  H126     1.0000 0.04920  0.92450  0.50410  Biso   1.000  H
  C171     1.0000 0.09200  0.93730  0.37440  Biso   1.000  C
  C172     1.0000 0.13180  0.92760  0.33430  Biso   1.000  C
  H127     1.0000 0.14260  0.94050  0.26540  Biso   1.000  H
  C173     1.0000 0.15550  0.89850  0.39700  Biso   1.000  C
  H128     1.0000 0.18220  0.89190  0.37020  Biso   1.000  H
  C174     1.0000 0.13940  0.87910  0.50000  Biso   1.000  C
  O28      1.0000 0.95870  0.20410  0.92860  Biso   1.000  O
  C175     1.0000 0.95000  0.18580  0.02900  Biso   1.000  C
  C176     1.0000 0.97410  0.15280  0.08200  Biso   1.000  C
  C177     1.0000 0.96410  0.13670  0.19570  Biso   1.000  C
  H129     1.0000 0.94300  0.14870  0.24160  Biso   1.000  H
  C178     1.0000 0.98560  0.10250  0.24100  Biso   1.000  C
  H130     1.0000 0.97890  0.09170  0.31700  Biso   1.000  H
  C179     1.0000 0.01720  0.08450  0.17240  Biso   1.000  C
  C180     1.0000 0.02720  0.10060  0.05870  Biso   1.000  C
  H131     1.0000 0.04830  0.08850  0.01280  Biso   1.000  H
  C181     1.0000 0.00570  0.13470  0.01350  Biso   1.000  C
  H132     1.0000 0.01240  0.14550  0.93740  Biso   1.000  H
  C182     1.0000 0.06840  0.97080  0.31420  Biso   1.000  C
  C183     1.0000 0.04130  0.04900  0.21400  Biso   1.000  C
  C184     1.0000 0.04960  0.03820  0.33400  Biso   1.000  C
  C185     1.0000 0.06250  0.97120  0.18700  Biso   1.000  C
  C186     1.0000 0.06070  0.00240  0.40000  Biso   1.000  C
  H133     1.0000 0.06260  0.00000  0.48440  Biso   1.000  H
  C187     1.0000 0.04280  0.00910  0.15700  Biso   1.000  C
  H134     1.0000 0.02780  0.00780  0.08440  Biso   1.000  H
  C188     1.0000 0.07360  0.93620  0.09900  Biso   1.000  C
  H135     1.0000 0.10340  0.93580  0.09250  Biso   1.000  H
  H136     1.0000 0.06180  0.94340  0.02140  Biso   1.000  H
  H137     1.0000 0.06380  0.90920  0.12290  Biso   1.000  H
  C189     1.0000 0.05310  0.07380  0.40200  Biso   1.000  C
  H138     1.0000 0.03630  0.06820  0.47260  Biso   1.000  H
  H139     1.0000 0.08120  0.07910  0.42720  Biso   1.000  H
  H140     1.0000 0.04240  0.09770  0.36030  Biso   1.000  H
  Zn8      1.0000 0.71616  0.21609  0.60755  Biso   1.000  Zn
  N36      1.0000 0.72462  0.35586  0.88010  Biso   1.000  N
  O29      1.0000 0.58150  0.29995  0.08810  Biso   1.000  O
  N37      1.0000 0.74368  0.31067  0.72140  Biso   1.000  N
  N38      1.0000 0.65612  0.34370  0.01760  Biso   1.000  N
  H141     1.0000 0.67250  0.36470  0.02320  Biso   1.000  H
  H142     1.0000 0.63500  0.34170  0.06510  Biso   1.000  H
  O30      1.0000 0.34318  0.65720  0.67910  Biso   1.000  O
  C190     1.0000 0.75480  0.34790  0.78260  Biso   1.000  C
  H143     1.0000 0.77750  0.36460  0.76390  Biso   1.000  H
  O31      1.0000 0.31880  0.68160  0.50450  Biso   1.000  O
  C191     1.0000 0.34120  0.65560  0.56750  Biso   1.000  C
  C192     1.0000 0.66471  0.30943  0.92210  Biso   1.000  C
  C193     1.0000 0.70038  0.32003  0.85760  Biso   1.000  C
  C194     1.0000 0.71352  0.29541  0.76090  Biso   1.000  C
  N39      1.0000 0.69099  0.26018  0.72870  Biso   1.000  N
  C195     1.0000 0.65532  0.24957  0.79320  Biso   1.000  C
  H144     1.0000 0.64020  0.22600  0.77160  Biso   1.000  H
  N40      1.0000 0.64218  0.27420  0.88980  Biso   1.000  N
  C196     1.0000 0.40040  0.61110  0.54010  Biso   1.000  C
  H145     1.0000 0.41120  0.62410  0.60890  Biso   1.000  H
  C197     1.0000 0.42410  0.58200  0.47730  Biso   1.000  C
  H146     1.0000 0.45080  0.57550  0.50410  Biso   1.000  H
  C198     1.0000 0.40800  0.56270  0.37440  Biso   1.000  C
  C199     1.0000 0.36820  0.57240  0.33430  Biso   1.000  C
  H147     1.0000 0.35740  0.55950  0.26540  Biso   1.000  H
  C200     1.0000 0.34450  0.60150  0.39700  Biso   1.000  C
  H148     1.0000 0.31780  0.60810  0.37020  Biso   1.000  H
  C201     1.0000 0.36060  0.62090  0.50000  Biso   1.000  C
  O32      1.0000 0.54130  0.29590  0.92860  Biso   1.000  O
  C202     1.0000 0.55000  0.31420  0.02900  Biso   1.000  C
  C203     1.0000 0.52590  0.34720  0.08200  Biso   1.000  C
  C204     1.0000 0.53590  0.36330  0.19570  Biso   1.000  C
  H149     1.0000 0.55700  0.35130  0.24160  Biso   1.000  H
  C205     1.0000 0.51440  0.39750  0.24100  Biso   1.000  C
  H150     1.0000 0.52110  0.40830  0.31700  Biso   1.000  H
  C206     1.0000 0.48280  0.41550  0.17240  Biso   1.000  C
  C207     1.0000 0.47280  0.39940  0.05870  Biso   1.000  C
  H151     1.0000 0.45170  0.41150  0.01280  Biso   1.000  H
  C208     1.0000 0.49430  0.36530  0.01350  Biso   1.000  C
  H152     1.0000 0.48760  0.35450  0.93740  Biso   1.000  H
  C209     1.0000 0.43160  0.52920  0.31420  Biso   1.000  C
  C210     1.0000 0.45870  0.45100  0.21400  Biso   1.000  C
  C211     1.0000 0.45040  0.46180  0.33400  Biso   1.000  C
  C212     1.0000 0.43750  0.52880  0.18700  Biso   1.000  C
  C213     1.0000 0.43930  0.49760  0.40000  Biso   1.000  C
  H153     1.0000 0.43740  0.50000  0.48440  Biso   1.000  H
  C214     1.0000 0.45720  0.49090  0.15700  Biso   1.000  C
  H154     1.0000 0.47220  0.49220  0.08440  Biso   1.000  H
  C215     1.0000 0.42640  0.56380  0.09900  Biso   1.000  C
  H155     1.0000 0.39660  0.56420  0.09250  Biso   1.000  H
  H156     1.0000 0.43820  0.55660  0.02140  Biso   1.000  H
  H157     1.0000 0.43620  0.59080  0.12290  Biso   1.000  H
  C216     1.0000 0.44690  0.42620  0.40200  Biso   1.000  C
  H158     1.0000 0.46370  0.43180  0.47260  Biso   1.000  H
  H159     1.0000 0.41880  0.42090  0.42720  Biso   1.000  H
  H160     1.0000 0.45760  0.40230  0.36030  Biso   1.000  H
  Zn9      1.0000 0.25000  0.89931  0.00000  Biso   1.000  Zn
  Zn10     1.0000 0.25000  0.60069  0.00000  Biso   1.000  Zn
  Zn11     1.0000 0.75000  0.10069  0.00000  Biso   1.000  Zn
  Zn12     1.0000 0.75000  0.39931  0.00000  Biso   1.000  Zn
  Zn13     1.0000 0.39930  0.75000  0.00000  Biso   1.000  Zn
  Zn14     1.0000 0.10070  0.75000  0.00000  Biso   1.000  Zn
  Zn15     1.0000 0.60070  0.25000  0.00000  Biso   1.000  Zn
  Zn16     1.0000 0.89930  0.25000  0.00000  Biso   1.000  Zn
  O33      1.0000 0.25000  0.75000  0.50000  Biso   1.000  O
  O34      1.0000 0.75000  0.25000  0.50000  Biso   1.000  O
