data_image0
_cell_length_a       3.8083
_cell_length_b       12.476
_cell_length_c       13.09
_cell_angle_alpha    76.757
_cell_angle_beta     84.649
_cell_angle_gamma    86.809

_symmetry_space_group_name_H-M    "P 1"
_symmetry_int_tables_number       1

loop_
  _symmetry_equiv_pos_as_xyz
  'x, y, z'

loop_
  _atom_site_label
  _atom_site_occupancy
  _atom_site_fract_x
  _atom_site_fract_y
  _atom_site_fract_z
  _atom_site_thermal_displace_type
  _atom_site_B_iso_or_equiv
  _atom_site_type_symbol
  Ag1      1.0000 0.16161  0.91878  0.59541  Biso   1.000  Ag
  O1       1.0000 0.39790  0.95120  0.41330  Biso   1.000  O
  O2       1.0000 0.33480  0.77180  0.47070  Biso   1.000  O
  N1       1.0000 0.92670  0.00760  0.04250  Biso   1.000  N
  N2       1.0000 0.88500  0.78750  0.71780  Biso   1.000  N
  C1       1.0000 0.63710  0.83510  0.30180  Biso   1.000  C
  C2       1.0000 0.69790  0.92430  0.21670  Biso   1.000  C
  H1       1.0000 0.61550  0.99450  0.22230  Biso   1.000  H
  C3       1.0000 0.88010  0.90940  0.12390  Biso   1.000  C
  C4       1.0000 0.00950  0.80460  0.11560  Biso   1.000  C
  H2       1.0000 0.13630  0.79440  0.05410  Biso   1.000  H
  C5       1.0000 0.94790  0.71710  0.19870  Biso   1.000  C
  H3       1.0000 0.03150  0.64700  0.19290  Biso   1.000  H
  C6       1.0000 0.76150  0.73090  0.29220  Biso   1.000  C
  H4       1.0000 0.72080  0.67040  0.34790  Biso   1.000  H
  C7       1.0000 0.44320  0.85190  0.40250  Biso   1.000  C
  C8       1.0000 0.85530  0.78660  0.82140  Biso   1.000  C
  H5       1.0000 0.92480  0.84820  0.84200  Biso   1.000  H
  C9       1.0000 0.72870  0.70030  0.89790  Biso   1.000  C
  H6       1.0000 0.71180  0.70450  0.96830  Biso   1.000  H
  C10      1.0000 0.62510  0.60590  0.87030  Biso   1.000  C
  C11      1.0000 0.64870  0.60750  0.76340  Biso   1.000  C
  H7       1.0000 0.57620  0.54770  0.74050  Biso   1.000  H
  C12      1.0000 0.78090  0.69860  0.69100  Biso   1.000  C
  H8       1.0000 0.79740  0.69730  0.62000  Biso   1.000  H
  C13      1.0000 0.49660  0.50870  0.94840  Biso   1.000  C
  H9       1.0000 0.40120  0.45420  0.92260  Biso   1.000  H
  Ag2      1.0000 0.83839  0.08122  0.40459  Biso   1.000  Ag
  O3       1.0000 0.60210  0.04880  0.58670  Biso   1.000  O
  O4       1.0000 0.66520  0.22820  0.52930  Biso   1.000  O
  N3       1.0000 0.07330  0.99240  0.95750  Biso   1.000  N
  N4       1.0000 0.11500  0.21250  0.28220  Biso   1.000  N
  C14      1.0000 0.36290  0.16490  0.69820  Biso   1.000  C
  C15      1.0000 0.30210  0.07570  0.78330  Biso   1.000  C
  H10      1.0000 0.38450  0.00550  0.77770  Biso   1.000  H
  C16      1.0000 0.11990  0.09060  0.87610  Biso   1.000  C
  C17      1.0000 0.99050  0.19540  0.88440  Biso   1.000  C
  H11      1.0000 0.86370  0.20560  0.94590  Biso   1.000  H
  C18      1.0000 0.05210  0.28290  0.80130  Biso   1.000  C
  H12      1.0000 0.96850  0.35300  0.80710  Biso   1.000  H
  C19      1.0000 0.23850  0.26910  0.70780  Biso   1.000  C
  H13      1.0000 0.27920  0.32960  0.65210  Biso   1.000  H
  C20      1.0000 0.55680  0.14810  0.59750  Biso   1.000  C
  C21      1.0000 0.14470  0.21340  0.17860  Biso   1.000  C
  H14      1.0000 0.07520  0.15180  0.15800  Biso   1.000  H
  C22      1.0000 0.27130  0.29970  0.10210  Biso   1.000  C
  H15      1.0000 0.28820  0.29550  0.03170  Biso   1.000  H
  C23      1.0000 0.37490  0.39410  0.12970  Biso   1.000  C
  C24      1.0000 0.35130  0.39250  0.23660  Biso   1.000  C
  H16      1.0000 0.42380  0.45230  0.25950  Biso   1.000  H
  C25      1.0000 0.21910  0.30140  0.30900  Biso   1.000  C
  H17      1.0000 0.20260  0.30270  0.38000  Biso   1.000  H
  C26      1.0000 0.50340  0.49130  0.05160  Biso   1.000  C
  H18      1.0000 0.59880  0.54580  0.07740  Biso   1.000  H
