data_image0
_cell_length_a       10.421
_cell_length_b       23.3526
_cell_length_c       6.9214
_cell_angle_alpha    90
_cell_angle_beta     90
_cell_angle_gamma    90

_symmetry_space_group_name_H-M    "P 1"
_symmetry_int_tables_number       1

loop_
  _symmetry_equiv_pos_as_xyz
  'x, y, z'

loop_
  _atom_site_label
  _atom_site_occupancy
  _atom_site_fract_x
  _atom_site_fract_y
  _atom_site_fract_z
  _atom_site_thermal_displace_type
  _atom_site_B_iso_or_equiv
  _atom_site_type_symbol
  Zn1      1.0000 0.50000  0.36581  0.25000  Biso   1.000  Zn
  O1       1.0000 0.50000  0.45110  0.25000  Biso   1.000  O
  Zn2      1.0000 0.00000  0.86581  0.25000  Biso   1.000  Zn
  O2       1.0000 0.00000  0.95110  0.25000  Biso   1.000  O
  Zn3      1.0000 0.50000  0.63419  0.75000  Biso   1.000  Zn
  O3       1.0000 0.50000  0.54890  0.75000  Biso   1.000  O
  Zn4      1.0000 0.00000  0.13419  0.75000  Biso   1.000  Zn
  O4       1.0000 0.00000  0.04890  0.75000  Biso   1.000  O
  Zn5      1.0000 0.50000  0.50000  0.00000  Biso   1.000  Zn
  Zn6      1.0000 0.00000  0.00000  0.00000  Biso   1.000  Zn
  Zn7      1.0000 0.50000  0.50000  0.50000  Biso   1.000  Zn
  Zn8      1.0000 0.00000  0.00000  0.50000  Biso   1.000  Zn
  C1       1.0000 0.00000  0.16290  0.25000  Biso   1.000  C
  C2       1.0000 0.00000  0.34600  0.25000  Biso   1.000  C
  C3       1.0000 0.00000  0.22690  0.25000  Biso   1.000  C
  C4       1.0000 0.50000  0.66290  0.25000  Biso   1.000  C
  C5       1.0000 0.50000  0.84600  0.25000  Biso   1.000  C
  C6       1.0000 0.50000  0.72690  0.25000  Biso   1.000  C
  C7       1.0000 0.00000  0.83710  0.75000  Biso   1.000  C
  C8       1.0000 0.00000  0.65400  0.75000  Biso   1.000  C
  C9       1.0000 0.00000  0.77310  0.75000  Biso   1.000  C
  C10      1.0000 0.50000  0.33710  0.75000  Biso   1.000  C
  C11      1.0000 0.50000  0.15400  0.75000  Biso   1.000  C
  C12      1.0000 0.50000  0.27310  0.75000  Biso   1.000  C
  C13      1.0000 0.24080  0.34860  0.25000  Biso   1.000  C
  C14      1.0000 0.11600  0.31630  0.25000  Biso   1.000  C
  C15      1.0000 0.11520  0.25650  0.25000  Biso   1.000  C
  H1       1.0000 0.19230  0.23640  0.25000  Biso   1.000  H
  O5       1.0000 0.34220  0.31999  0.25000  Biso   1.000  O
  O6       1.0000 0.23580  0.40230  0.25000  Biso   1.000  O
  C16      1.0000 0.74080  0.84860  0.25000  Biso   1.000  C
  C17      1.0000 0.61600  0.81630  0.25000  Biso   1.000  C
  C18      1.0000 0.61520  0.75650  0.25000  Biso   1.000  C
  H2       1.0000 0.69230  0.73640  0.25000  Biso   1.000  H
  O7       1.0000 0.84220  0.81999  0.25000  Biso   1.000  O
  O8       1.0000 0.73580  0.90230  0.25000  Biso   1.000  O
  C19      1.0000 0.75920  0.65140  0.75000  Biso   1.000  C
  C20      1.0000 0.88400  0.68370  0.75000  Biso   1.000  C
  C21      1.0000 0.88480  0.74350  0.75000  Biso   1.000  C
  H3       1.0000 0.80770  0.76360  0.75000  Biso   1.000  H
  O9       1.0000 0.65780  0.68001  0.75000  Biso   1.000  O
  O10      1.0000 0.76420  0.59770  0.75000  Biso   1.000  O
  C22      1.0000 0.25920  0.15140  0.75000  Biso   1.000  C
  C23      1.0000 0.38400  0.18370  0.75000  Biso   1.000  C
  C24      1.0000 0.38480  0.24350  0.75000  Biso   1.000  C
  H4       1.0000 0.30770  0.26360  0.75000  Biso   1.000  H
  O11      1.0000 0.15780  0.18001  0.75000  Biso   1.000  O
  O12      1.0000 0.26420  0.09770  0.75000  Biso   1.000  O
  C25      1.0000 0.75920  0.34860  0.25000  Biso   1.000  C
  C26      1.0000 0.88400  0.31630  0.25000  Biso   1.000  C
  C27      1.0000 0.88480  0.25650  0.25000  Biso   1.000  C
  H5       1.0000 0.80770  0.23640  0.25000  Biso   1.000  H
  O13      1.0000 0.65780  0.31999  0.25000  Biso   1.000  O
  O14      1.0000 0.76420  0.40230  0.25000  Biso   1.000  O
  C28      1.0000 0.25920  0.84860  0.25000  Biso   1.000  C
  C29      1.0000 0.38400  0.81630  0.25000  Biso   1.000  C
  C30      1.0000 0.38480  0.75650  0.25000  Biso   1.000  C
  H6       1.0000 0.30770  0.73640  0.25000  Biso   1.000  H
  O15      1.0000 0.15780  0.81999  0.25000  Biso   1.000  O
  O16      1.0000 0.26420  0.90230  0.25000  Biso   1.000  O
  C31      1.0000 0.24080  0.65140  0.75000  Biso   1.000  C
  C32      1.0000 0.11600  0.68370  0.75000  Biso   1.000  C
  C33      1.0000 0.11520  0.74350  0.75000  Biso   1.000  C
  H7       1.0000 0.19230  0.76360  0.75000  Biso   1.000  H
  O17      1.0000 0.34220  0.68001  0.75000  Biso   1.000  O
  O18      1.0000 0.23580  0.59770  0.75000  Biso   1.000  O
  C34      1.0000 0.74080  0.15140  0.75000  Biso   1.000  C
  C35      1.0000 0.61600  0.18370  0.75000  Biso   1.000  C
  C36      1.0000 0.61520  0.24350  0.75000  Biso   1.000  C
  H8       1.0000 0.69230  0.26360  0.75000  Biso   1.000  H
  O19      1.0000 0.84220  0.18001  0.75000  Biso   1.000  O
  O20      1.0000 0.73580  0.09770  0.75000  Biso   1.000  O
  N1       1.0000 0.00000  0.07730  0.34300  Biso   1.000  N
  N2       1.0000 0.00000  0.13092  0.40950  Biso   1.000  N
  N3       1.0000 0.50000  0.57730  0.34300  Biso   1.000  N
  N4       1.0000 0.50000  0.63092  0.40950  Biso   1.000  N
  N5       1.0000 0.00000  0.92270  0.84300  Biso   1.000  N
  N6       1.0000 0.00000  0.86908  0.90950  Biso   1.000  N
  N7       1.0000 0.50000  0.42270  0.84300  Biso   1.000  N
  N8       1.0000 0.50000  0.36908  0.90950  Biso   1.000  N
  N9       1.0000 0.00000  0.07730  0.15700  Biso   1.000  N
  N10      1.0000 0.00000  0.13092  0.09050  Biso   1.000  N
  N11      1.0000 0.50000  0.57730  0.15700  Biso   1.000  N
  N12      1.0000 0.50000  0.63092  0.09050  Biso   1.000  N
  N13      1.0000 0.00000  0.92270  0.65700  Biso   1.000  N
  N14      1.0000 0.00000  0.86908  0.59050  Biso   1.000  N
  N15      1.0000 0.50000  0.42270  0.65700  Biso   1.000  N
  N16      1.0000 0.50000  0.36908  0.59050  Biso   1.000  N
