data_image0
_cell_length_a       14.5662
_cell_length_b       14.5662
_cell_length_c       14.5662
_cell_angle_alpha    90
_cell_angle_beta     90
_cell_angle_gamma    90

_symmetry_space_group_name_H-M    "P 1"
_symmetry_int_tables_number       1

loop_
  _symmetry_equiv_pos_as_xyz
  'x, y, z'

loop_
  _atom_site_label
  _atom_site_occupancy
  _atom_site_fract_x
  _atom_site_fract_y
  _atom_site_fract_z
  _atom_site_thermal_displace_type
  _atom_site_B_iso_or_equiv
  _atom_site_type_symbol
  Na1      1.0000 0.00000  0.50000  0.00000  Biso   1.000  Na
  Na2      1.0000 0.50000  0.00000  0.50000  Biso   1.000  Na
  Na3      1.0000 0.00000  0.00000  0.50000  Biso   1.000  Na
  Na4      1.0000 0.50000  0.50000  0.00000  Biso   1.000  Na
  Na5      1.0000 0.50000  0.00000  0.00000  Biso   1.000  Na
  Na6      1.0000 0.00000  0.50000  0.50000  Biso   1.000  Na
  Mn1      1.0000 0.00000  0.50000  0.25000  Biso   1.000  Mn
  Mn2      1.0000 0.00000  0.50000  0.75000  Biso   1.000  Mn
  Mn3      1.0000 0.50000  0.00000  0.25000  Biso   1.000  Mn
  Mn4      1.0000 0.25000  0.00000  0.50000  Biso   1.000  Mn
  Mn5      1.0000 0.75000  0.00000  0.50000  Biso   1.000  Mn
  Mn6      1.0000 0.25000  0.50000  0.00000  Biso   1.000  Mn
  Mn7      1.0000 0.50000  0.25000  0.00000  Biso   1.000  Mn
  Mn8      1.0000 0.50000  0.75000  0.00000  Biso   1.000  Mn
  Mn9      1.0000 0.50000  0.00000  0.75000  Biso   1.000  Mn
  Mn10     1.0000 0.00000  0.25000  0.50000  Biso   1.000  Mn
  Mn11     1.0000 0.00000  0.75000  0.50000  Biso   1.000  Mn
  Mn12     1.0000 0.75000  0.50000  0.00000  Biso   1.000  Mn
  O1       1.0000 0.85060  0.50000  0.25820  Biso   1.000  O
  O2       1.0000 0.35060  0.00000  0.75820  Biso   1.000  O
  O3       1.0000 0.14940  0.50000  0.25820  Biso   1.000  O
  O4       1.0000 0.64940  0.00000  0.75820  Biso   1.000  O
  O5       1.0000 0.14940  0.50000  0.74180  Biso   1.000  O
  O6       1.0000 0.64940  0.00000  0.24180  Biso   1.000  O
  O7       1.0000 0.85060  0.50000  0.74180  Biso   1.000  O
  O8       1.0000 0.35060  0.00000  0.24180  Biso   1.000  O
  O9       1.0000 0.25820  0.85060  0.50000  Biso   1.000  O
  O10      1.0000 0.75820  0.35060  0.00000  Biso   1.000  O
  O11      1.0000 0.25820  0.14940  0.50000  Biso   1.000  O
  O12      1.0000 0.75820  0.64940  0.00000  Biso   1.000  O
  O13      1.0000 0.74180  0.14940  0.50000  Biso   1.000  O
  O14      1.0000 0.24180  0.64940  0.00000  Biso   1.000  O
  O15      1.0000 0.74180  0.85060  0.50000  Biso   1.000  O
  O16      1.0000 0.24180  0.35060  0.00000  Biso   1.000  O
  O17      1.0000 0.50000  0.25820  0.85060  Biso   1.000  O
  O18      1.0000 0.00000  0.75820  0.35060  Biso   1.000  O
  O19      1.0000 0.50000  0.25820  0.14940  Biso   1.000  O
  O20      1.0000 0.00000  0.75820  0.64940  Biso   1.000  O
  O21      1.0000 0.50000  0.74180  0.14940  Biso   1.000  O
  O22      1.0000 0.00000  0.24180  0.64940  Biso   1.000  O
  O23      1.0000 0.50000  0.74180  0.85060  Biso   1.000  O
  O24      1.0000 0.00000  0.24180  0.35060  Biso   1.000  O
  O25      1.0000 0.50000  0.85060  0.74180  Biso   1.000  O
  O26      1.0000 0.00000  0.35060  0.24180  Biso   1.000  O
  O27      1.0000 0.50000  0.14940  0.74180  Biso   1.000  O
  O28      1.0000 0.00000  0.64940  0.24180  Biso   1.000  O
  O29      1.0000 0.50000  0.14940  0.25820  Biso   1.000  O
  O30      1.0000 0.00000  0.64940  0.75820  Biso   1.000  O
  O31      1.0000 0.50000  0.85060  0.25820  Biso   1.000  O
  O32      1.0000 0.00000  0.35060  0.75820  Biso   1.000  O
  O33      1.0000 0.85060  0.25820  0.50000  Biso   1.000  O
  O34      1.0000 0.35060  0.75820  0.00000  Biso   1.000  O
  O35      1.0000 0.14940  0.25820  0.50000  Biso   1.000  O
  O36      1.0000 0.64940  0.75820  0.00000  Biso   1.000  O
  O37      1.0000 0.14940  0.74180  0.50000  Biso   1.000  O
  O38      1.0000 0.64940  0.24180  0.00000  Biso   1.000  O
  O39      1.0000 0.85060  0.74180  0.50000  Biso   1.000  O
  O40      1.0000 0.35060  0.24180  0.00000  Biso   1.000  O
  O41      1.0000 0.25820  0.50000  0.14940  Biso   1.000  O
  O42      1.0000 0.75820  0.00000  0.64940  Biso   1.000  O
  O43      1.0000 0.25820  0.50000  0.85060  Biso   1.000  O
  O44      1.0000 0.75820  0.00000  0.35060  Biso   1.000  O
  O45      1.0000 0.74180  0.50000  0.85060  Biso   1.000  O
  O46      1.0000 0.24180  0.00000  0.35060  Biso   1.000  O
  O47      1.0000 0.74180  0.50000  0.14940  Biso   1.000  O
  O48      1.0000 0.24180  0.00000  0.64940  Biso   1.000  O
  C1       1.0000 0.82700  0.50000  0.17300  Biso   1.000  C
  O49      1.0000 0.88920  0.50000  0.11080  Biso   1.000  O
  C2       1.0000 0.32700  0.00000  0.67300  Biso   1.000  C
  O50      1.0000 0.38920  0.00000  0.61080  Biso   1.000  O
  C3       1.0000 0.17300  0.50000  0.17300  Biso   1.000  C
  O51      1.0000 0.11080  0.50000  0.11080  Biso   1.000  O
  C4       1.0000 0.67300  0.00000  0.67300  Biso   1.000  C
  O52      1.0000 0.61080  0.00000  0.61080  Biso   1.000  O
  C5       1.0000 0.17300  0.50000  0.82700  Biso   1.000  C
  O53      1.0000 0.11080  0.50000  0.88920  Biso   1.000  O
  C6       1.0000 0.67300  0.00000  0.32700  Biso   1.000  C
  O54      1.0000 0.61080  0.00000  0.38920  Biso   1.000  O
  C7       1.0000 0.82700  0.50000  0.82700  Biso   1.000  C
  O55      1.0000 0.88920  0.50000  0.88920  Biso   1.000  O
  C8       1.0000 0.32700  0.00000  0.32700  Biso   1.000  C
  O56      1.0000 0.38920  0.00000  0.38920  Biso   1.000  O
  C9       1.0000 0.17300  0.82700  0.50000  Biso   1.000  C
  O57      1.0000 0.11080  0.88920  0.50000  Biso   1.000  O
  C10      1.0000 0.67300  0.32700  0.00000  Biso   1.000  C
  O58      1.0000 0.61080  0.38920  0.00000  Biso   1.000  O
  C11      1.0000 0.17300  0.17300  0.50000  Biso   1.000  C
  O59      1.0000 0.11080  0.11080  0.50000  Biso   1.000  O
  C12      1.0000 0.67300  0.67300  0.00000  Biso   1.000  C
  O60      1.0000 0.61080  0.61080  0.00000  Biso   1.000  O
  C13      1.0000 0.82700  0.17300  0.50000  Biso   1.000  C
  O61      1.0000 0.88920  0.11080  0.50000  Biso   1.000  O
  C14      1.0000 0.32700  0.67300  0.00000  Biso   1.000  C
  O62      1.0000 0.38920  0.61080  0.00000  Biso   1.000  O
  C15      1.0000 0.82700  0.82700  0.50000  Biso   1.000  C
  O63      1.0000 0.88920  0.88920  0.50000  Biso   1.000  O
  C16      1.0000 0.32700  0.32700  0.00000  Biso   1.000  C
  O64      1.0000 0.38920  0.38920  0.00000  Biso   1.000  O
  C17      1.0000 0.50000  0.17300  0.82700  Biso   1.000  C
  O65      1.0000 0.50000  0.11080  0.88920  Biso   1.000  O
  C18      1.0000 0.00000  0.67300  0.32700  Biso   1.000  C
  O66      1.0000 0.00000  0.61080  0.38920  Biso   1.000  O
  C19      1.0000 0.50000  0.17300  0.17300  Biso   1.000  C
  O67      1.0000 0.50000  0.11080  0.11080  Biso   1.000  O
  C20      1.0000 0.00000  0.67300  0.67300  Biso   1.000  C
  O68      1.0000 0.00000  0.61080  0.61080  Biso   1.000  O
  C21      1.0000 0.50000  0.82700  0.17300  Biso   1.000  C
  O69      1.0000 0.50000  0.88920  0.11080  Biso   1.000  O
  C22      1.0000 0.00000  0.32700  0.67300  Biso   1.000  C
  O70      1.0000 0.00000  0.38920  0.61080  Biso   1.000  O
  C23      1.0000 0.50000  0.82700  0.82700  Biso   1.000  C
  O71      1.0000 0.50000  0.88920  0.88920  Biso   1.000  O
  C24      1.0000 0.00000  0.32700  0.32700  Biso   1.000  C
  O72      1.0000 0.00000  0.38920  0.38920  Biso   1.000  O
