data_IWELIG_clean
_audit_creation_date              2014-07-02
_audit_creation_method            'Materials Studio'
_symmetry_space_group_name_H-M    'P1'
_symmetry_Int_Tables_number       1
_symmetry_cell_setting            triclinic
loop_
_symmetry_equiv_pos_as_xyz
  x,y,z
_cell_length_a                    8.4682
_cell_length_b                    15.2744
_cell_length_c                    15.2744
_cell_angle_alpha                 85.5930
_cell_angle_beta                  73.9068
_cell_angle_gamma                 73.9068
loop_
_atom_site_label
_atom_site_type_symbol
_atom_site_fract_x
_atom_site_fract_y
_atom_site_fract_z
_atom_site_U_iso_or_equiv
_atom_site_adp_type
_atom_site_occupancy
Co1    Co    0.40407   0.96053   0.94981   0.01267  Uiso   1.00
Co2    Co    0.81441   0.53947   0.55019   0.01267  Uiso   1.00
Co3    Co    0.35388   0.05019   0.46053   0.01267  Uiso   1.00
Co4    Co    0.36460   0.44981   0.03947   0.01267  Uiso   1.00
Co5    Co    0.59593   0.03947   0.05019   0.01267  Uiso   1.00
Co6    Co    0.18559   0.46053   0.44981   0.01267  Uiso   1.00
Co7    Co    0.64612   0.94981   0.53947   0.01267  Uiso   1.00
Co8    Co    0.63540   0.55019   0.96053   0.01267  Uiso   1.00
Co9    Co    0.00000   0.00000   0.00000   0.01267  Uiso   1.00
Co10   Co    0.50000   0.50000   0.50000   0.01267  Uiso   1.00
Co11   Co    0.00000   0.00000   0.50000   0.01267  Uiso   1.00
Co12   Co    0.00000   0.50000  -0.00000   0.01267  Uiso   1.00
H1     H     0.93340   0.97560   0.19320   0.01267  Uiso   1.00
H2     H     0.86400   0.97950   0.34110   0.01267  Uiso   1.00
H3     H     0.54230   0.07810   0.25290   0.01267  Uiso   1.00
H4     H     0.60220   0.52440   0.30680   0.01267  Uiso   1.00
H5     H     0.68460   0.52050   0.15890   0.01267  Uiso   1.00
H6     H     0.37330   0.42190   0.24710   0.01267  Uiso   1.00
H7     H     0.12660   0.80680   0.47560   0.01267  Uiso   1.00
H8     H     0.20510   0.65890   0.47950   0.01267  Uiso   1.00
H9     H     0.79520   0.74710   0.57810   0.01267  Uiso   1.00
H10    H     0.90900   0.69320   0.02440   0.01267  Uiso   1.00
H11    H     0.84350   0.84110   0.02050   0.01267  Uiso   1.00
H12    H     0.62040   0.75290   0.92190   0.01267  Uiso   1.00
H13    H     0.06660   0.02440   0.80680   0.01267  Uiso   1.00
H14    H     0.13600   0.02050   0.65890   0.01267  Uiso   1.00
H15    H     0.45770   0.92190   0.74710   0.01267  Uiso   1.00
H16    H     0.39780   0.47560   0.69320   0.01267  Uiso   1.00
H17    H     0.31540   0.47950   0.84110   0.01267  Uiso   1.00
H18    H     0.62670   0.57810   0.75290   0.01267  Uiso   1.00
H19    H     0.87340   0.19320   0.52440   0.01267  Uiso   1.00
H20    H     0.79490   0.34110   0.52050   0.01267  Uiso   1.00
H21    H     0.20480   0.25290   0.42190   0.01267  Uiso   1.00
H22    H     0.09100   0.30680   0.97560   0.01267  Uiso   1.00
H23    H     0.15650   0.15890   0.97950   0.01267  Uiso   1.00
H24    H     0.37960   0.24710   0.07810   0.01267  Uiso   1.00
C1     C     0.96690   0.99070   0.30850   0.01267  Uiso   1.00
C2     C     0.20930   0.02600   0.30020   0.01267  Uiso   1.00
C3     C     0.26110   0.02190   0.20470   0.01267  Uiso   1.00
C4     C     0.15680   0.99910   0.15850   0.01267  Uiso   1.00
C5     C     0.44560   0.06080   0.25240   0.01267  Uiso   1.00
C6     C     0.76610   0.50930   0.19150   0.01267  Uiso   1.00
C7     C     0.03550   0.47400   0.19980   0.01267  Uiso   1.00
C8     C     0.98770   0.47810   0.29530   0.01267  Uiso   1.00
C9     C     0.81440   0.50090   0.34150   0.01267  Uiso   1.00
C10    C     0.25880   0.43920   0.24760   0.01267  Uiso   1.00
C11    C     0.27540   0.69150   0.49070   0.01267  Uiso   1.00
C12    C     0.50950   0.69980   0.52600   0.01267  Uiso   1.00
C13    C     0.46580   0.79530   0.52190   0.01267  Uiso   1.00
C14    C     0.31530   0.84150   0.49910   0.01267  Uiso   1.00
C15    C     0.69800   0.74760   0.56080   0.01267  Uiso   1.00
C16    C     0.95760   0.80850   0.00930   0.01267  Uiso   1.00
C17    C     0.23530   0.80020   0.97400   0.01267  Uiso   1.00
C18    C     0.28300   0.70470   0.97810   0.01267  Uiso   1.00
C19    C     0.15590   0.65850   0.00090   0.01267  Uiso   1.00
C20    C     0.50640   0.75240   0.93920   0.01267  Uiso   1.00
C21    C     0.03310   0.00930   0.69150   0.01267  Uiso   1.00
C22    C     0.79070   0.97400   0.69980   0.01267  Uiso   1.00
C23    C     0.73890   0.97810   0.79530   0.01267  Uiso   1.00
C24    C     0.84320   0.00090   0.84150   0.01267  Uiso   1.00
C25    C     0.55440   0.93920   0.74760   0.01267  Uiso   1.00
C26    C     0.23390   0.49070   0.80850   0.01267  Uiso   1.00
C27    C     0.96450   0.52600   0.80020   0.01267  Uiso   1.00
C28    C     0.01230   0.52190   0.70470   0.01267  Uiso   1.00
C29    C     0.18560   0.49910   0.65850   0.01267  Uiso   1.00
C30    C     0.74120   0.56080   0.75240   0.01267  Uiso   1.00
C31    C     0.72460   0.30850   0.50930   0.01267  Uiso   1.00
C32    C     0.49050   0.30020   0.47400   0.01267  Uiso   1.00
C33    C     0.53420   0.20470   0.47810   0.01267  Uiso   1.00
C34    C     0.68470   0.15850   0.50090   0.01267  Uiso   1.00
C35    C     0.30200   0.25240   0.43920   0.01267  Uiso   1.00
C36    C     0.04240   0.19150   0.99070   0.01267  Uiso   1.00
C37    C     0.76470   0.19980   0.02600   0.01267  Uiso   1.00
C38    C     0.71700   0.29530   0.02190   0.01267  Uiso   1.00
C39    C     0.84410   0.34150   0.99910   0.01267  Uiso   1.00
C40    C     0.49360   0.24760   0.06080   0.01267  Uiso   1.00
N1     N     0.00650   0.98660   0.21720   0.01267  Uiso   1.00
N2     N     0.06200   0.00920   0.35460   0.01267  Uiso   1.00
N3     N     0.41430   0.04510   0.17550   0.01267  Uiso   1.00
N4     N     0.32780   0.05000   0.33020   0.01267  Uiso   1.00
N5     N     0.71030   0.51340   0.28280   0.01267  Uiso   1.00
N6     N     0.92580   0.49080   0.14540   0.01267  Uiso   1.00
N7     N     0.13490   0.45490   0.32450   0.01267  Uiso   1.00
N8     N     0.20800   0.45000   0.16980   0.01267  Uiso   1.00
N9     N     0.22370   0.78280   0.48660   0.01267  Uiso   1.00
N10    N     0.41660   0.64540   0.50920   0.01267  Uiso   1.00
N11    N     0.58980   0.82450   0.54510   0.01267  Uiso   1.00
N12    N     0.65800   0.66980   0.55000   0.01267  Uiso   1.00
N13    N     0.99310   0.71720   0.01340   0.01267  Uiso   1.00
N14    N     0.07120   0.85460   0.99080   0.01267  Uiso   1.00
N15    N     0.45940   0.67550   0.95490   0.01267  Uiso   1.00
N16    N     0.37780   0.83020   0.95000   0.01267  Uiso   1.00
N17    N     0.99350   0.01340   0.78280   0.01267  Uiso   1.00
N18    N     0.93800   0.99080   0.64540   0.01267  Uiso   1.00
N19    N     0.58570   0.95490   0.82450   0.01267  Uiso   1.00
N20    N     0.67220   0.95000   0.66980   0.01267  Uiso   1.00
N21    N     0.28970   0.48660   0.71720   0.01267  Uiso   1.00
N22    N     0.07420   0.50920   0.85460   0.01267  Uiso   1.00
N23    N     0.86510   0.54510   0.67550   0.01267  Uiso   1.00
N24    N     0.79200   0.55000   0.83020   0.01267  Uiso   1.00
N25    N     0.77630   0.21720   0.51340   0.01267  Uiso   1.00
N26    N     0.58340   0.35460   0.49080   0.01267  Uiso   1.00
N27    N     0.41020   0.17550   0.45490   0.01267  Uiso   1.00
N28    N     0.34200   0.33020   0.45000   0.01267  Uiso   1.00
N29    N     0.00690   0.28280   0.98660   0.01267  Uiso   1.00
N30    N     0.92880   0.14540   0.00920   0.01267  Uiso   1.00
N31    N     0.54060   0.32450   0.04510   0.01267  Uiso   1.00
N32    N     0.62220   0.16980   0.05000   0.01267  Uiso   1.00
O1     O     0.42550   0.08360   0.97380   0.01267  Uiso   1.00
O2     O     0.20000   0.00800   0.89440   0.01267  Uiso   1.00
O3     O     0.18200   0.99070   0.07310   0.01267  Uiso   1.00
O4     O     0.98290   0.41640   0.52620   0.01267  Uiso   1.00
O5     O     0.60240   0.49200   0.60560   0.01267  Uiso   1.00
O6     O     0.74580   0.50930   0.42690   0.01267  Uiso   1.00
O7     O     0.39930   0.02620   0.58360   0.01267  Uiso   1.00
O8     O     0.09440   0.10560   0.50800   0.01267  Uiso   1.00
O9     O     0.25510   0.92690   0.49070   0.01267  Uiso   1.00
O10    O     0.50910   0.47380   0.91640   0.01267  Uiso   1.00
O11    O     0.20800   0.39440   0.99200   0.01267  Uiso   1.00
O12    O     0.17270   0.57310   0.00930   0.01267  Uiso   1.00
O13    O     0.57450   0.91640   0.02620   0.01267  Uiso   1.00
O14    O     0.80000   0.99200   0.10560   0.01267  Uiso   1.00
O15    O     0.81800   0.00930   0.92690   0.01267  Uiso   1.00
O16    O     0.01710   0.58360   0.47380   0.01267  Uiso   1.00
O17    O     0.39760   0.50800   0.39440   0.01267  Uiso   1.00
O18    O     0.25420   0.49070   0.57310   0.01267  Uiso   1.00
O19    O     0.60070   0.97380   0.41640   0.01267  Uiso   1.00
O20    O     0.90560   0.89440   0.49200   0.01267  Uiso   1.00
O21    O     0.74490   0.07310   0.50930   0.01267  Uiso   1.00
O22    O     0.49090   0.52620   0.08360   0.01267  Uiso   1.00
O23    O     0.79200   0.60560   0.00800   0.01267  Uiso   1.00
O24    O     0.82730   0.42690   0.99070   0.01267  Uiso   1.00
