data_image0
_cell_length_a       15.923
_cell_length_b       26.37
_cell_length_c       20.627
_cell_angle_alpha    90
_cell_angle_beta     91.005
_cell_angle_gamma    90

_symmetry_space_group_name_H-M    "P 1"
_symmetry_int_tables_number       1

loop_
  _symmetry_equiv_pos_as_xyz
  'x, y, z'

loop_
  _atom_site_label
  _atom_site_occupancy
  _atom_site_fract_x
  _atom_site_fract_y
  _atom_site_fract_z
  _atom_site_thermal_displace_type
  _atom_site_B_iso_or_equiv
  _atom_site_type_symbol
  S1       1.0000 0.23739  0.01639  0.69862  Biso   1.000  S
  C1       1.0000 0.14790  0.04150  0.65660  Biso   1.000  C
  C2       1.0000 0.08050  0.01100  0.63560  Biso   1.000  C
  C3       1.0000 0.01330  0.03270  0.60190  Biso   1.000  C
  C4       1.0000 0.01610  0.08400  0.58380  Biso   1.000  C
  H1       1.0000 0.97050  0.09810  0.55960  Biso   1.000  H
  C5       1.0000 0.08550  0.11510  0.60070  Biso   1.000  C
  C6       1.0000 0.14940  0.09250  0.63930  Biso   1.000  C
  H2       1.0000 0.19510  0.11290  0.65390  Biso   1.000  H
  O1       1.0000 0.08140  0.95906  0.64670  Biso   1.000  O
  C7       1.0000 0.13130  0.93400  0.59730  Biso   1.000  C
  H3       1.0000 0.19100  0.94420  0.60200  Biso   1.000  H
  H4       1.0000 0.11100  0.94410  0.55350  Biso   1.000  H
  C8       1.0000 0.12350  0.87750  0.60510  Biso   1.000  C
  C9       1.0000 0.17490  0.84780  0.56760  Biso   1.000  C
  H5       1.0000 0.21430  0.86450  0.54090  Biso   1.000  H
  N1       1.0000 0.17260  0.79640  0.56650  Biso   1.000  N
  C10      1.0000 0.11940  0.77400  0.60600  Biso   1.000  C
  H6       1.0000 0.11760  0.73800  0.60640  Biso   1.000  H
  C11      1.0000 0.06710  0.79970  0.64620  Biso   1.000  C
  H7       1.0000 0.03030  0.78180  0.67390  Biso   1.000  H
  C12      1.0000 0.06880  0.85280  0.64590  Biso   1.000  C
  H8       1.0000 0.03290  0.87160  0.67330  Biso   1.000  H
  C13      1.0000 0.09200  0.17020  0.57830  Biso   1.000  C
  C14      1.0000 0.17410  0.17690  0.54140  Biso   1.000  C
  H9       1.0000 0.22120  0.16450  0.56820  Biso   1.000  H
  H10      1.0000 0.18250  0.21290  0.53160  Biso   1.000  H
  H11      1.0000 0.17100  0.15750  0.50090  Biso   1.000  H
  C15      1.0000 0.09540  0.20570  0.63790  Biso   1.000  C
  H12      1.0000 0.04740  0.19870  0.66560  Biso   1.000  H
  H13      1.0000 0.09350  0.24100  0.62340  Biso   1.000  H
  H14      1.0000 0.14770  0.19970  0.66250  Biso   1.000  H
  C16      1.0000 0.01770  0.18630  0.53520  Biso   1.000  C
  H15      1.0000 0.01530  0.16490  0.49640  Biso   1.000  H
  H16      1.0000 0.02470  0.22180  0.52230  Biso   1.000  H
  H17      1.0000 0.96550  0.18260  0.55910  Biso   1.000  H
  S2       1.0000 0.92828  0.99489  0.56965  Biso   1.000  S
  C17      1.0000 0.87780  0.96960  0.63900  Biso   1.000  C
  C18      1.0000 0.84990  0.99970  0.68800  Biso   1.000  C
  C19      1.0000 0.80360  0.97830  0.73830  Biso   1.000  C
  C20      1.0000 0.78440  0.92660  0.73620  Biso   1.000  C
  H18      1.0000 0.75470  0.91210  0.77120  Biso   1.000  H
  C21      1.0000 0.80660  0.89620  0.68610  Biso   1.000  C
  C22      1.0000 0.85590  0.91820  0.63720  Biso   1.000  C
  H19      1.0000 0.87450  0.89770  0.60240  Biso   1.000  H
  O2       1.0000 0.86430  0.05200  0.68720  Biso   1.000  O
  C23      1.0000 0.79260  0.07760  0.65560  Biso   1.000  C
  H20      1.0000 0.74140  0.07310  0.68160  Biso   1.000  H
  H21      1.0000 0.78200  0.06310  0.61200  Biso   1.000  H
  C24      1.0000 0.81350  0.13300  0.65030  Biso   1.000  C
  C25      1.0000 0.78110  0.16050  0.59820  Biso   1.000  C
  H22      1.0000 0.74780  0.14310  0.56660  Biso   1.000  H
  N2       1.0000 0.79440  0.21070  0.59000  Biso   1.000  N
  C26      1.0000 0.84010  0.23540  0.63620  Biso   1.000  C
  H23      1.0000 0.84920  0.27080  0.63150  Biso   1.000  H
  C27      1.0000 0.87400  0.21100  0.68980  Biso   1.000  C
  H24      1.0000 0.90550  0.22950  0.72140  Biso   1.000  H
  C28      1.0000 0.86170  0.15930  0.69690  Biso   1.000  C
  H25      1.0000 0.88560  0.14180  0.73300  Biso   1.000  H
  C29      1.0000 0.77650  0.84140  0.67850  Biso   1.000  C
  C30      1.0000 0.73450  0.82200  0.73950  Biso   1.000  C
  H26      1.0000 0.72080  0.78600  0.73420  Biso   1.000  H
  H27      1.0000 0.68280  0.84130  0.74670  Biso   1.000  H
  H28      1.0000 0.77280  0.82630  0.77680  Biso   1.000  H
  C31      1.0000 0.84650  0.80530  0.66290  Biso   1.000  C
  H29      1.0000 0.88770  0.80490  0.69870  Biso   1.000  H
  H30      1.0000 0.87390  0.81630  0.62310  Biso   1.000  H
  H31      1.0000 0.82350  0.77110  0.65660  Biso   1.000  H
  C32      1.0000 0.70990  0.84080  0.62260  Biso   1.000  C
  H32      1.0000 0.73430  0.85510  0.58330  Biso   1.000  H
  H33      1.0000 0.66120  0.86120  0.63500  Biso   1.000  H
  H34      1.0000 0.69200  0.80580  0.61420  Biso   1.000  H
  N3       1.0000 0.65160  0.19630  0.48940  Biso   1.000  N
  C33      1.0000 0.58630  0.17800  0.47580  Biso   1.000  C
  S3       1.0000 0.49690  0.15439  0.45660  Biso   1.000  S
  S4       1.0000 0.73739  0.51639  0.69862  Biso   1.000  S
  C34      1.0000 0.64790  0.54150  0.65660  Biso   1.000  C
  C35      1.0000 0.58050  0.51100  0.63560  Biso   1.000  C
  C36      1.0000 0.51330  0.53270  0.60190  Biso   1.000  C
  C37      1.0000 0.51610  0.58400  0.58380  Biso   1.000  C
  H35      1.0000 0.47050  0.59810  0.55960  Biso   1.000  H
  C38      1.0000 0.58550  0.61510  0.60070  Biso   1.000  C
  C39      1.0000 0.64940  0.59250  0.63930  Biso   1.000  C
  H36      1.0000 0.69510  0.61290  0.65390  Biso   1.000  H
  O3       1.0000 0.58140  0.45906  0.64670  Biso   1.000  O
  C40      1.0000 0.63130  0.43400  0.59730  Biso   1.000  C
  H37      1.0000 0.69100  0.44420  0.60200  Biso   1.000  H
  H38      1.0000 0.61100  0.44410  0.55350  Biso   1.000  H
  C41      1.0000 0.62350  0.37750  0.60510  Biso   1.000  C
  C42      1.0000 0.67490  0.34780  0.56760  Biso   1.000  C
  H39      1.0000 0.71430  0.36450  0.54090  Biso   1.000  H
  N4       1.0000 0.67260  0.29640  0.56650  Biso   1.000  N
  C43      1.0000 0.61940  0.27400  0.60600  Biso   1.000  C
  H40      1.0000 0.61760  0.23800  0.60640  Biso   1.000  H
  C44      1.0000 0.56710  0.29970  0.64620  Biso   1.000  C
  H41      1.0000 0.53030  0.28180  0.67390  Biso   1.000  H
  C45      1.0000 0.56880  0.35280  0.64590  Biso   1.000  C
  H42      1.0000 0.53290  0.37160  0.67330  Biso   1.000  H
  C46      1.0000 0.59200  0.67020  0.57830  Biso   1.000  C
  C47      1.0000 0.67410  0.67690  0.54140  Biso   1.000  C
  H43      1.0000 0.72120  0.66450  0.56820  Biso   1.000  H
  H44      1.0000 0.68250  0.71290  0.53160  Biso   1.000  H
  H45      1.0000 0.67100  0.65750  0.50090  Biso   1.000  H
  C48      1.0000 0.59540  0.70570  0.63790  Biso   1.000  C
  H46      1.0000 0.54740  0.69870  0.66560  Biso   1.000  H
  H47      1.0000 0.59350  0.74100  0.62340  Biso   1.000  H
  H48      1.0000 0.64770  0.69970  0.66250  Biso   1.000  H
  C49      1.0000 0.51770  0.68630  0.53520  Biso   1.000  C
  H49      1.0000 0.51530  0.66490  0.49640  Biso   1.000  H
  H50      1.0000 0.52470  0.72180  0.52230  Biso   1.000  H
  H51      1.0000 0.46550  0.68260  0.55910  Biso   1.000  H
  S5       1.0000 0.42828  0.49489  0.56965  Biso   1.000  S
  C50      1.0000 0.37780  0.46960  0.63900  Biso   1.000  C
  C51      1.0000 0.34990  0.49970  0.68800  Biso   1.000  C
  C52      1.0000 0.30360  0.47830  0.73830  Biso   1.000  C
  C53      1.0000 0.28440  0.42660  0.73620  Biso   1.000  C
  H52      1.0000 0.25470  0.41210  0.77120  Biso   1.000  H
  C54      1.0000 0.30660  0.39620  0.68610  Biso   1.000  C
  C55      1.0000 0.35590  0.41820  0.63720  Biso   1.000  C
  H53      1.0000 0.37450  0.39770  0.60240  Biso   1.000  H
  O4       1.0000 0.36430  0.55200  0.68720  Biso   1.000  O
  C56      1.0000 0.29260  0.57760  0.65560  Biso   1.000  C
  H54      1.0000 0.24140  0.57310  0.68160  Biso   1.000  H
  H55      1.0000 0.28200  0.56310  0.61200  Biso   1.000  H
  C57      1.0000 0.31350  0.63300  0.65030  Biso   1.000  C
  C58      1.0000 0.28110  0.66050  0.59820  Biso   1.000  C
  H56      1.0000 0.24780  0.64310  0.56660  Biso   1.000  H
  N5       1.0000 0.29440  0.71070  0.59000  Biso   1.000  N
  C59      1.0000 0.34010  0.73540  0.63620  Biso   1.000  C
  H57      1.0000 0.34920  0.77080  0.63150  Biso   1.000  H
  C60      1.0000 0.37400  0.71100  0.68980  Biso   1.000  C
  H58      1.0000 0.40550  0.72950  0.72140  Biso   1.000  H
  C61      1.0000 0.36170  0.65930  0.69690  Biso   1.000  C
  H59      1.0000 0.38560  0.64180  0.73300  Biso   1.000  H
  C62      1.0000 0.27650  0.34140  0.67850  Biso   1.000  C
  C63      1.0000 0.23450  0.32200  0.73950  Biso   1.000  C
  H60      1.0000 0.22080  0.28600  0.73420  Biso   1.000  H
  H61      1.0000 0.18280  0.34130  0.74670  Biso   1.000  H
  H62      1.0000 0.27280  0.32630  0.77680  Biso   1.000  H
  C64      1.0000 0.34650  0.30530  0.66290  Biso   1.000  C
  H63      1.0000 0.38770  0.30490  0.69870  Biso   1.000  H
  H64      1.0000 0.37390  0.31630  0.62310  Biso   1.000  H
  H65      1.0000 0.32350  0.27110  0.65660  Biso   1.000  H
  C65      1.0000 0.20990  0.34080  0.62260  Biso   1.000  C
  H66      1.0000 0.23430  0.35510  0.58330  Biso   1.000  H
  H67      1.0000 0.16120  0.36120  0.63500  Biso   1.000  H
  H68      1.0000 0.19200  0.30580  0.61420  Biso   1.000  H
  N6       1.0000 0.15160  0.69630  0.48940  Biso   1.000  N
  C66      1.0000 0.08630  0.67800  0.47580  Biso   1.000  C
  S6       1.0000 0.99690  0.65439  0.45660  Biso   1.000  S
  S7       1.0000 0.76261  0.01639  0.80138  Biso   1.000  S
  C67      1.0000 0.85210  0.04150  0.84340  Biso   1.000  C
  C68      1.0000 0.91950  0.01100  0.86440  Biso   1.000  C
  C69      1.0000 0.98670  0.03270  0.89810  Biso   1.000  C
  C70      1.0000 0.98390  0.08400  0.91620  Biso   1.000  C
  H69      1.0000 0.02950  0.09810  0.94040  Biso   1.000  H
  C71      1.0000 0.91450  0.11510  0.89930  Biso   1.000  C
  C72      1.0000 0.85060  0.09250  0.86070  Biso   1.000  C
  H70      1.0000 0.80490  0.11290  0.84610  Biso   1.000  H
  O5       1.0000 0.91860  0.95906  0.85330  Biso   1.000  O
  C73      1.0000 0.86870  0.93400  0.90270  Biso   1.000  C
  H71      1.0000 0.80900  0.94420  0.89800  Biso   1.000  H
  H72      1.0000 0.88900  0.94410  0.94650  Biso   1.000  H
  C74      1.0000 0.87650  0.87750  0.89490  Biso   1.000  C
  C75      1.0000 0.82510  0.84780  0.93240  Biso   1.000  C
  H73      1.0000 0.78570  0.86450  0.95910  Biso   1.000  H
  N7       1.0000 0.82740  0.79640  0.93350  Biso   1.000  N
  C76      1.0000 0.88060  0.77400  0.89400  Biso   1.000  C
  H74      1.0000 0.88240  0.73800  0.89360  Biso   1.000  H
  C77      1.0000 0.93290  0.79970  0.85380  Biso   1.000  C
  H75      1.0000 0.96970  0.78180  0.82610  Biso   1.000  H
  C78      1.0000 0.93120  0.85280  0.85410  Biso   1.000  C
  H76      1.0000 0.96710  0.87160  0.82670  Biso   1.000  H
  C79      1.0000 0.90800  0.17020  0.92170  Biso   1.000  C
  C80      1.0000 0.82590  0.17690  0.95860  Biso   1.000  C
  H77      1.0000 0.77880  0.16450  0.93180  Biso   1.000  H
  H78      1.0000 0.81750  0.21290  0.96840  Biso   1.000  H
  H79      1.0000 0.82900  0.15750  0.99910  Biso   1.000  H
  C81      1.0000 0.90460  0.20570  0.86210  Biso   1.000  C
  H80      1.0000 0.95260  0.19870  0.83440  Biso   1.000  H
  H81      1.0000 0.90650  0.24100  0.87660  Biso   1.000  H
  H82      1.0000 0.85230  0.19970  0.83750  Biso   1.000  H
  C82      1.0000 0.98230  0.18630  0.96480  Biso   1.000  C
  H83      1.0000 0.98470  0.16490  0.00360  Biso   1.000  H
  H84      1.0000 0.97530  0.22180  0.97770  Biso   1.000  H
  H85      1.0000 0.03450  0.18260  0.94090  Biso   1.000  H
  S8       1.0000 0.07172  0.99489  0.93035  Biso   1.000  S
  C83      1.0000 0.12220  0.96960  0.86100  Biso   1.000  C
  C84      1.0000 0.15010  0.99970  0.81200  Biso   1.000  C
  C85      1.0000 0.19640  0.97830  0.76170  Biso   1.000  C
  C86      1.0000 0.21560  0.92660  0.76380  Biso   1.000  C
  H86      1.0000 0.24530  0.91210  0.72880  Biso   1.000  H
  C87      1.0000 0.19340  0.89620  0.81390  Biso   1.000  C
  C88      1.0000 0.14410  0.91820  0.86280  Biso   1.000  C
  H87      1.0000 0.12550  0.89770  0.89760  Biso   1.000  H
  O6       1.0000 0.13570  0.05200  0.81280  Biso   1.000  O
  C89      1.0000 0.20740  0.07760  0.84440  Biso   1.000  C
  H88      1.0000 0.25860  0.07310  0.81840  Biso   1.000  H
  H89      1.0000 0.21800  0.06310  0.88800  Biso   1.000  H
  C90      1.0000 0.18650  0.13300  0.84970  Biso   1.000  C
  C91      1.0000 0.21890  0.16050  0.90180  Biso   1.000  C
  H90      1.0000 0.25220  0.14310  0.93340  Biso   1.000  H
  N8       1.0000 0.20560  0.21070  0.91000  Biso   1.000  N
  C92      1.0000 0.15990  0.23540  0.86380  Biso   1.000  C
  H91      1.0000 0.15080  0.27080  0.86850  Biso   1.000  H
  C93      1.0000 0.12600  0.21100  0.81020  Biso   1.000  C
  H92      1.0000 0.09450  0.22950  0.77860  Biso   1.000  H
  C94      1.0000 0.13830  0.15930  0.80310  Biso   1.000  C
  H93      1.0000 0.11440  0.14180  0.76700  Biso   1.000  H
  C95      1.0000 0.22350  0.84140  0.82150  Biso   1.000  C
  C96      1.0000 0.26550  0.82200  0.76050  Biso   1.000  C
  H94      1.0000 0.27920  0.78600  0.76580  Biso   1.000  H
  H95      1.0000 0.31720  0.84130  0.75330  Biso   1.000  H
  H96      1.0000 0.22720  0.82630  0.72320  Biso   1.000  H
  C97      1.0000 0.15350  0.80530  0.83710  Biso   1.000  C
  H97      1.0000 0.11230  0.80490  0.80130  Biso   1.000  H
  H98      1.0000 0.12610  0.81630  0.87690  Biso   1.000  H
  H99      1.0000 0.17650  0.77110  0.84340  Biso   1.000  H
  C98      1.0000 0.29010  0.84080  0.87740  Biso   1.000  C
  H100     1.0000 0.26570  0.85510  0.91670  Biso   1.000  H
  H101     1.0000 0.33880  0.86120  0.86500  Biso   1.000  H
  H102     1.0000 0.30800  0.80580  0.88580  Biso   1.000  H
  N9       1.0000 0.34840  0.19630  0.01060  Biso   1.000  N
  C99      1.0000 0.41370  0.17800  0.02420  Biso   1.000  C
  S9       1.0000 0.50310  0.15439  0.04340  Biso   1.000  S
  S10      1.0000 0.26261  0.51639  0.80138  Biso   1.000  S
  C100     1.0000 0.35210  0.54150  0.84340  Biso   1.000  C
  C101     1.0000 0.41950  0.51100  0.86440  Biso   1.000  C
  C102     1.0000 0.48670  0.53270  0.89810  Biso   1.000  C
  C103     1.0000 0.48390  0.58400  0.91620  Biso   1.000  C
  H103     1.0000 0.52950  0.59810  0.94040  Biso   1.000  H
  C104     1.0000 0.41450  0.61510  0.89930  Biso   1.000  C
  C105     1.0000 0.35060  0.59250  0.86070  Biso   1.000  C
  H104     1.0000 0.30490  0.61290  0.84610  Biso   1.000  H
  O7       1.0000 0.41860  0.45906  0.85330  Biso   1.000  O
  C106     1.0000 0.36870  0.43400  0.90270  Biso   1.000  C
  H105     1.0000 0.30900  0.44420  0.89800  Biso   1.000  H
  H106     1.0000 0.38900  0.44410  0.94650  Biso   1.000  H
  C107     1.0000 0.37650  0.37750  0.89490  Biso   1.000  C
  C108     1.0000 0.32510  0.34780  0.93240  Biso   1.000  C
  H107     1.0000 0.28570  0.36450  0.95910  Biso   1.000  H
  N10      1.0000 0.32740  0.29640  0.93350  Biso   1.000  N
  C109     1.0000 0.38060  0.27400  0.89400  Biso   1.000  C
  H108     1.0000 0.38240  0.23800  0.89360  Biso   1.000  H
  C110     1.0000 0.43290  0.29970  0.85380  Biso   1.000  C
  H109     1.0000 0.46970  0.28180  0.82610  Biso   1.000  H
  C111     1.0000 0.43120  0.35280  0.85410  Biso   1.000  C
  H110     1.0000 0.46710  0.37160  0.82670  Biso   1.000  H
  C112     1.0000 0.40800  0.67020  0.92170  Biso   1.000  C
  C113     1.0000 0.32590  0.67690  0.95860  Biso   1.000  C
  H111     1.0000 0.27880  0.66450  0.93180  Biso   1.000  H
  H112     1.0000 0.31750  0.71290  0.96840  Biso   1.000  H
  H113     1.0000 0.32900  0.65750  0.99910  Biso   1.000  H
  C114     1.0000 0.40460  0.70570  0.86210  Biso   1.000  C
  H114     1.0000 0.45260  0.69870  0.83440  Biso   1.000  H
  H115     1.0000 0.40650  0.74100  0.87660  Biso   1.000  H
  H116     1.0000 0.35230  0.69970  0.83750  Biso   1.000  H
  C115     1.0000 0.48230  0.68630  0.96480  Biso   1.000  C
  H117     1.0000 0.48470  0.66490  0.00360  Biso   1.000  H
  H118     1.0000 0.47530  0.72180  0.97770  Biso   1.000  H
  H119     1.0000 0.53450  0.68260  0.94090  Biso   1.000  H
  S11      1.0000 0.57172  0.49489  0.93035  Biso   1.000  S
  C116     1.0000 0.62220  0.46960  0.86100  Biso   1.000  C
  C117     1.0000 0.65010  0.49970  0.81200  Biso   1.000  C
  C118     1.0000 0.69640  0.47830  0.76170  Biso   1.000  C
  C119     1.0000 0.71560  0.42660  0.76380  Biso   1.000  C
  H120     1.0000 0.74530  0.41210  0.72880  Biso   1.000  H
  C120     1.0000 0.69340  0.39620  0.81390  Biso   1.000  C
  C121     1.0000 0.64410  0.41820  0.86280  Biso   1.000  C
  H121     1.0000 0.62550  0.39770  0.89760  Biso   1.000  H
  O8       1.0000 0.63570  0.55200  0.81280  Biso   1.000  O
  C122     1.0000 0.70740  0.57760  0.84440  Biso   1.000  C
  H122     1.0000 0.75860  0.57310  0.81840  Biso   1.000  H
  H123     1.0000 0.71800  0.56310  0.88800  Biso   1.000  H
  C123     1.0000 0.68650  0.63300  0.84970  Biso   1.000  C
  C124     1.0000 0.71890  0.66050  0.90180  Biso   1.000  C
  H124     1.0000 0.75220  0.64310  0.93340  Biso   1.000  H
  N11      1.0000 0.70560  0.71070  0.91000  Biso   1.000  N
  C125     1.0000 0.65990  0.73540  0.86380  Biso   1.000  C
  H125     1.0000 0.65080  0.77080  0.86850  Biso   1.000  H
  C126     1.0000 0.62600  0.71100  0.81020  Biso   1.000  C
  H126     1.0000 0.59450  0.72950  0.77860  Biso   1.000  H
  C127     1.0000 0.63830  0.65930  0.80310  Biso   1.000  C
  H127     1.0000 0.61440  0.64180  0.76700  Biso   1.000  H
  C128     1.0000 0.72350  0.34140  0.82150  Biso   1.000  C
  C129     1.0000 0.76550  0.32200  0.76050  Biso   1.000  C
  H128     1.0000 0.77920  0.28600  0.76580  Biso   1.000  H
  H129     1.0000 0.81720  0.34130  0.75330  Biso   1.000  H
  H130     1.0000 0.72720  0.32630  0.72320  Biso   1.000  H
  C130     1.0000 0.65350  0.30530  0.83710  Biso   1.000  C
  H131     1.0000 0.61230  0.30490  0.80130  Biso   1.000  H
  H132     1.0000 0.62610  0.31630  0.87690  Biso   1.000  H
  H133     1.0000 0.67650  0.27110  0.84340  Biso   1.000  H
  C131     1.0000 0.79010  0.34080  0.87740  Biso   1.000  C
  H134     1.0000 0.76570  0.35510  0.91670  Biso   1.000  H
  H135     1.0000 0.83880  0.36120  0.86500  Biso   1.000  H
  H136     1.0000 0.80800  0.30580  0.88580  Biso   1.000  H
  N12      1.0000 0.84840  0.69630  0.01060  Biso   1.000  N
  C132     1.0000 0.91370  0.67800  0.02420  Biso   1.000  C
  S12      1.0000 0.00310  0.65439  0.04340  Biso   1.000  S
  S13      1.0000 0.76261  0.98361  0.30138  Biso   1.000  S
  C133     1.0000 0.85210  0.95850  0.34340  Biso   1.000  C
  C134     1.0000 0.91950  0.98900  0.36440  Biso   1.000  C
  C135     1.0000 0.98670  0.96730  0.39810  Biso   1.000  C
  C136     1.0000 0.98390  0.91600  0.41620  Biso   1.000  C
  H137     1.0000 0.02950  0.90190  0.44040  Biso   1.000  H
  C137     1.0000 0.91450  0.88490  0.39930  Biso   1.000  C
  C138     1.0000 0.85060  0.90750  0.36070  Biso   1.000  C
  H138     1.0000 0.80490  0.88710  0.34610  Biso   1.000  H
  O9       1.0000 0.91860  0.04094  0.35330  Biso   1.000  O
  C139     1.0000 0.86870  0.06600  0.40270  Biso   1.000  C
  H139     1.0000 0.80900  0.05580  0.39800  Biso   1.000  H
  H140     1.0000 0.88900  0.05590  0.44650  Biso   1.000  H
  C140     1.0000 0.87650  0.12250  0.39490  Biso   1.000  C
  C141     1.0000 0.82510  0.15220  0.43240  Biso   1.000  C
  H141     1.0000 0.78570  0.13550  0.45910  Biso   1.000  H
  N13      1.0000 0.82740  0.20360  0.43350  Biso   1.000  N
  C142     1.0000 0.88060  0.22600  0.39400  Biso   1.000  C
  H142     1.0000 0.88240  0.26200  0.39360  Biso   1.000  H
  C143     1.0000 0.93290  0.20030  0.35380  Biso   1.000  C
  H143     1.0000 0.96970  0.21820  0.32610  Biso   1.000  H
  C144     1.0000 0.93120  0.14720  0.35410  Biso   1.000  C
  H144     1.0000 0.96710  0.12840  0.32670  Biso   1.000  H
  C145     1.0000 0.90800  0.82980  0.42170  Biso   1.000  C
  C146     1.0000 0.82590  0.82310  0.45860  Biso   1.000  C
  H145     1.0000 0.77880  0.83550  0.43180  Biso   1.000  H
  H146     1.0000 0.81750  0.78710  0.46840  Biso   1.000  H
  H147     1.0000 0.82900  0.84250  0.49910  Biso   1.000  H
  C147     1.0000 0.90460  0.79430  0.36210  Biso   1.000  C
  H148     1.0000 0.95260  0.80130  0.33440  Biso   1.000  H
  H149     1.0000 0.90650  0.75900  0.37660  Biso   1.000  H
  H150     1.0000 0.85230  0.80030  0.33750  Biso   1.000  H
  C148     1.0000 0.98230  0.81370  0.46480  Biso   1.000  C
  H151     1.0000 0.98470  0.83510  0.50360  Biso   1.000  H
  H152     1.0000 0.97530  0.77820  0.47770  Biso   1.000  H
  H153     1.0000 0.03450  0.81740  0.44090  Biso   1.000  H
  S14      1.0000 0.07172  0.00511  0.43035  Biso   1.000  S
  C149     1.0000 0.12220  0.03040  0.36100  Biso   1.000  C
  C150     1.0000 0.15010  0.00030  0.31200  Biso   1.000  C
  C151     1.0000 0.19640  0.02170  0.26170  Biso   1.000  C
  C152     1.0000 0.21560  0.07340  0.26380  Biso   1.000  C
  H154     1.0000 0.24530  0.08790  0.22880  Biso   1.000  H
  C153     1.0000 0.19340  0.10380  0.31390  Biso   1.000  C
  C154     1.0000 0.14410  0.08180  0.36280  Biso   1.000  C
  H155     1.0000 0.12550  0.10230  0.39760  Biso   1.000  H
  O10      1.0000 0.13570  0.94800  0.31280  Biso   1.000  O
  C155     1.0000 0.20740  0.92240  0.34440  Biso   1.000  C
  H156     1.0000 0.25860  0.92690  0.31840  Biso   1.000  H
  H157     1.0000 0.21800  0.93690  0.38800  Biso   1.000  H
  C156     1.0000 0.18650  0.86700  0.34970  Biso   1.000  C
  C157     1.0000 0.21890  0.83950  0.40180  Biso   1.000  C
  H158     1.0000 0.25220  0.85690  0.43340  Biso   1.000  H
  N14      1.0000 0.20560  0.78930  0.41000  Biso   1.000  N
  C158     1.0000 0.15990  0.76460  0.36380  Biso   1.000  C
  H159     1.0000 0.15080  0.72920  0.36850  Biso   1.000  H
  C159     1.0000 0.12600  0.78900  0.31020  Biso   1.000  C
  H160     1.0000 0.09450  0.77050  0.27860  Biso   1.000  H
  C160     1.0000 0.13830  0.84070  0.30310  Biso   1.000  C
  H161     1.0000 0.11440  0.85820  0.26700  Biso   1.000  H
  C161     1.0000 0.22350  0.15860  0.32150  Biso   1.000  C
  C162     1.0000 0.26550  0.17800  0.26050  Biso   1.000  C
  H162     1.0000 0.27920  0.21400  0.26580  Biso   1.000  H
  H163     1.0000 0.31720  0.15870  0.25330  Biso   1.000  H
  H164     1.0000 0.22720  0.17370  0.22320  Biso   1.000  H
  C163     1.0000 0.15350  0.19470  0.33710  Biso   1.000  C
  H165     1.0000 0.11230  0.19510  0.30130  Biso   1.000  H
  H166     1.0000 0.12610  0.18370  0.37690  Biso   1.000  H
  H167     1.0000 0.17650  0.22890  0.34340  Biso   1.000  H
  C164     1.0000 0.29010  0.15920  0.37740  Biso   1.000  C
  H168     1.0000 0.26570  0.14490  0.41670  Biso   1.000  H
  H169     1.0000 0.33880  0.13880  0.36500  Biso   1.000  H
  H170     1.0000 0.30800  0.19420  0.38580  Biso   1.000  H
  N15      1.0000 0.34840  0.80370  0.51060  Biso   1.000  N
  C165     1.0000 0.41370  0.82200  0.52420  Biso   1.000  C
  S15      1.0000 0.50310  0.84561  0.54340  Biso   1.000  S
  S16      1.0000 0.26261  0.48361  0.30138  Biso   1.000  S
  C166     1.0000 0.35210  0.45850  0.34340  Biso   1.000  C
  C167     1.0000 0.41950  0.48900  0.36440  Biso   1.000  C
  C168     1.0000 0.48670  0.46730  0.39810  Biso   1.000  C
  C169     1.0000 0.48390  0.41600  0.41620  Biso   1.000  C
  H171     1.0000 0.52950  0.40190  0.44040  Biso   1.000  H
  C170     1.0000 0.41450  0.38490  0.39930  Biso   1.000  C
  C171     1.0000 0.35060  0.40750  0.36070  Biso   1.000  C
  H172     1.0000 0.30490  0.38710  0.34610  Biso   1.000  H
  O11      1.0000 0.41860  0.54094  0.35330  Biso   1.000  O
  C172     1.0000 0.36870  0.56600  0.40270  Biso   1.000  C
  H173     1.0000 0.30900  0.55580  0.39800  Biso   1.000  H
  H174     1.0000 0.38900  0.55590  0.44650  Biso   1.000  H
  C173     1.0000 0.37650  0.62250  0.39490  Biso   1.000  C
  C174     1.0000 0.32510  0.65220  0.43240  Biso   1.000  C
  H175     1.0000 0.28570  0.63550  0.45910  Biso   1.000  H
  N16      1.0000 0.32740  0.70360  0.43350  Biso   1.000  N
  C175     1.0000 0.38060  0.72600  0.39400  Biso   1.000  C
  H176     1.0000 0.38240  0.76200  0.39360  Biso   1.000  H
  C176     1.0000 0.43290  0.70030  0.35380  Biso   1.000  C
  H177     1.0000 0.46970  0.71820  0.32610  Biso   1.000  H
  C177     1.0000 0.43120  0.64720  0.35410  Biso   1.000  C
  H178     1.0000 0.46710  0.62840  0.32670  Biso   1.000  H
  C178     1.0000 0.40800  0.32980  0.42170  Biso   1.000  C
  C179     1.0000 0.32590  0.32310  0.45860  Biso   1.000  C
  H179     1.0000 0.27880  0.33550  0.43180  Biso   1.000  H
  H180     1.0000 0.31750  0.28710  0.46840  Biso   1.000  H
  H181     1.0000 0.32900  0.34250  0.49910  Biso   1.000  H
  C180     1.0000 0.40460  0.29430  0.36210  Biso   1.000  C
  H182     1.0000 0.45260  0.30130  0.33440  Biso   1.000  H
  H183     1.0000 0.40650  0.25900  0.37660  Biso   1.000  H
  H184     1.0000 0.35230  0.30030  0.33750  Biso   1.000  H
  C181     1.0000 0.48230  0.31370  0.46480  Biso   1.000  C
  H185     1.0000 0.48470  0.33510  0.50360  Biso   1.000  H
  H186     1.0000 0.47530  0.27820  0.47770  Biso   1.000  H
  H187     1.0000 0.53450  0.31740  0.44090  Biso   1.000  H
  S17      1.0000 0.57172  0.50511  0.43035  Biso   1.000  S
  C182     1.0000 0.62220  0.53040  0.36100  Biso   1.000  C
  C183     1.0000 0.65010  0.50030  0.31200  Biso   1.000  C
  C184     1.0000 0.69640  0.52170  0.26170  Biso   1.000  C
  C185     1.0000 0.71560  0.57340  0.26380  Biso   1.000  C
  H188     1.0000 0.74530  0.58790  0.22880  Biso   1.000  H
  C186     1.0000 0.69340  0.60380  0.31390  Biso   1.000  C
  C187     1.0000 0.64410  0.58180  0.36280  Biso   1.000  C
  H189     1.0000 0.62550  0.60230  0.39760  Biso   1.000  H
  O12      1.0000 0.63570  0.44800  0.31280  Biso   1.000  O
  C188     1.0000 0.70740  0.42240  0.34440  Biso   1.000  C
  H190     1.0000 0.75860  0.42690  0.31840  Biso   1.000  H
  H191     1.0000 0.71800  0.43690  0.38800  Biso   1.000  H
  C189     1.0000 0.68650  0.36700  0.34970  Biso   1.000  C
  C190     1.0000 0.71890  0.33950  0.40180  Biso   1.000  C
  H192     1.0000 0.75220  0.35690  0.43340  Biso   1.000  H
  N17      1.0000 0.70560  0.28930  0.41000  Biso   1.000  N
  C191     1.0000 0.65990  0.26460  0.36380  Biso   1.000  C
  H193     1.0000 0.65080  0.22920  0.36850  Biso   1.000  H
  C192     1.0000 0.62600  0.28900  0.31020  Biso   1.000  C
  H194     1.0000 0.59450  0.27050  0.27860  Biso   1.000  H
  C193     1.0000 0.63830  0.34070  0.30310  Biso   1.000  C
  H195     1.0000 0.61440  0.35820  0.26700  Biso   1.000  H
  C194     1.0000 0.72350  0.65860  0.32150  Biso   1.000  C
  C195     1.0000 0.76550  0.67800  0.26050  Biso   1.000  C
  H196     1.0000 0.77920  0.71400  0.26580  Biso   1.000  H
  H197     1.0000 0.81720  0.65870  0.25330  Biso   1.000  H
  H198     1.0000 0.72720  0.67370  0.22320  Biso   1.000  H
  C196     1.0000 0.65350  0.69470  0.33710  Biso   1.000  C
  H199     1.0000 0.61230  0.69510  0.30130  Biso   1.000  H
  H200     1.0000 0.62610  0.68370  0.37690  Biso   1.000  H
  H201     1.0000 0.67650  0.72890  0.34340  Biso   1.000  H
  C197     1.0000 0.79010  0.65920  0.37740  Biso   1.000  C
  H202     1.0000 0.76570  0.64490  0.41670  Biso   1.000  H
  H203     1.0000 0.83880  0.63880  0.36500  Biso   1.000  H
  H204     1.0000 0.80800  0.69420  0.38580  Biso   1.000  H
  N18      1.0000 0.84840  0.30370  0.51060  Biso   1.000  N
  C198     1.0000 0.91370  0.32200  0.52420  Biso   1.000  C
  S18      1.0000 0.00310  0.34561  0.54340  Biso   1.000  S
  S19      1.0000 0.23739  0.98361  0.19862  Biso   1.000  S
  C199     1.0000 0.14790  0.95850  0.15660  Biso   1.000  C
  C200     1.0000 0.08050  0.98900  0.13560  Biso   1.000  C
  C201     1.0000 0.01330  0.96730  0.10190  Biso   1.000  C
  C202     1.0000 0.01610  0.91600  0.08380  Biso   1.000  C
  H205     1.0000 0.97050  0.90190  0.05960  Biso   1.000  H
  C203     1.0000 0.08550  0.88490  0.10070  Biso   1.000  C
  C204     1.0000 0.14940  0.90750  0.13930  Biso   1.000  C
  H206     1.0000 0.19510  0.88710  0.15390  Biso   1.000  H
  O13      1.0000 0.08140  0.04094  0.14670  Biso   1.000  O
  C205     1.0000 0.13130  0.06600  0.09730  Biso   1.000  C
  H207     1.0000 0.19100  0.05580  0.10200  Biso   1.000  H
  H208     1.0000 0.11100  0.05590  0.05350  Biso   1.000  H
  C206     1.0000 0.12350  0.12250  0.10510  Biso   1.000  C
  C207     1.0000 0.17490  0.15220  0.06760  Biso   1.000  C
  H209     1.0000 0.21430  0.13550  0.04090  Biso   1.000  H
  N19      1.0000 0.17260  0.20360  0.06650  Biso   1.000  N
  C208     1.0000 0.11940  0.22600  0.10600  Biso   1.000  C
  H210     1.0000 0.11760  0.26200  0.10640  Biso   1.000  H
  C209     1.0000 0.06710  0.20030  0.14620  Biso   1.000  C
  H211     1.0000 0.03030  0.21820  0.17390  Biso   1.000  H
  C210     1.0000 0.06880  0.14720  0.14590  Biso   1.000  C
  H212     1.0000 0.03290  0.12840  0.17330  Biso   1.000  H
  C211     1.0000 0.09200  0.82980  0.07830  Biso   1.000  C
  C212     1.0000 0.17410  0.82310  0.04140  Biso   1.000  C
  H213     1.0000 0.22120  0.83550  0.06820  Biso   1.000  H
  H214     1.0000 0.18250  0.78710  0.03160  Biso   1.000  H
  H215     1.0000 0.17100  0.84250  0.00090  Biso   1.000  H
  C213     1.0000 0.09540  0.79430  0.13790  Biso   1.000  C
  H216     1.0000 0.04740  0.80130  0.16560  Biso   1.000  H
  H217     1.0000 0.09350  0.75900  0.12340  Biso   1.000  H
  H218     1.0000 0.14770  0.80030  0.16250  Biso   1.000  H
  C214     1.0000 0.01770  0.81370  0.03520  Biso   1.000  C
  H219     1.0000 0.01530  0.83510  0.99640  Biso   1.000  H
  H220     1.0000 0.02470  0.77820  0.02230  Biso   1.000  H
  H221     1.0000 0.96550  0.81740  0.05910  Biso   1.000  H
  S20      1.0000 0.92828  0.00511  0.06965  Biso   1.000  S
  C215     1.0000 0.87780  0.03040  0.13900  Biso   1.000  C
  C216     1.0000 0.84990  0.00030  0.18800  Biso   1.000  C
  C217     1.0000 0.80360  0.02170  0.23830  Biso   1.000  C
  C218     1.0000 0.78440  0.07340  0.23620  Biso   1.000  C
  H222     1.0000 0.75470  0.08790  0.27120  Biso   1.000  H
  C219     1.0000 0.80660  0.10380  0.18610  Biso   1.000  C
  C220     1.0000 0.85590  0.08180  0.13720  Biso   1.000  C
  H223     1.0000 0.87450  0.10230  0.10240  Biso   1.000  H
  O14      1.0000 0.86430  0.94800  0.18720  Biso   1.000  O
  C221     1.0000 0.79260  0.92240  0.15560  Biso   1.000  C
  H224     1.0000 0.74140  0.92690  0.18160  Biso   1.000  H
  H225     1.0000 0.78200  0.93690  0.11200  Biso   1.000  H
  C222     1.0000 0.81350  0.86700  0.15030  Biso   1.000  C
  C223     1.0000 0.78110  0.83950  0.09820  Biso   1.000  C
  H226     1.0000 0.74780  0.85690  0.06660  Biso   1.000  H
  N20      1.0000 0.79440  0.78930  0.09000  Biso   1.000  N
  C224     1.0000 0.84010  0.76460  0.13620  Biso   1.000  C
  H227     1.0000 0.84920  0.72920  0.13150  Biso   1.000  H
  C225     1.0000 0.87400  0.78900  0.18980  Biso   1.000  C
  H228     1.0000 0.90550  0.77050  0.22140  Biso   1.000  H
  C226     1.0000 0.86170  0.84070  0.19690  Biso   1.000  C
  H229     1.0000 0.88560  0.85820  0.23300  Biso   1.000  H
  C227     1.0000 0.77650  0.15860  0.17850  Biso   1.000  C
  C228     1.0000 0.73450  0.17800  0.23950  Biso   1.000  C
  H230     1.0000 0.72080  0.21400  0.23420  Biso   1.000  H
  H231     1.0000 0.68280  0.15870  0.24670  Biso   1.000  H
  H232     1.0000 0.77280  0.17370  0.27680  Biso   1.000  H
  C229     1.0000 0.84650  0.19470  0.16290  Biso   1.000  C
  H233     1.0000 0.88770  0.19510  0.19870  Biso   1.000  H
  H234     1.0000 0.87390  0.18370  0.12310  Biso   1.000  H
  H235     1.0000 0.82350  0.22890  0.15660  Biso   1.000  H
  C230     1.0000 0.70990  0.15920  0.12260  Biso   1.000  C
  H236     1.0000 0.73430  0.14490  0.08330  Biso   1.000  H
  H237     1.0000 0.66120  0.13880  0.13500  Biso   1.000  H
  H238     1.0000 0.69200  0.19420  0.11420  Biso   1.000  H
  N21      1.0000 0.65160  0.80370  0.98940  Biso   1.000  N
  C231     1.0000 0.58630  0.82200  0.97580  Biso   1.000  C
  S21      1.0000 0.49690  0.84561  0.95660  Biso   1.000  S
  S22      1.0000 0.73739  0.48361  0.19862  Biso   1.000  S
  C232     1.0000 0.64790  0.45850  0.15660  Biso   1.000  C
  C233     1.0000 0.58050  0.48900  0.13560  Biso   1.000  C
  C234     1.0000 0.51330  0.46730  0.10190  Biso   1.000  C
  C235     1.0000 0.51610  0.41600  0.08380  Biso   1.000  C
  H239     1.0000 0.47050  0.40190  0.05960  Biso   1.000  H
  C236     1.0000 0.58550  0.38490  0.10070  Biso   1.000  C
  C237     1.0000 0.64940  0.40750  0.13930  Biso   1.000  C
  H240     1.0000 0.69510  0.38710  0.15390  Biso   1.000  H
  O15      1.0000 0.58140  0.54094  0.14670  Biso   1.000  O
  C238     1.0000 0.63130  0.56600  0.09730  Biso   1.000  C
  H241     1.0000 0.69100  0.55580  0.10200  Biso   1.000  H
  H242     1.0000 0.61100  0.55590  0.05350  Biso   1.000  H
  C239     1.0000 0.62350  0.62250  0.10510  Biso   1.000  C
  C240     1.0000 0.67490  0.65220  0.06760  Biso   1.000  C
  H243     1.0000 0.71430  0.63550  0.04090  Biso   1.000  H
  N22      1.0000 0.67260  0.70360  0.06650  Biso   1.000  N
  C241     1.0000 0.61940  0.72600  0.10600  Biso   1.000  C
  H244     1.0000 0.61760  0.76200  0.10640  Biso   1.000  H
  C242     1.0000 0.56710  0.70030  0.14620  Biso   1.000  C
  H245     1.0000 0.53030  0.71820  0.17390  Biso   1.000  H
  C243     1.0000 0.56880  0.64720  0.14590  Biso   1.000  C
  H246     1.0000 0.53290  0.62840  0.17330  Biso   1.000  H
  C244     1.0000 0.59200  0.32980  0.07830  Biso   1.000  C
  C245     1.0000 0.67410  0.32310  0.04140  Biso   1.000  C
  H247     1.0000 0.72120  0.33550  0.06820  Biso   1.000  H
  H248     1.0000 0.68250  0.28710  0.03160  Biso   1.000  H
  H249     1.0000 0.67100  0.34250  0.00090  Biso   1.000  H
  C246     1.0000 0.59540  0.29430  0.13790  Biso   1.000  C
  H250     1.0000 0.54740  0.30130  0.16560  Biso   1.000  H
  H251     1.0000 0.59350  0.25900  0.12340  Biso   1.000  H
  H252     1.0000 0.64770  0.30030  0.16250  Biso   1.000  H
  C247     1.0000 0.51770  0.31370  0.03520  Biso   1.000  C
  H253     1.0000 0.51530  0.33510  0.99640  Biso   1.000  H
  H254     1.0000 0.52470  0.27820  0.02230  Biso   1.000  H
  H255     1.0000 0.46550  0.31740  0.05910  Biso   1.000  H
  S23      1.0000 0.42828  0.50511  0.06965  Biso   1.000  S
  C248     1.0000 0.37780  0.53040  0.13900  Biso   1.000  C
  C249     1.0000 0.34990  0.50030  0.18800  Biso   1.000  C
  C250     1.0000 0.30360  0.52170  0.23830  Biso   1.000  C
  C251     1.0000 0.28440  0.57340  0.23620  Biso   1.000  C
  H256     1.0000 0.25470  0.58790  0.27120  Biso   1.000  H
  C252     1.0000 0.30660  0.60380  0.18610  Biso   1.000  C
  C253     1.0000 0.35590  0.58180  0.13720  Biso   1.000  C
  H257     1.0000 0.37450  0.60230  0.10240  Biso   1.000  H
  O16      1.0000 0.36430  0.44800  0.18720  Biso   1.000  O
  C254     1.0000 0.29260  0.42240  0.15560  Biso   1.000  C
  H258     1.0000 0.24140  0.42690  0.18160  Biso   1.000  H
  H259     1.0000 0.28200  0.43690  0.11200  Biso   1.000  H
  C255     1.0000 0.31350  0.36700  0.15030  Biso   1.000  C
  C256     1.0000 0.28110  0.33950  0.09820  Biso   1.000  C
  H260     1.0000 0.24780  0.35690  0.06660  Biso   1.000  H
  N23      1.0000 0.29440  0.28930  0.09000  Biso   1.000  N
  C257     1.0000 0.34010  0.26460  0.13620  Biso   1.000  C
  H261     1.0000 0.34920  0.22920  0.13150  Biso   1.000  H
  C258     1.0000 0.37400  0.28900  0.18980  Biso   1.000  C
  H262     1.0000 0.40550  0.27050  0.22140  Biso   1.000  H
  C259     1.0000 0.36170  0.34070  0.19690  Biso   1.000  C
  H263     1.0000 0.38560  0.35820  0.23300  Biso   1.000  H
  C260     1.0000 0.27650  0.65860  0.17850  Biso   1.000  C
  C261     1.0000 0.23450  0.67800  0.23950  Biso   1.000  C
  H264     1.0000 0.22080  0.71400  0.23420  Biso   1.000  H
  H265     1.0000 0.18280  0.65870  0.24670  Biso   1.000  H
  H266     1.0000 0.27280  0.67370  0.27680  Biso   1.000  H
  C262     1.0000 0.34650  0.69470  0.16290  Biso   1.000  C
  H267     1.0000 0.38770  0.69510  0.19870  Biso   1.000  H
  H268     1.0000 0.37390  0.68370  0.12310  Biso   1.000  H
  H269     1.0000 0.32350  0.72890  0.15660  Biso   1.000  H
  C263     1.0000 0.20990  0.65920  0.12260  Biso   1.000  C
  H270     1.0000 0.23430  0.64490  0.08330  Biso   1.000  H
  H271     1.0000 0.16120  0.63880  0.13500  Biso   1.000  H
  H272     1.0000 0.19200  0.69420  0.11420  Biso   1.000  H
  N24      1.0000 0.15160  0.30370  0.98940  Biso   1.000  N
  C264     1.0000 0.08630  0.32200  0.97580  Biso   1.000  C
  S24      1.0000 0.99690  0.34561  0.95660  Biso   1.000  S
  Fe1      1.0000 0.75000  0.25000  0.50000  Biso   1.000  Fe
  Fe2      1.0000 0.25000  0.25000  0.00000  Biso   1.000  Fe
  Fe3      1.0000 0.25000  0.75000  0.50000  Biso   1.000  Fe
  Fe4      1.0000 0.75000  0.75000  0.00000  Biso   1.000  Fe
