data_image0
_cell_length_a       9.9197
_cell_length_b       9.9197
_cell_length_c       6.3434
_cell_angle_alpha    90
_cell_angle_beta     90
_cell_angle_gamma    90

_symmetry_space_group_name_H-M    "P 1"
_symmetry_int_tables_number       1

loop_
  _symmetry_equiv_pos_as_xyz
  'x, y, z'

loop_
  _atom_site_label
  _atom_site_occupancy
  _atom_site_fract_x
  _atom_site_fract_y
  _atom_site_fract_z
  _atom_site_thermal_displace_type
  _atom_site_B_iso_or_equiv
  _atom_site_type_symbol
  C1       1.0000 0.22268  0.17520  0.16735  Biso   1.000  C
  H1       1.0000 0.20153  0.12250  0.29024  Biso   1.000  H
  C2       1.0000 0.77732  0.82480  0.16735  Biso   1.000  C
  H2       1.0000 0.79847  0.87750  0.29024  Biso   1.000  H
  C3       1.0000 0.32480  0.72268  0.16735  Biso   1.000  C
  H3       1.0000 0.37750  0.70153  0.29024  Biso   1.000  H
  C4       1.0000 0.67520  0.27732  0.16735  Biso   1.000  C
  H4       1.0000 0.62250  0.29847  0.29024  Biso   1.000  H
  C5       1.0000 0.27732  0.67520  0.83265  Biso   1.000  C
  H5       1.0000 0.29847  0.62250  0.70976  Biso   1.000  H
  C6       1.0000 0.72268  0.32480  0.83265  Biso   1.000  C
  H6       1.0000 0.70153  0.37750  0.70976  Biso   1.000  H
  C7       1.0000 0.17520  0.22268  0.83265  Biso   1.000  C
  H7       1.0000 0.12250  0.20153  0.70976  Biso   1.000  H
  C8       1.0000 0.82480  0.77732  0.83265  Biso   1.000  C
  H8       1.0000 0.87750  0.79847  0.70976  Biso   1.000  H
  C9       1.0000 0.27732  0.32480  0.83265  Biso   1.000  C
  H9       1.0000 0.29847  0.37750  0.70976  Biso   1.000  H
  C10      1.0000 0.72268  0.67520  0.83265  Biso   1.000  C
  H10      1.0000 0.70153  0.62250  0.70976  Biso   1.000  H
  C11      1.0000 0.17520  0.77732  0.83265  Biso   1.000  C
  H11      1.0000 0.12250  0.79847  0.70976  Biso   1.000  H
  C12      1.0000 0.82480  0.22268  0.83265  Biso   1.000  C
  H12      1.0000 0.87750  0.20153  0.70976  Biso   1.000  H
  C13      1.0000 0.22268  0.82480  0.16735  Biso   1.000  C
  H13      1.0000 0.20153  0.87750  0.29024  Biso   1.000  H
  C14      1.0000 0.77732  0.17520  0.16735  Biso   1.000  C
  H14      1.0000 0.79847  0.12250  0.29024  Biso   1.000  H
  C15      1.0000 0.32480  0.27732  0.16735  Biso   1.000  C
  H15      1.0000 0.37750  0.29847  0.29024  Biso   1.000  H
  C16      1.0000 0.67520  0.72268  0.16735  Biso   1.000  C
  H16      1.0000 0.62250  0.70153  0.29024  Biso   1.000  H
  Ni1      1.0000 0.00000  0.00000  0.00000  Biso   1.000  Ni
  Ni2      1.0000 0.50000  0.50000  0.00000  Biso   1.000  Ni
  F1       1.0000 0.00000  0.00000  0.32578  Biso   1.000  F
  F2       1.0000 0.50000  0.50000  0.32578  Biso   1.000  F
  F3       1.0000 0.50000  0.50000  0.67422  Biso   1.000  F
  F4       1.0000 0.00000  0.00000  0.67422  Biso   1.000  F
  N1       1.0000 0.15047  0.15047  0.00000  Biso   1.000  N
  N2       1.0000 0.84953  0.84953  0.00000  Biso   1.000  N
  N3       1.0000 0.34953  0.65047  0.00000  Biso   1.000  N
  N4       1.0000 0.65047  0.34953  0.00000  Biso   1.000  N
  N5       1.0000 0.34953  0.34953  0.00000  Biso   1.000  N
  N6       1.0000 0.65047  0.65047  0.00000  Biso   1.000  N
  N7       1.0000 0.15047  0.84953  0.00000  Biso   1.000  N
  N8       1.0000 0.84953  0.15047  0.00000  Biso   1.000  N
  H17      1.0000 0.00000  0.00000  0.50000  Biso   1.000  H
  H18      1.0000 0.50000  0.50000  0.50000  Biso   1.000  H
