data_image0
_cell_length_a       10.266
_cell_length_b       10.266
_cell_length_c       9.6311
_cell_angle_alpha    90
_cell_angle_beta     90
_cell_angle_gamma    90

_symmetry_space_group_name_H-M    "P 1"
_symmetry_int_tables_number       1

loop_
  _symmetry_equiv_pos_as_xyz
  'x, y, z'

loop_
  _atom_site_label
  _atom_site_occupancy
  _atom_site_fract_x
  _atom_site_fract_y
  _atom_site_fract_z
  _atom_site_thermal_displace_type
  _atom_site_B_iso_or_equiv
  _atom_site_type_symbol
  O1       1.0000 0.30440  0.47790  0.77880  Biso   1.000  O
  O2       1.0000 0.80440  0.97790  0.27880  Biso   1.000  O
  O3       1.0000 0.69560  0.52210  0.77880  Biso   1.000  O
  O4       1.0000 0.19560  0.02210  0.27880  Biso   1.000  O
  O5       1.0000 0.47790  0.69560  0.22120  Biso   1.000  O
  O6       1.0000 0.97790  0.19560  0.72120  Biso   1.000  O
  O7       1.0000 0.52210  0.30440  0.22120  Biso   1.000  O
  O8       1.0000 0.02210  0.80440  0.72120  Biso   1.000  O
  O9       1.0000 0.69560  0.47790  0.22120  Biso   1.000  O
  O10      1.0000 0.19560  0.97790  0.72120  Biso   1.000  O
  O11      1.0000 0.30440  0.52210  0.22120  Biso   1.000  O
  O12      1.0000 0.80440  0.02210  0.72120  Biso   1.000  O
  O13      1.0000 0.52210  0.69560  0.77880  Biso   1.000  O
  O14      1.0000 0.02210  0.19560  0.27880  Biso   1.000  O
  O15      1.0000 0.47790  0.30440  0.77880  Biso   1.000  O
  O16      1.0000 0.97790  0.80440  0.27880  Biso   1.000  O
  Fe1      1.0000 0.36725  0.36725  0.13121  Biso   1.000  Fe
  P1       1.0000 0.33584  0.33584  0.80630  Biso   1.000  P
  O17      1.0000 0.30040  0.30040  0.95480  Biso   1.000  O
  O18      1.0000 0.25640  0.25640  0.70740  Biso   1.000  O
  Fe2      1.0000 0.86725  0.86725  0.63121  Biso   1.000  Fe
  P2       1.0000 0.83584  0.83584  0.30630  Biso   1.000  P
  O19      1.0000 0.80040  0.80040  0.45480  Biso   1.000  O
  O20      1.0000 0.75640  0.75640  0.20740  Biso   1.000  O
  Fe3      1.0000 0.63275  0.63275  0.13121  Biso   1.000  Fe
  P3       1.0000 0.66416  0.66416  0.80630  Biso   1.000  P
  O21      1.0000 0.69960  0.69960  0.95480  Biso   1.000  O
  O22      1.0000 0.74360  0.74360  0.70740  Biso   1.000  O
  Fe4      1.0000 0.13275  0.13275  0.63121  Biso   1.000  Fe
  P4       1.0000 0.16416  0.16416  0.30630  Biso   1.000  P
  O23      1.0000 0.19960  0.19960  0.45480  Biso   1.000  O
  O24      1.0000 0.24360  0.24360  0.20740  Biso   1.000  O
  Fe5      1.0000 0.36725  0.63275  0.86879  Biso   1.000  Fe
  P5       1.0000 0.33584  0.66416  0.19370  Biso   1.000  P
  O25      1.0000 0.30040  0.69960  0.04520  Biso   1.000  O
  O26      1.0000 0.25640  0.74360  0.29260  Biso   1.000  O
  Fe6      1.0000 0.86725  0.13275  0.36879  Biso   1.000  Fe
  P6       1.0000 0.83584  0.16416  0.69370  Biso   1.000  P
  O27      1.0000 0.80040  0.19960  0.54520  Biso   1.000  O
  O28      1.0000 0.75640  0.24360  0.79260  Biso   1.000  O
  Fe7      1.0000 0.63275  0.36725  0.86879  Biso   1.000  Fe
  P7       1.0000 0.66416  0.33584  0.19370  Biso   1.000  P
  O29      1.0000 0.69960  0.30040  0.04520  Biso   1.000  O
  O30      1.0000 0.74360  0.25640  0.29260  Biso   1.000  O
  Fe8      1.0000 0.13275  0.86725  0.36879  Biso   1.000  Fe
  P8       1.0000 0.16416  0.83584  0.69370  Biso   1.000  P
  O31      1.0000 0.19960  0.80040  0.54520  Biso   1.000  O
  O32      1.0000 0.24360  0.75640  0.79260  Biso   1.000  O
