data_image0
_cell_length_a       10.292
_cell_length_b       10.292
_cell_length_c       9.629
_cell_angle_alpha    90
_cell_angle_beta     90
_cell_angle_gamma    90

_symmetry_space_group_name_H-M    "P 1"
_symmetry_int_tables_number       1

loop_
  _symmetry_equiv_pos_as_xyz
  'x, y, z'

loop_
  _atom_site_label
  _atom_site_occupancy
  _atom_site_fract_x
  _atom_site_fract_y
  _atom_site_fract_z
  _atom_site_thermal_displace_type
  _atom_site_B_iso_or_equiv
  _atom_site_type_symbol
  O1       1.0000 0.52350  0.69510  0.72290  Biso   1.000  O
  O2       1.0000 0.02350  0.19510  0.22290  Biso   1.000  O
  O3       1.0000 0.47650  0.30490  0.72290  Biso   1.000  O
  O4       1.0000 0.97650  0.80490  0.22290  Biso   1.000  O
  O5       1.0000 0.69510  0.47650  0.27710  Biso   1.000  O
  O6       1.0000 0.19510  0.97650  0.77710  Biso   1.000  O
  O7       1.0000 0.30490  0.52350  0.27710  Biso   1.000  O
  O8       1.0000 0.80490  0.02350  0.77710  Biso   1.000  O
  O9       1.0000 0.47650  0.69510  0.27710  Biso   1.000  O
  O10      1.0000 0.97650  0.19510  0.77710  Biso   1.000  O
  O11      1.0000 0.52350  0.30490  0.27710  Biso   1.000  O
  O12      1.0000 0.02350  0.80490  0.77710  Biso   1.000  O
  O13      1.0000 0.30490  0.47650  0.72290  Biso   1.000  O
  O14      1.0000 0.80490  0.97650  0.22290  Biso   1.000  O
  O15      1.0000 0.69510  0.52350  0.72290  Biso   1.000  O
  O16      1.0000 0.19510  0.02350  0.22290  Biso   1.000  O
  Fe1      1.0000 0.63442  0.63442  0.36520  Biso   1.000  Fe
  P1       1.0000 0.66310  0.66310  0.69150  Biso   1.000  P
  O17      1.0000 0.70260  0.70260  0.54590  Biso   1.000  O
  O18      1.0000 0.73820  0.73820  0.79500  Biso   1.000  O
  Fe2      1.0000 0.13442  0.13442  0.86520  Biso   1.000  Fe
  P2       1.0000 0.16310  0.16310  0.19150  Biso   1.000  P
  O19      1.0000 0.20260  0.20260  0.04590  Biso   1.000  O
  O20      1.0000 0.23820  0.23820  0.29500  Biso   1.000  O
  Fe3      1.0000 0.36558  0.36558  0.36520  Biso   1.000  Fe
  P3       1.0000 0.33690  0.33690  0.69150  Biso   1.000  P
  O21      1.0000 0.29740  0.29740  0.54590  Biso   1.000  O
  O22      1.0000 0.26180  0.26180  0.79500  Biso   1.000  O
  Fe4      1.0000 0.86558  0.86558  0.86520  Biso   1.000  Fe
  P4       1.0000 0.83690  0.83690  0.19150  Biso   1.000  P
  O23      1.0000 0.79740  0.79740  0.04590  Biso   1.000  O
  O24      1.0000 0.76180  0.76180  0.29500  Biso   1.000  O
  Fe5      1.0000 0.63442  0.36558  0.63480  Biso   1.000  Fe
  P5       1.0000 0.66310  0.33690  0.30850  Biso   1.000  P
  O25      1.0000 0.70260  0.29740  0.45410  Biso   1.000  O
  O26      1.0000 0.73820  0.26180  0.20500  Biso   1.000  O
  Fe6      1.0000 0.13442  0.86558  0.13480  Biso   1.000  Fe
  P6       1.0000 0.16310  0.83690  0.80850  Biso   1.000  P
  O27      1.0000 0.20260  0.79740  0.95410  Biso   1.000  O
  O28      1.0000 0.23820  0.76180  0.70500  Biso   1.000  O
  Fe7      1.0000 0.36558  0.63442  0.63480  Biso   1.000  Fe
  P7       1.0000 0.33690  0.66310  0.30850  Biso   1.000  P
  O29      1.0000 0.29740  0.70260  0.45410  Biso   1.000  O
  O30      1.0000 0.26180  0.73820  0.20500  Biso   1.000  O
  Fe8      1.0000 0.86558  0.13442  0.13480  Biso   1.000  Fe
  P8       1.0000 0.83690  0.16310  0.80850  Biso   1.000  P
  O31      1.0000 0.79740  0.20260  0.95410  Biso   1.000  O
  O32      1.0000 0.76180  0.23820  0.70500  Biso   1.000  O
