data_image0
_cell_length_a       10.2941
_cell_length_b       10.2941
_cell_length_c       9.6484
_cell_angle_alpha    90
_cell_angle_beta     90
_cell_angle_gamma    90

_symmetry_space_group_name_H-M    "P 1"
_symmetry_int_tables_number       1

loop_
  _symmetry_equiv_pos_as_xyz
  'x, y, z'

loop_
  _atom_site_label
  _atom_site_occupancy
  _atom_site_fract_x
  _atom_site_fract_y
  _atom_site_fract_z
  _atom_site_thermal_displace_type
  _atom_site_B_iso_or_equiv
  _atom_site_type_symbol
  O1       1.0000 0.30460  0.47700  0.71980  Biso   1.000  O
  O2       1.0000 0.80460  0.97700  0.21980  Biso   1.000  O
  O3       1.0000 0.69540  0.52300  0.71980  Biso   1.000  O
  O4       1.0000 0.19540  0.02300  0.21980  Biso   1.000  O
  O5       1.0000 0.47700  0.69540  0.28020  Biso   1.000  O
  O6       1.0000 0.97700  0.19540  0.78020  Biso   1.000  O
  O7       1.0000 0.52300  0.30460  0.28020  Biso   1.000  O
  O8       1.0000 0.02300  0.80460  0.78020  Biso   1.000  O
  O9       1.0000 0.69540  0.47700  0.28020  Biso   1.000  O
  O10      1.0000 0.19540  0.97700  0.78020  Biso   1.000  O
  O11      1.0000 0.30460  0.52300  0.28020  Biso   1.000  O
  O12      1.0000 0.80460  0.02300  0.78020  Biso   1.000  O
  O13      1.0000 0.52300  0.69540  0.71980  Biso   1.000  O
  O14      1.0000 0.02300  0.19540  0.21980  Biso   1.000  O
  O15      1.0000 0.47700  0.30460  0.71980  Biso   1.000  O
  O16      1.0000 0.97700  0.80460  0.21980  Biso   1.000  O
  Fe1      1.0000 0.36687  0.63313  0.63222  Biso   1.000  Fe
  Fe2      1.0000 0.86687  0.13313  0.13222  Biso   1.000  Fe
  Fe3      1.0000 0.63313  0.36687  0.63222  Biso   1.000  Fe
  Fe4      1.0000 0.13313  0.86687  0.13222  Biso   1.000  Fe
  Fe5      1.0000 0.63313  0.63313  0.36778  Biso   1.000  Fe
  Fe6      1.0000 0.13313  0.13313  0.86778  Biso   1.000  Fe
  Fe7      1.0000 0.36687  0.36687  0.36778  Biso   1.000  Fe
  Fe8      1.0000 0.86687  0.86687  0.86778  Biso   1.000  Fe
  P1       1.0000 0.33631  0.33631  0.69290  Biso   1.000  P
  O17      1.0000 0.29920  0.29920  0.54840  Biso   1.000  O
  O18      1.0000 0.25620  0.25620  0.79020  Biso   1.000  O
  P2       1.0000 0.83631  0.83631  0.19290  Biso   1.000  P
  O19      1.0000 0.79920  0.79920  0.04840  Biso   1.000  O
  O20      1.0000 0.75620  0.75620  0.29020  Biso   1.000  O
  P3       1.0000 0.66369  0.66369  0.69290  Biso   1.000  P
  O21      1.0000 0.70080  0.70080  0.54840  Biso   1.000  O
  O22      1.0000 0.74380  0.74380  0.79020  Biso   1.000  O
  P4       1.0000 0.16369  0.16369  0.19290  Biso   1.000  P
  O23      1.0000 0.20080  0.20080  0.04840  Biso   1.000  O
  O24      1.0000 0.24380  0.24380  0.29020  Biso   1.000  O
  P5       1.0000 0.33631  0.66369  0.30710  Biso   1.000  P
  O25      1.0000 0.29920  0.70080  0.45160  Biso   1.000  O
  O26      1.0000 0.25620  0.74380  0.20980  Biso   1.000  O
  P6       1.0000 0.83631  0.16369  0.80710  Biso   1.000  P
  O27      1.0000 0.79920  0.20080  0.95160  Biso   1.000  O
  O28      1.0000 0.75620  0.24380  0.70980  Biso   1.000  O
  P7       1.0000 0.66369  0.33631  0.30710  Biso   1.000  P
  O29      1.0000 0.70080  0.29920  0.45160  Biso   1.000  O
  O30      1.0000 0.74380  0.25620  0.20980  Biso   1.000  O
  P8       1.0000 0.16369  0.83631  0.80710  Biso   1.000  P
  O31      1.0000 0.20080  0.79920  0.95160  Biso   1.000  O
  O32      1.0000 0.24380  0.75620  0.70980  Biso   1.000  O
