data_image0
_cell_length_a       18.6842
_cell_length_b       18.6842
_cell_length_c       9.408
_cell_angle_alpha    90
_cell_angle_beta     90
_cell_angle_gamma    90

_symmetry_space_group_name_H-M    "P 1"
_symmetry_int_tables_number       1

loop_
  _symmetry_equiv_pos_as_xyz
  'x, y, z'

loop_
  _atom_site_label
  _atom_site_occupancy
  _atom_site_fract_x
  _atom_site_fract_y
  _atom_site_fract_z
  _atom_site_thermal_displace_type
  _atom_site_B_iso_or_equiv
  _atom_site_type_symbol
  P1       1.0000 0.06421  0.94340  0.33485  Biso   1.000  P
  O1       1.0000 0.07340  0.91880  0.48710  Biso   1.000  O
  O2       1.0000 0.05840  0.87680  0.24230  Biso   1.000  O
  O3       1.0000 0.12860  0.98880  0.29330  Biso   1.000  O
  O4       1.0000 0.99510  0.98490  0.32170  Biso   1.000  O
  Al1      1.0000 0.16453  0.04424  0.15671  Biso   1.000  Al
  O5       1.0000 0.15530  0.99930  0.98860  Biso   1.000  O
  O6       1.0000 0.25600  0.06290  0.19170  Biso   1.000  O
  O7       1.0000 0.37330  0.12170  0.15550  Biso   1.000  O
  P2       1.0000 0.33331  0.05057  0.16026  Biso   1.000  P
  O8       1.0000 0.34220  0.01400  0.01730  Biso   1.000  O
  O9       1.0000 0.36380  0.00480  0.27810  Biso   1.000  O
  Al2      1.0000 0.06542  0.83414  0.08060  Biso   1.000  Al
  Co1      1.0000 0.93458  0.16586  0.91940  Biso   1.000  Co
  O10      1.0000 0.13760  0.86650  0.98270  Biso   1.000  O
  O11      1.0000 0.24460  0.91940  0.87720  Biso   1.000  O
  P3       1.0000 0.16652  0.93222  0.90426  Biso   1.000  P
  O12      1.0000 0.12970  0.93990  0.76050  Biso   1.000  O
  Al3      1.0000 0.05063  0.93361  0.66453  Biso   1.000  Al
  P4       1.0000 0.43579  0.55660  0.33485  Biso   1.000  P
  O13      1.0000 0.42660  0.58120  0.48710  Biso   1.000  O
  O14      1.0000 0.44160  0.62320  0.24230  Biso   1.000  O
  O15      1.0000 0.37140  0.51120  0.29330  Biso   1.000  O
  O16      1.0000 0.50490  0.51510  0.32170  Biso   1.000  O
  Al4      1.0000 0.33547  0.45576  0.15671  Biso   1.000  Al
  O17      1.0000 0.34470  0.50070  0.98860  Biso   1.000  O
  O18      1.0000 0.24400  0.43710  0.19170  Biso   1.000  O
  O19      1.0000 0.12670  0.37830  0.15550  Biso   1.000  O
  P5       1.0000 0.16669  0.44943  0.16026  Biso   1.000  P
  O20      1.0000 0.15780  0.48600  0.01730  Biso   1.000  O
  O21      1.0000 0.13620  0.49520  0.27810  Biso   1.000  O
  Al5      1.0000 0.43458  0.66586  0.08060  Biso   1.000  Al
  Co2      1.0000 0.56542  0.33414  0.91940  Biso   1.000  Co
  O22      1.0000 0.36240  0.63350  0.98270  Biso   1.000  O
  O23      1.0000 0.25540  0.58060  0.87720  Biso   1.000  O
  P6       1.0000 0.33348  0.56778  0.90426  Biso   1.000  P
  O24      1.0000 0.37030  0.56010  0.76050  Biso   1.000  O
  Al6      1.0000 0.44937  0.56639  0.66453  Biso   1.000  Al
  P7       1.0000 0.55660  0.06421  0.33485  Biso   1.000  P
  O25      1.0000 0.58120  0.07340  0.48710  Biso   1.000  O
  O26      1.0000 0.62320  0.05840  0.24230  Biso   1.000  O
  O27      1.0000 0.51120  0.12860  0.29330  Biso   1.000  O
  O28      1.0000 0.51510  0.99510  0.32170  Biso   1.000  O
  Al7      1.0000 0.45576  0.16453  0.15671  Biso   1.000  Al
  O29      1.0000 0.50070  0.15530  0.98860  Biso   1.000  O
  O30      1.0000 0.43710  0.25600  0.19170  Biso   1.000  O
  O31      1.0000 0.37830  0.37330  0.15550  Biso   1.000  O
  P8       1.0000 0.44943  0.33331  0.16026  Biso   1.000  P
  O32      1.0000 0.48600  0.34220  0.01730  Biso   1.000  O
  O33      1.0000 0.49520  0.36380  0.27810  Biso   1.000  O
  Al8      1.0000 0.66586  0.06542  0.08060  Biso   1.000  Al
  Co3      1.0000 0.33414  0.93458  0.91940  Biso   1.000  Co
  O34      1.0000 0.63350  0.13760  0.98270  Biso   1.000  O
  O35      1.0000 0.58060  0.24460  0.87720  Biso   1.000  O
  P9       1.0000 0.56778  0.16652  0.90426  Biso   1.000  P
  O36      1.0000 0.56010  0.12970  0.76050  Biso   1.000  O
  Al9      1.0000 0.56639  0.05063  0.66453  Biso   1.000  Al
  P10      1.0000 0.94340  0.43579  0.33485  Biso   1.000  P
  O37      1.0000 0.91880  0.42660  0.48710  Biso   1.000  O
  O38      1.0000 0.87680  0.44160  0.24230  Biso   1.000  O
  O39      1.0000 0.98880  0.37140  0.29330  Biso   1.000  O
  O40      1.0000 0.98490  0.50490  0.32170  Biso   1.000  O
  Al10     1.0000 0.04424  0.33547  0.15671  Biso   1.000  Al
  O41      1.0000 0.99930  0.34470  0.98860  Biso   1.000  O
  O42      1.0000 0.06290  0.24400  0.19170  Biso   1.000  O
  O43      1.0000 0.12170  0.12670  0.15550  Biso   1.000  O
  P11      1.0000 0.05057  0.16669  0.16026  Biso   1.000  P
  O44      1.0000 0.01400  0.15780  0.01730  Biso   1.000  O
  O45      1.0000 0.00480  0.13620  0.27810  Biso   1.000  O
  Al11     1.0000 0.83414  0.43458  0.08060  Biso   1.000  Al
  Co4      1.0000 0.16586  0.56542  0.91940  Biso   1.000  Co
  O46      1.0000 0.86650  0.36240  0.98270  Biso   1.000  O
  O47      1.0000 0.91940  0.25540  0.87720  Biso   1.000  O
  P12      1.0000 0.93222  0.33348  0.90426  Biso   1.000  P
  O48      1.0000 0.93990  0.37030  0.76050  Biso   1.000  O
  Al12     1.0000 0.93361  0.44937  0.66453  Biso   1.000  Al
  P13      1.0000 0.93579  0.05660  0.66515  Biso   1.000  P
  O49      1.0000 0.92660  0.08120  0.51290  Biso   1.000  O
  O50      1.0000 0.94160  0.12320  0.75770  Biso   1.000  O
  O51      1.0000 0.87140  0.01120  0.70670  Biso   1.000  O
  O52      1.0000 0.00490  0.01510  0.67830  Biso   1.000  O
  Al13     1.0000 0.83547  0.95576  0.84329  Biso   1.000  Al
  O53      1.0000 0.84470  0.00070  0.01140  Biso   1.000  O
  O54      1.0000 0.74400  0.93710  0.80830  Biso   1.000  O
  O55      1.0000 0.62670  0.87830  0.84450  Biso   1.000  O
  P14      1.0000 0.66669  0.94943  0.83974  Biso   1.000  P
  O56      1.0000 0.65780  0.98600  0.98270  Biso   1.000  O
  O57      1.0000 0.63620  0.99520  0.72190  Biso   1.000  O
  O58      1.0000 0.86240  0.13350  0.01730  Biso   1.000  O
  O59      1.0000 0.75540  0.08060  0.12280  Biso   1.000  O
  P15      1.0000 0.83348  0.06778  0.09574  Biso   1.000  P
  O60      1.0000 0.87030  0.06010  0.23950  Biso   1.000  O
  Al14     1.0000 0.94937  0.06639  0.33547  Biso   1.000  Al
  P16      1.0000 0.56421  0.44340  0.66515  Biso   1.000  P
  O61      1.0000 0.57340  0.41880  0.51290  Biso   1.000  O
  O62      1.0000 0.55840  0.37680  0.75770  Biso   1.000  O
  O63      1.0000 0.62860  0.48880  0.70670  Biso   1.000  O
  O64      1.0000 0.49510  0.48490  0.67830  Biso   1.000  O
  Al15     1.0000 0.66453  0.54424  0.84329  Biso   1.000  Al
  O65      1.0000 0.65530  0.49930  0.01140  Biso   1.000  O
  O66      1.0000 0.75600  0.56290  0.80830  Biso   1.000  O
  O67      1.0000 0.87330  0.62170  0.84450  Biso   1.000  O
  P17      1.0000 0.83331  0.55057  0.83974  Biso   1.000  P
  O68      1.0000 0.84220  0.51400  0.98270  Biso   1.000  O
  O69      1.0000 0.86380  0.50480  0.72190  Biso   1.000  O
  O70      1.0000 0.63760  0.36650  0.01730  Biso   1.000  O
  O71      1.0000 0.74460  0.41940  0.12280  Biso   1.000  O
  P18      1.0000 0.66652  0.43222  0.09574  Biso   1.000  P
  O72      1.0000 0.62970  0.43990  0.23950  Biso   1.000  O
  Al16     1.0000 0.55063  0.43361  0.33547  Biso   1.000  Al
  P19      1.0000 0.44340  0.93579  0.66515  Biso   1.000  P
  O73      1.0000 0.41880  0.92660  0.51290  Biso   1.000  O
  O74      1.0000 0.37680  0.94160  0.75770  Biso   1.000  O
  O75      1.0000 0.48880  0.87140  0.70670  Biso   1.000  O
  O76      1.0000 0.48490  0.00490  0.67830  Biso   1.000  O
  Al17     1.0000 0.54424  0.83547  0.84329  Biso   1.000  Al
  O77      1.0000 0.49930  0.84470  0.01140  Biso   1.000  O
  O78      1.0000 0.56290  0.74400  0.80830  Biso   1.000  O
  O79      1.0000 0.62170  0.62670  0.84450  Biso   1.000  O
  P20      1.0000 0.55057  0.66669  0.83974  Biso   1.000  P
  O80      1.0000 0.51400  0.65780  0.98270  Biso   1.000  O
  O81      1.0000 0.50480  0.63620  0.72190  Biso   1.000  O
  O82      1.0000 0.36650  0.86240  0.01730  Biso   1.000  O
  O83      1.0000 0.41940  0.75540  0.12280  Biso   1.000  O
  P21      1.0000 0.43222  0.83348  0.09574  Biso   1.000  P
  O84      1.0000 0.43990  0.87030  0.23950  Biso   1.000  O
  Al18     1.0000 0.43361  0.94937  0.33547  Biso   1.000  Al
  P22      1.0000 0.05660  0.56421  0.66515  Biso   1.000  P
  O85      1.0000 0.08120  0.57340  0.51290  Biso   1.000  O
  O86      1.0000 0.12320  0.55840  0.75770  Biso   1.000  O
  O87      1.0000 0.01120  0.62860  0.70670  Biso   1.000  O
  O88      1.0000 0.01510  0.49510  0.67830  Biso   1.000  O
  Al19     1.0000 0.95576  0.66453  0.84329  Biso   1.000  Al
  O89      1.0000 0.00070  0.65530  0.01140  Biso   1.000  O
  O90      1.0000 0.93710  0.75600  0.80830  Biso   1.000  O
  O91      1.0000 0.87830  0.87330  0.84450  Biso   1.000  O
  P23      1.0000 0.94943  0.83331  0.83974  Biso   1.000  P
  O92      1.0000 0.98600  0.84220  0.98270  Biso   1.000  O
  O93      1.0000 0.99520  0.86380  0.72190  Biso   1.000  O
  O94      1.0000 0.13350  0.63760  0.01730  Biso   1.000  O
  O95      1.0000 0.08060  0.74460  0.12280  Biso   1.000  O
  P24      1.0000 0.06778  0.66652  0.09574  Biso   1.000  P
  O96      1.0000 0.06010  0.62970  0.23950  Biso   1.000  O
  Al20     1.0000 0.06639  0.55063  0.33547  Biso   1.000  Al
