data_IXEDUK_charged
_audit_creation_date              2014-07-02
_audit_creation_method            'Materials Studio'
_symmetry_space_group_name_H-M    'P1'
_symmetry_Int_Tables_number       1
_symmetry_cell_setting            triclinic
loop_
_symmetry_equiv_pos_as_xyz
  x,y,z
_cell_length_a                    24.0460
_cell_length_b                    24.1573
_cell_length_c                    24.3834
_cell_angle_alpha                 83.8610
_cell_angle_beta                  61.8370
_cell_angle_gamma                 61.7010
loop_
_atom_site_label
_atom_site_type_symbol
_atom_site_fract_x
_atom_site_fract_y
_atom_site_fract_z
_atom_site_U_iso_or_equiv
_atom_site_adp_type
_atom_site_occupancy
Yb1    Yb    0.34138   0.21992   0.36347   0.01267  Uiso   1.00
Yb2    Yb    0.24660   0.77969   0.23044   0.01267  Uiso   1.00
Yb3    Yb    0.85250   0.35268   0.20892   0.01267  Uiso   1.00
Yb4    Yb    0.65862   0.78008   0.63653   0.01267  Uiso   1.00
Yb5    Yb    0.75340   0.22031   0.76956   0.01267  Uiso   1.00
Yb6    Yb    0.14750   0.64732   0.79108   0.01267  Uiso   1.00
H1     H     0.20280   0.40830   0.42350   0.01267  Uiso   1.00
H2     H     0.17370   0.50160   0.37680   0.01267  Uiso   1.00
H3     H     0.16600   0.59510   0.36010   0.01267  Uiso   1.00
H4     H     0.41000   0.34320   0.30810   0.01267  Uiso   1.00
H5     H     0.38730   0.43280   0.26000   0.01267  Uiso   1.00
H6     H     0.35090   0.50060   0.19740   0.01267  Uiso   1.00
H7     H     0.14230   0.68820   0.31850   0.01267  Uiso   1.00
H8     H     0.32700   0.59460   0.15690   0.01267  Uiso   1.00
H9     H     0.08840   0.56060   0.73090   0.01267  Uiso   1.00
H10    H     0.11020   0.47030   0.68370   0.01267  Uiso   1.00
H11    H     0.28310   0.53600   0.60680   0.01267  Uiso   1.00
H12    H     0.31330   0.44070   0.56020   0.01267  Uiso   1.00
H13    H     0.32940   0.32610   0.57600   0.01267  Uiso   1.00
H14    H     0.13480   0.42440   0.58220   0.01267  Uiso   1.00
H15    H     0.16270   0.33890   0.52180   0.01267  Uiso   1.00
H16    H     0.35170   0.24050   0.51680   0.01267  Uiso   1.00
H17    H     0.09780   0.81140   0.60530   0.01267  Uiso   1.00
H18    H     0.09980   0.79200   0.69880   0.01267  Uiso   1.00
H19    H     0.29350   0.65740   0.51590   0.01267  Uiso   1.00
H20    H     0.29330   0.64190   0.61090   0.01267  Uiso   1.00
H21    H     0.26190   0.65510   0.44470   0.01267  Uiso   1.00
H22    H     0.25290   0.67230   0.35410   0.01267  Uiso   1.00
H23    H     0.11150   0.85480   0.42180   0.01267  Uiso   1.00
H24    H     0.11630   0.84100   0.51330   0.01267  Uiso   1.00
H25    H     0.25010   0.58720   0.88270   0.01267  Uiso   1.00
H26    H     0.27430   0.62080   0.94980   0.01267  Uiso   1.00
H27    H     0.06430   0.74970   0.05010   0.01267  Uiso   1.00
H28    H     0.04110   0.71220   0.98270   0.01267  Uiso   1.00
H29    H     0.03710   0.33960   0.06180   0.01267  Uiso   1.00
H30    H     0.06870   0.39370   0.97830   0.01267  Uiso   1.00
H31    H     0.90780   0.55740   0.09090   0.01267  Uiso   1.00
H32    H     0.87700   0.50120   0.17650   0.01267  Uiso   1.00
H33    H     0.63770   0.40980   0.31460   0.01267  Uiso   1.00
H34    H     0.56260   0.36600   0.35970   0.01267  Uiso   1.00
H35    H     0.70060   0.22490   0.20770   0.01267  Uiso   1.00
H36    H     0.77000   0.27360   0.16740   0.01267  Uiso   1.00
H37    H     0.76880   0.50430   0.13510   0.01267  Uiso   1.00
H38    H     0.65850   0.56410   0.13260   0.01267  Uiso   1.00
H39    H     0.55420   0.56680   0.32200   0.01267  Uiso   1.00
H40    H     0.66580   0.50670   0.31760   0.01267  Uiso   1.00
H41    H     0.07140   0.25780   0.13800   0.01267  Uiso   1.00
H42    H     0.15730   0.26210   0.15400   0.01267  Uiso   1.00
H43    H     0.01060   0.32090   0.34130   0.01267  Uiso   1.00
H44    H     0.93190   0.30540   0.32160   0.01267  Uiso   1.00
H45    H     0.85800   0.18560   0.22000   0.01267  Uiso   1.00
H46    H     0.93860   0.08660   0.23030   0.01267  Uiso   1.00
H47    H     0.10400   0.10270   0.08840   0.01267  Uiso   1.00
H48    H     0.02510   0.19990   0.08090   0.01267  Uiso   1.00
H49    H     0.95840   0.09250   0.64750   0.01267  Uiso   1.00
H50    H     0.05760   0.09770   0.56680   0.01267  Uiso   1.00
H51    H     0.01040   0.24610   0.67090   0.01267  Uiso   1.00
H52    H     0.91500   0.23620   0.75250   0.01267  Uiso   1.00
H53    H     0.23990   0.90430   0.10780   0.01267  Uiso   1.00
H54    H     0.16090   0.99130   0.08580   0.01267  Uiso   1.00
H55    H     0.02260   0.04690   0.27170   0.01267  Uiso   1.00
H56    H     0.10860   0.96290   0.29140   0.01267  Uiso   1.00
H57    H     0.19250   0.91780   0.35460   0.01267  Uiso   1.00
H58    H     0.21690   0.00010   0.35390   0.01267  Uiso   1.00
H59    H     0.42240   0.88590   0.22400   0.01267  Uiso   1.00
H60    H     0.39200   0.80690   0.22780   0.01267  Uiso   1.00
H61    H     0.13650   0.84030   0.13490   0.01267  Uiso   1.00
H62    H     0.10110   0.80260   0.08210   0.01267  Uiso   1.00
H63    H     0.29060   0.63840   0.01760   0.01267  Uiso   1.00
H64    H     0.32430   0.67930   0.06900   0.01267  Uiso   1.00
H65    H     0.35730   0.71420   0.31530   0.01267  Uiso   1.00
H66    H     0.46940   0.66610   0.30880   0.01267  Uiso   1.00
H67    H     0.55170   0.55370   0.15050   0.01267  Uiso   1.00
H68    H     0.43900   0.60080   0.15960   0.01267  Uiso   1.00
H69    H     0.64030   0.14130   0.88050   0.01267  Uiso   1.00
H70    H     0.58250   0.13250   0.98700   0.01267  Uiso   1.00
H71    H     0.50970   0.32150   0.03030   0.01267  Uiso   1.00
H72    H     0.56660   0.32570   0.92360   0.01267  Uiso   1.00
H73    H     0.11690   0.30030   0.47440   0.01267  Uiso   1.00
H74    H     0.03450   0.28630   0.56500   0.01267  Uiso   1.00
H75    H     0.17160   0.09560   0.51820   0.01267  Uiso   1.00
H76    H     0.25290   0.11540   0.43340   0.01267  Uiso   1.00
H77    H     0.25700   0.16210   0.29950   0.01267  Uiso   1.00
H78    H     0.23720   0.07520   0.30590   0.01267  Uiso   1.00
H79    H     0.44610   0.95540   0.25410   0.01267  Uiso   1.00
H80    H     0.46240   0.04290   0.25310   0.01267  Uiso   1.00
H81    H     0.41520   0.29110   0.42980   0.01267  Uiso   1.00
H82    H     0.49390   0.33120   0.38940   0.01267  Uiso   1.00
H83    H     0.63820   0.17830   0.25500   0.01267  Uiso   1.00
H84    H     0.55970   0.13800   0.29580   0.01267  Uiso   1.00
H85    H     0.15190   0.35780   0.37170   0.01267  Uiso   1.00
H86    H     0.07030   0.35950   0.34530   0.01267  Uiso   1.00
H87    H     0.23730   0.23730   0.18480   0.01267  Uiso   1.00
H88    H     0.31790   0.23620   0.21440   0.01267  Uiso   1.00
H89    H     0.32200   0.12650   0.50510   0.01267  Uiso   1.00
H90    H     0.49890   0.03920   0.34230   0.01267  Uiso   1.00
H91    H     0.56270   0.98310   0.39690   0.01267  Uiso   1.00
H92    H     0.38560   0.07360   0.55890   0.01267  Uiso   1.00
H93    H     0.38220   0.31250   0.22220   0.01267  Uiso   1.00
H94    H     0.42370   0.31100   0.11660   0.01267  Uiso   1.00
H95    H     0.57900   0.13300   0.08610   0.01267  Uiso   1.00
H96    H     0.53240   0.13310   0.19440   0.01267  Uiso   1.00
H97    H     0.79720   0.59170   0.57650   0.01267  Uiso   1.00
H98    H     0.82630   0.49840   0.62320   0.01267  Uiso   1.00
H99    H     0.83400   0.40490   0.63990   0.01267  Uiso   1.00
H100   H     0.59000   0.65680   0.69190   0.01267  Uiso   1.00
H101   H     0.61270   0.56720   0.74000   0.01267  Uiso   1.00
H102   H     0.64910   0.49940   0.80260   0.01267  Uiso   1.00
H103   H     0.85770   0.31180   0.68150   0.01267  Uiso   1.00
H104   H     0.67300   0.40540   0.84310   0.01267  Uiso   1.00
H105   H     0.91160   0.43940   0.26910   0.01267  Uiso   1.00
H106   H     0.88980   0.52970   0.31630   0.01267  Uiso   1.00
H107   H     0.71690   0.46400   0.39320   0.01267  Uiso   1.00
H108   H     0.68670   0.55930   0.43980   0.01267  Uiso   1.00
H109   H     0.67060   0.67390   0.42400   0.01267  Uiso   1.00
H110   H     0.86520   0.57560   0.41780   0.01267  Uiso   1.00
H111   H     0.83730   0.66110   0.47820   0.01267  Uiso   1.00
H112   H     0.64830   0.75950   0.48320   0.01267  Uiso   1.00
H113   H     0.90220   0.18860   0.39470   0.01267  Uiso   1.00
H114   H     0.90020   0.20800   0.30120   0.01267  Uiso   1.00
H115   H     0.70650   0.34260   0.48410   0.01267  Uiso   1.00
H116   H     0.70670   0.35810   0.38910   0.01267  Uiso   1.00
H117   H     0.73810   0.34490   0.55530   0.01267  Uiso   1.00
H118   H     0.74710   0.32770   0.64590   0.01267  Uiso   1.00
H119   H     0.88850   0.14520   0.57820   0.01267  Uiso   1.00
H120   H     0.88370   0.15900   0.48670   0.01267  Uiso   1.00
H121   H     0.74990   0.41280   0.11730   0.01267  Uiso   1.00
H122   H     0.72570   0.37920   0.05020   0.01267  Uiso   1.00
H123   H     0.93570   0.25030   0.94990   0.01267  Uiso   1.00
H124   H     0.95890   0.28780   0.01730   0.01267  Uiso   1.00
H125   H     0.96290   0.66040   0.93820   0.01267  Uiso   1.00
H126   H     0.93130   0.60630   0.02170   0.01267  Uiso   1.00
H127   H     0.09220   0.44260   0.90910   0.01267  Uiso   1.00
H128   H     0.12300   0.49880   0.82350   0.01267  Uiso   1.00
H129   H     0.36230   0.59020   0.68540   0.01267  Uiso   1.00
H130   H     0.43740   0.63400   0.64030   0.01267  Uiso   1.00
H131   H     0.29940   0.77510   0.79230   0.01267  Uiso   1.00
H132   H     0.23000   0.72640   0.83260   0.01267  Uiso   1.00
H133   H     0.23120   0.49570   0.86490   0.01267  Uiso   1.00
H134   H     0.34150   0.43590   0.86740   0.01267  Uiso   1.00
H135   H     0.44580   0.43320   0.67800   0.01267  Uiso   1.00
H136   H     0.33420   0.49330   0.68240   0.01267  Uiso   1.00
H137   H     0.92860   0.74220   0.86200   0.01267  Uiso   1.00
H138   H     0.84270   0.73790   0.84600   0.01267  Uiso   1.00
H139   H     0.98940   0.67910   0.65870   0.01267  Uiso   1.00
H140   H     0.06810   0.69460   0.67840   0.01267  Uiso   1.00
H141   H     0.14200   0.81440   0.78000   0.01267  Uiso   1.00
H142   H     0.06140   0.91340   0.76970   0.01267  Uiso   1.00
H143   H     0.89600   0.89730   0.91160   0.01267  Uiso   1.00
H144   H     0.97490   0.80010   0.91910   0.01267  Uiso   1.00
H145   H     0.04160   0.90750   0.35250   0.01267  Uiso   1.00
H146   H     0.94240   0.90230   0.43320   0.01267  Uiso   1.00
H147   H     0.98960   0.75390   0.32910   0.01267  Uiso   1.00
H148   H     0.08500   0.76380   0.24750   0.01267  Uiso   1.00
H149   H     0.76010   0.09570   0.89220   0.01267  Uiso   1.00
H150   H     0.83910   0.00870   0.91420   0.01267  Uiso   1.00
H151   H     0.97740   0.95310   0.72830   0.01267  Uiso   1.00
H152   H     0.89140   0.03710   0.70860   0.01267  Uiso   1.00
H153   H     0.80750   0.08220   0.64540   0.01267  Uiso   1.00
H154   H     0.78310   0.99990   0.64610   0.01267  Uiso   1.00
H155   H     0.57760   0.11410   0.77600   0.01267  Uiso   1.00
H156   H     0.60800   0.19310   0.77220   0.01267  Uiso   1.00
H157   H     0.86350   0.15970   0.86510   0.01267  Uiso   1.00
H158   H     0.89890   0.19740   0.91790   0.01267  Uiso   1.00
H159   H     0.70940   0.36160   0.98240   0.01267  Uiso   1.00
H160   H     0.67570   0.32070   0.93100   0.01267  Uiso   1.00
H161   H     0.64270   0.28580   0.68470   0.01267  Uiso   1.00
H162   H     0.53060   0.33390   0.69120   0.01267  Uiso   1.00
H163   H     0.44830   0.44630   0.84950   0.01267  Uiso   1.00
H164   H     0.56100   0.39920   0.84040   0.01267  Uiso   1.00
H165   H     0.35970   0.85870   0.11950   0.01267  Uiso   1.00
H166   H     0.41750   0.86750   0.01300   0.01267  Uiso   1.00
H167   H     0.49030   0.67850   0.96970   0.01267  Uiso   1.00
H168   H     0.43340   0.67430   0.07640   0.01267  Uiso   1.00
H169   H     0.88310   0.69970   0.52560   0.01267  Uiso   1.00
H170   H     0.96550   0.71370   0.43500   0.01267  Uiso   1.00
H171   H     0.82840   0.90440   0.48180   0.01267  Uiso   1.00
H172   H     0.74710   0.88460   0.56660   0.01267  Uiso   1.00
H173   H     0.74300   0.83790   0.70050   0.01267  Uiso   1.00
H174   H     0.76280   0.92480   0.69410   0.01267  Uiso   1.00
H175   H     0.55390   0.04460   0.74590   0.01267  Uiso   1.00
H176   H     0.53760   0.95710   0.74690   0.01267  Uiso   1.00
H177   H     0.58480   0.70890   0.57020   0.01267  Uiso   1.00
H178   H     0.50610   0.66880   0.61060   0.01267  Uiso   1.00
H179   H     0.36180   0.82170   0.74500   0.01267  Uiso   1.00
H180   H     0.44030   0.86200   0.70420   0.01267  Uiso   1.00
H181   H     0.84810   0.64220   0.62830   0.01267  Uiso   1.00
H182   H     0.92970   0.64050   0.65470   0.01267  Uiso   1.00
H183   H     0.76270   0.76270   0.81520   0.01267  Uiso   1.00
H184   H     0.68210   0.76380   0.78560   0.01267  Uiso   1.00
H185   H     0.67800   0.87350   0.49490   0.01267  Uiso   1.00
H186   H     0.50110   0.96080   0.65770   0.01267  Uiso   1.00
H187   H     0.43730   0.01690   0.60310   0.01267  Uiso   1.00
H188   H     0.61440   0.92640   0.44110   0.01267  Uiso   1.00
H189   H     0.61780   0.68750   0.77780   0.01267  Uiso   1.00
H190   H     0.57630   0.68900   0.88340   0.01267  Uiso   1.00
H191   H     0.42100   0.86700   0.91390   0.01267  Uiso   1.00
H192   H     0.46760   0.86690   0.80560   0.01267  Uiso   1.00
C1     C     0.24000   0.41400   0.38950   0.01267  Uiso   1.00
C2     C     0.22250   0.46980   0.36220   0.01267  Uiso   1.00
C3     C     0.27760   0.47740   0.31380   0.01267  Uiso   1.00
C4     C     0.19920   0.59470   0.31840   0.01267  Uiso   1.00
C5     C     0.36180   0.37590   0.32180   0.01267  Uiso   1.00
C6     C     0.34830   0.42870   0.29370   0.01267  Uiso   1.00
C7     C     0.26100   0.53690   0.28410   0.01267  Uiso   1.00
C8     C     0.30850   0.53870   0.22260   0.01267  Uiso   1.00
C9     C     0.18510   0.64980   0.29450   0.01267  Uiso   1.00
C10    C     0.29470   0.59390   0.19870   0.01267  Uiso   1.00
C11    C     0.13350   0.53630   0.69480   0.01267  Uiso   1.00
C12    C     0.14660   0.48250   0.66780   0.01267  Uiso   1.00
C13    C     0.24860   0.52150   0.62240   0.01267  Uiso   1.00
C14    C     0.26630   0.46550   0.59420   0.01267  Uiso   1.00
C15    C     0.21540   0.44410   0.61530   0.01267  Uiso   1.00
C16    C     0.23230   0.38660   0.58250   0.01267  Uiso   1.00
C17    C     0.29500   0.33050   0.56450   0.01267  Uiso   1.00
C18    C     0.18080   0.38770   0.56730   0.01267  Uiso   1.00
C19    C     0.19700   0.33730   0.53200   0.01267  Uiso   1.00
C20    C     0.30830   0.27950   0.52880   0.01267  Uiso   1.00
C21    C     0.13800   0.77560   0.60590   0.01267  Uiso   1.00
C22    C     0.13940   0.76410   0.66110   0.01267  Uiso   1.00
C23    C     0.25310   0.68530   0.55320   0.01267  Uiso   1.00
C24    C     0.25250   0.67600   0.60950   0.01267  Uiso   1.00
C25    C     0.19130   0.74560   0.49060   0.01267  Uiso   1.00
C26    C     0.19420   0.73580   0.55110   0.01267  Uiso   1.00
C27    C     0.23050   0.69640   0.44110   0.01267  Uiso   1.00
C28    C     0.22490   0.70630   0.38780   0.01267  Uiso   1.00
C29    C     0.14130   0.81390   0.42750   0.01267  Uiso   1.00
C30    C     0.14520   0.80570   0.48080   0.01267  Uiso   1.00
C31    C     0.21200   0.61990   0.91730   0.01267  Uiso   1.00
C32    C     0.22640   0.64120   0.95610   0.01267  Uiso   1.00
C33    C     0.17400   0.69110   0.00380   0.01267  Uiso   1.00
C34    C     0.10270   0.71690   0.01560   0.01267  Uiso   1.00
C35    C     0.08890   0.69390   0.97610   0.01267  Uiso   1.00
C36    C     0.01010   0.38470   0.06810   0.01267  Uiso   1.00
C37    C     0.02900   0.41670   0.01820   0.01267  Uiso   1.00
C38    C     0.99000   0.48310   0.02610   0.01267  Uiso   1.00
C39    C     0.93510   0.51230   0.08410   0.01267  Uiso   1.00
C40    C     0.91580   0.47920   0.13600   0.01267  Uiso   1.00
C41    C     0.64940   0.37220   0.29310   0.01267  Uiso   1.00
C42    C     0.60510   0.34600   0.32040   0.01267  Uiso   1.00
C43    C     0.62310   0.28780   0.28940   0.01267  Uiso   1.00
C44    C     0.68640   0.26280   0.23070   0.01267  Uiso   1.00
C45    C     0.72710   0.29180   0.20670   0.01267  Uiso   1.00
C46    C     0.72440   0.51680   0.17270   0.01267  Uiso   1.00
C47    C     0.65880   0.55210   0.17090   0.01267  Uiso   1.00
C48    C     0.59360   0.56920   0.22740   0.01267  Uiso   1.00
C49    C     0.59710   0.55350   0.28280   0.01267  Uiso   1.00
C50    C     0.66340   0.51860   0.28000   0.01267  Uiso   1.00
C51    C     0.06050   0.26860   0.17940   0.01267  Uiso   1.00
C52    C     0.11120   0.27220   0.18850   0.01267  Uiso   1.00
C53    C     0.09330   0.29120   0.25030   0.01267  Uiso   1.00
C54    C     0.02470   0.30590   0.30000   0.01267  Uiso   1.00
C55    C     0.97740   0.29820   0.28790   0.01267  Uiso   1.00
C56    C     0.90850   0.16930   0.19460   0.01267  Uiso   1.00
C57    C     0.95650   0.11080   0.20080   0.01267  Uiso   1.00
C58    C     0.02930   0.08770   0.16480   0.01267  Uiso   1.00
C59    C     0.05400   0.12050   0.11730   0.01267  Uiso   1.00
C60    C     0.00760   0.17680   0.11240   0.01267  Uiso   1.00
C61    C     0.96940   0.12400   0.65220   0.01267  Uiso   1.00
C62    C     0.02670   0.12850   0.60370   0.01267  Uiso   1.00
C63    C     0.03980   0.17790   0.60800   0.01267  Uiso   1.00
C64    C     0.99970   0.21490   0.66450   0.01267  Uiso   1.00
C65    C     0.94320   0.20850   0.71370   0.01267  Uiso   1.00
C66    C     0.19580   0.93480   0.14120   0.01267  Uiso   1.00
C67    C     0.14880   0.98510   0.12830   0.01267  Uiso   1.00
C68    C     0.08230   0.02840   0.17710   0.01267  Uiso   1.00
C69    C     0.06770   0.01870   0.23760   0.01267  Uiso   1.00
C70    C     0.11830   0.96840   0.24930   0.01267  Uiso   1.00
C71    C     0.23980   0.91170   0.32790   0.01267  Uiso   1.00
C72    C     0.25390   0.96100   0.32700   0.01267  Uiso   1.00
C73    C     0.32130   0.95330   0.28710   0.01267  Uiso   1.00
C74    C     0.37430   0.89390   0.25070   0.01267  Uiso   1.00
C75    C     0.35660   0.84690   0.25380   0.01267  Uiso   1.00
C76    C     0.16820   0.79960   0.10960   0.01267  Uiso   1.00
C77    C     0.14730   0.77720   0.07910   0.01267  Uiso   1.00
C78    C     0.19440   0.71470   0.04170   0.01267  Uiso   1.00
C79    C     0.25890   0.68030   0.04040   0.01267  Uiso   1.00
C80    C     0.27860   0.70470   0.07110   0.01267  Uiso   1.00
C81    C     0.39690   0.68030   0.28230   0.01267  Uiso   1.00
C82    C     0.46320   0.65230   0.27800   0.01267  Uiso   1.00
C83    C     0.52330   0.60290   0.22820   0.01267  Uiso   1.00
C84    C     0.51220   0.58580   0.18520   0.01267  Uiso   1.00
C85    C     0.44540   0.61370   0.19060   0.01267  Uiso   1.00
C86    C     0.61280   0.17750   0.91180   0.01267  Uiso   1.00
C87    C     0.58000   0.17190   0.97490   0.01267  Uiso   1.00
C88    C     0.54240   0.22580   0.02140   0.01267  Uiso   1.00
C89    C     0.53640   0.28410   0.00060   0.01267  Uiso   1.00
C90    C     0.56930   0.28670   0.93750   0.01267  Uiso   1.00
C91    C     0.12780   0.25850   0.48450   0.01267  Uiso   1.00
C92    C     0.07900   0.25070   0.53790   0.01267  Uiso   1.00
C93    C     0.09540   0.18880   0.55280   0.01267  Uiso   1.00
C94    C     0.16040   0.13810   0.51090   0.01267  Uiso   1.00
C95    C     0.20700   0.15000   0.45990   0.01267  Uiso   1.00
C96    C     0.29480   0.11990   0.29190   0.01267  Uiso   1.00
C97    C     0.28400   0.06780   0.29460   0.01267  Uiso   1.00
C98    C     0.33770   0.00660   0.28180   0.01267  Uiso   1.00
C99    C     0.40660   0.99720   0.26480   0.01267  Uiso   1.00
C100   C     0.41610   0.04920   0.26390   0.01267  Uiso   1.00
C101   C     0.46090   0.26780   0.39390   0.01267  Uiso   1.00
C102   C     0.50770   0.29160   0.36970   0.01267  Uiso   1.00
C103   C     0.57570   0.25940   0.31630   0.01267  Uiso   1.00
C104   C     0.59250   0.20200   0.29080   0.01267  Uiso   1.00
C105   C     0.54640   0.17780   0.31470   0.01267  Uiso   1.00
C106   C     0.16870   0.33270   0.33420   0.01267  Uiso   1.00
C107   C     0.12050   0.33340   0.31870   0.01267  Uiso   1.00
C108   C     0.21920   0.26090   0.22360   0.01267  Uiso   1.00
C109   C     0.14470   0.29570   0.26320   0.01267  Uiso   1.00
C110   C     0.26730   0.26070   0.24080   0.01267  Uiso   1.00
C111   C     0.37200   0.09700   0.48250   0.01267  Uiso   1.00
C112   C     0.47510   0.04580   0.38700   0.01267  Uiso   1.00
C113   C     0.51250   0.01180   0.41980   0.01267  Uiso   1.00
C114   C     0.47920   0.01900   0.48260   0.01267  Uiso   1.00
C115   C     0.40900   0.06440   0.51440   0.01267  Uiso   1.00
C116   C     0.42330   0.27540   0.19400   0.01267  Uiso   1.00
C117   C     0.44850   0.27490   0.13180   0.01267  Uiso   1.00
C118   C     0.50980   0.22280   0.08960   0.01267  Uiso   1.00
C119   C     0.53870   0.17070   0.11390   0.01267  Uiso   1.00
C120   C     0.51150   0.17050   0.17830   0.01267  Uiso   1.00
C121   C     0.76000   0.58600   0.61050   0.01267  Uiso   1.00
C122   C     0.77750   0.53020   0.63780   0.01267  Uiso   1.00
C123   C     0.72240   0.52260   0.68620   0.01267  Uiso   1.00
C124   C     0.80080   0.40530   0.68160   0.01267  Uiso   1.00
C125   C     0.63820   0.62410   0.67820   0.01267  Uiso   1.00
C126   C     0.65170   0.57130   0.70630   0.01267  Uiso   1.00
C127   C     0.73900   0.46310   0.71590   0.01267  Uiso   1.00
C128   C     0.69150   0.46130   0.77740   0.01267  Uiso   1.00
C129   C     0.81490   0.35020   0.70550   0.01267  Uiso   1.00
C130   C     0.70530   0.40610   0.80130   0.01267  Uiso   1.00
C131   C     0.86650   0.46370   0.30520   0.01267  Uiso   1.00
C132   C     0.85340   0.51750   0.33220   0.01267  Uiso   1.00
C133   C     0.75140   0.47850   0.37760   0.01267  Uiso   1.00
C134   C     0.73370   0.53450   0.40580   0.01267  Uiso   1.00
C135   C     0.78460   0.55590   0.38470   0.01267  Uiso   1.00
C136   C     0.76770   0.61340   0.41750   0.01267  Uiso   1.00
C137   C     0.70500   0.66950   0.43550   0.01267  Uiso   1.00
C138   C     0.81920   0.61230   0.43270   0.01267  Uiso   1.00
C139   C     0.80300   0.66270   0.46800   0.01267  Uiso   1.00
C140   C     0.69170   0.72050   0.47120   0.01267  Uiso   1.00
C141   C     0.86200   0.22440   0.39410   0.01267  Uiso   1.00
C142   C     0.86060   0.23590   0.33890   0.01267  Uiso   1.00
C143   C     0.74690   0.31470   0.44680   0.01267  Uiso   1.00
C144   C     0.74750   0.32400   0.39050   0.01267  Uiso   1.00
C145   C     0.80870   0.25440   0.50940   0.01267  Uiso   1.00
C146   C     0.80580   0.26420   0.44890   0.01267  Uiso   1.00
C147   C     0.76950   0.30360   0.55890   0.01267  Uiso   1.00
C148   C     0.77510   0.29370   0.61220   0.01267  Uiso   1.00
C149   C     0.85870   0.18610   0.57250   0.01267  Uiso   1.00
C150   C     0.85480   0.19430   0.51920   0.01267  Uiso   1.00
C151   C     0.78800   0.38010   0.08270   0.01267  Uiso   1.00
C152   C     0.77360   0.35880   0.04390   0.01267  Uiso   1.00
C153   C     0.82600   0.30890   0.99620   0.01267  Uiso   1.00
C154   C     0.89730   0.28310   0.98440   0.01267  Uiso   1.00
C155   C     0.91110   0.30610   0.02390   0.01267  Uiso   1.00
C156   C     0.98990   0.61530   0.93190   0.01267  Uiso   1.00
C157   C     0.97100   0.58330   0.98180   0.01267  Uiso   1.00
C158   C     0.01000   0.51690   0.97390   0.01267  Uiso   1.00
C159   C     0.06490   0.48770   0.91590   0.01267  Uiso   1.00
C160   C     0.08420   0.52080   0.86400   0.01267  Uiso   1.00
C161   C     0.35060   0.62780   0.70690   0.01267  Uiso   1.00
C162   C     0.39490   0.65400   0.67960   0.01267  Uiso   1.00
C163   C     0.37690   0.71220   0.71060   0.01267  Uiso   1.00
C164   C     0.31360   0.73720   0.76930   0.01267  Uiso   1.00
C165   C     0.27290   0.70820   0.79330   0.01267  Uiso   1.00
C166   C     0.27560   0.48320   0.82730   0.01267  Uiso   1.00
C167   C     0.34120   0.44790   0.82910   0.01267  Uiso   1.00
C168   C     0.40640   0.43080   0.77260   0.01267  Uiso   1.00
C169   C     0.40290   0.44650   0.71720   0.01267  Uiso   1.00
C170   C     0.33660   0.48140   0.72000   0.01267  Uiso   1.00
C171   C     0.93950   0.73140   0.82060   0.01267  Uiso   1.00
C172   C     0.88880   0.72780   0.81150   0.01267  Uiso   1.00
C173   C     0.90670   0.70880   0.74970   0.01267  Uiso   1.00
C174   C     0.97530   0.69410   0.70000   0.01267  Uiso   1.00
C175   C     0.02260   0.70180   0.71210   0.01267  Uiso   1.00
C176   C     0.09150   0.83070   0.80540   0.01267  Uiso   1.00
C177   C     0.04350   0.88920   0.79920   0.01267  Uiso   1.00
C178   C     0.97070   0.91230   0.83520   0.01267  Uiso   1.00
C179   C     0.94600   0.87950   0.88270   0.01267  Uiso   1.00
C180   C     0.99240   0.82320   0.88760   0.01267  Uiso   1.00
C181   C     0.03060   0.87600   0.34780   0.01267  Uiso   1.00
C182   C     0.97330   0.87150   0.39630   0.01267  Uiso   1.00
C183   C     0.96020   0.82210   0.39200   0.01267  Uiso   1.00
C184   C     0.00030   0.78510   0.33550   0.01267  Uiso   1.00
C185   C     0.05680   0.79150   0.28630   0.01267  Uiso   1.00
C186   C     0.80420   0.06520   0.85880   0.01267  Uiso   1.00
C187   C     0.85120   0.01490   0.87170   0.01267  Uiso   1.00
C188   C     0.91770   0.97160   0.82290   0.01267  Uiso   1.00
C189   C     0.93230   0.98130   0.76240   0.01267  Uiso   1.00
C190   C     0.88170   0.03160   0.75070   0.01267  Uiso   1.00
C191   C     0.76020   0.08830   0.67210   0.01267  Uiso   1.00
C192   C     0.74610   0.03900   0.67300   0.01267  Uiso   1.00
C193   C     0.67870   0.04670   0.71290   0.01267  Uiso   1.00
C194   C     0.62570   0.10610   0.74930   0.01267  Uiso   1.00
C195   C     0.64340   0.15310   0.74620   0.01267  Uiso   1.00
C196   C     0.83180   0.20040   0.89040   0.01267  Uiso   1.00
C197   C     0.85270   0.22280   0.92090   0.01267  Uiso   1.00
C198   C     0.80560   0.28530   0.95830   0.01267  Uiso   1.00
C199   C     0.74110   0.31970   0.95960   0.01267  Uiso   1.00
C200   C     0.72140   0.29530   0.92890   0.01267  Uiso   1.00
C201   C     0.60310   0.31970   0.71770   0.01267  Uiso   1.00
C202   C     0.53680   0.34770   0.72200   0.01267  Uiso   1.00
C203   C     0.47670   0.39710   0.77180   0.01267  Uiso   1.00
C204   C     0.48780   0.41420   0.81480   0.01267  Uiso   1.00
C205   C     0.55460   0.38630   0.80940   0.01267  Uiso   1.00
C206   C     0.38720   0.82250   0.08820   0.01267  Uiso   1.00
C207   C     0.42000   0.82810   0.02510   0.01267  Uiso   1.00
C208   C     0.45760   0.77420   0.97860   0.01267  Uiso   1.00
C209   C     0.46360   0.71590   0.99940   0.01267  Uiso   1.00
C210   C     0.43070   0.71330   0.06250   0.01267  Uiso   1.00
C211   C     0.87220   0.74150   0.51550   0.01267  Uiso   1.00
C212   C     0.92100   0.74930   0.46210   0.01267  Uiso   1.00
C213   C     0.90460   0.81120   0.44720   0.01267  Uiso   1.00
C214   C     0.83960   0.86190   0.48910   0.01267  Uiso   1.00
C215   C     0.79300   0.85000   0.54010   0.01267  Uiso   1.00
C216   C     0.70520   0.88010   0.70810   0.01267  Uiso   1.00
C217   C     0.71600   0.93220   0.70540   0.01267  Uiso   1.00
C218   C     0.66230   0.99340   0.71820   0.01267  Uiso   1.00
C219   C     0.59340   0.00280   0.73520   0.01267  Uiso   1.00
C220   C     0.58390   0.95080   0.73610   0.01267  Uiso   1.00
C221   C     0.53910   0.73220   0.60610   0.01267  Uiso   1.00
C222   C     0.49230   0.70840   0.63030   0.01267  Uiso   1.00
C223   C     0.42430   0.74060   0.68370   0.01267  Uiso   1.00
C224   C     0.40750   0.79800   0.70920   0.01267  Uiso   1.00
C225   C     0.45360   0.82220   0.68530   0.01267  Uiso   1.00
C226   C     0.83130   0.66730   0.66580   0.01267  Uiso   1.00
C227   C     0.87950   0.66660   0.68130   0.01267  Uiso   1.00
C228   C     0.78080   0.73910   0.77640   0.01267  Uiso   1.00
C229   C     0.85530   0.70430   0.73680   0.01267  Uiso   1.00
C230   C     0.73270   0.73930   0.75920   0.01267  Uiso   1.00
C231   C     0.62800   0.90300   0.51750   0.01267  Uiso   1.00
C232   C     0.52490   0.95420   0.61300   0.01267  Uiso   1.00
C233   C     0.48750   0.98820   0.58020   0.01267  Uiso   1.00
C234   C     0.52080   0.98100   0.51740   0.01267  Uiso   1.00
C235   C     0.59100   0.93560   0.48560   0.01267  Uiso   1.00
C236   C     0.57670   0.72460   0.80600   0.01267  Uiso   1.00
C237   C     0.55150   0.72510   0.86820   0.01267  Uiso   1.00
C238   C     0.49020   0.77720   0.91040   0.01267  Uiso   1.00
C239   C     0.46130   0.82930   0.88610   0.01267  Uiso   1.00
C240   C     0.48850   0.82950   0.82170   0.01267  Uiso   1.00
N1     N     0.40630   0.08710   0.41950   0.01267  Uiso   1.00
N2     N     0.47890   0.21220   0.36760   0.01267  Uiso   1.00
N3     N     0.45620   0.22330   0.21700   0.01267  Uiso   1.00
N4     N     0.36190   0.10800   0.27780   0.01267  Uiso   1.00
N5     N     0.30750   0.36960   0.36840   0.01267  Uiso   1.00
N6     N     0.24060   0.29600   0.29570   0.01267  Uiso   1.00
N7     N     0.19170   0.20890   0.44470   0.01267  Uiso   1.00
N8     N     0.26210   0.28450   0.51140   0.01267  Uiso   1.00
N9     N     0.23390   0.64900   0.23490   0.01267  Uiso   1.00
N10    N     0.17930   0.76460   0.38240   0.01267  Uiso   1.00
N11    N     0.38760   0.65980   0.23950   0.01267  Uiso   1.00
N12    N     0.29050   0.85680   0.29270   0.01267  Uiso   1.00
N13    N     0.60580   0.23410   0.89480   0.01267  Uiso   1.00
N14    N     0.18090   0.92710   0.20180   0.01267  Uiso   1.00
N15    N     0.23640   0.76320   0.10430   0.01267  Uiso   1.00
N16    N     0.92840   0.16490   0.70720   0.01267  Uiso   1.00
N17    N     0.72430   0.50120   0.22580   0.01267  Uiso   1.00
N18    N     0.14330   0.64550   0.92810   0.01267  Uiso   1.00
N19    N     0.70780   0.34710   0.23780   0.01267  Uiso   1.00
N20    N     0.93480   0.20230   0.15200   0.01267  Uiso   1.00
N21    N     0.19530   0.71440   0.66310   0.01267  Uiso   1.00
N22    N     0.99660   0.28010   0.22760   0.01267  Uiso   1.00
N23    N     0.18330   0.55670   0.67170   0.01267  Uiso   1.00
N24    N     0.95530   0.41500   0.12470   0.01267  Uiso   1.00
N25    N     0.59370   0.91290   0.58050   0.01267  Uiso   1.00
N26    N     0.52110   0.78780   0.63240   0.01267  Uiso   1.00
N27    N     0.54380   0.77670   0.78300   0.01267  Uiso   1.00
N28    N     0.63810   0.89200   0.72220   0.01267  Uiso   1.00
N29    N     0.69250   0.63040   0.63160   0.01267  Uiso   1.00
N30    N     0.75940   0.70400   0.70430   0.01267  Uiso   1.00
N31    N     0.80830   0.79110   0.55530   0.01267  Uiso   1.00
N32    N     0.73790   0.71550   0.48860   0.01267  Uiso   1.00
N33    N     0.76610   0.35100   0.76510   0.01267  Uiso   1.00
N34    N     0.82070   0.23540   0.61760   0.01267  Uiso   1.00
N35    N     0.61240   0.34020   0.76050   0.01267  Uiso   1.00
N36    N     0.70950   0.14320   0.70730   0.01267  Uiso   1.00
N37    N     0.39420   0.76590   0.10520   0.01267  Uiso   1.00
N38    N     0.81910   0.07290   0.79820   0.01267  Uiso   1.00
N39    N     0.76360   0.23680   0.89570   0.01267  Uiso   1.00
N40    N     0.07160   0.83510   0.29280   0.01267  Uiso   1.00
N41    N     0.27570   0.49880   0.77420   0.01267  Uiso   1.00
N42    N     0.85670   0.35450   0.07190   0.01267  Uiso   1.00
N43    N     0.29220   0.65290   0.76220   0.01267  Uiso   1.00
N44    N     0.06520   0.79770   0.84800   0.01267  Uiso   1.00
N45    N     0.80470   0.28560   0.33690   0.01267  Uiso   1.00
N46    N     0.00340   0.71990   0.77240   0.01267  Uiso   1.00
N47    N     0.81670   0.44330   0.32830   0.01267  Uiso   1.00
N48    N     0.04470   0.58500   0.87530   0.01267  Uiso   1.00
O1     O     0.36980   0.11910   0.38790   0.01267  Uiso   1.00
O2     O     0.43310   0.19000   0.38900   0.01267  Uiso   1.00
O3     O     0.43460   0.22590   0.27910   0.01267  Uiso   1.00
O4     O     0.37300   0.15850   0.27660   0.01267  Uiso   1.00
O5     O     0.32070   0.31680   0.39670   0.01267  Uiso   1.00
O6     O     0.28600   0.29520   0.31220   0.01267  Uiso   1.00
O7     O     0.23580   0.21980   0.39190   0.01267  Uiso   1.00
O8     O     0.27850   0.23650   0.47410   0.01267  Uiso   1.00
O9     O     0.22140   0.70370   0.21130   0.01267  Uiso   1.00
O10    O     0.17120   0.77300   0.33100   0.01267  Uiso   1.00
O11    O     0.32250   0.68300   0.24670   0.01267  Uiso   1.00
O12    O     0.27550   0.80920   0.29670   0.01267  Uiso   1.00
O13    O     0.63590   0.23960   0.83430   0.01267  Uiso   1.00
O14    O     0.23100   0.88030   0.21430   0.01267  Uiso   1.00
O15    O     0.25830   0.78670   0.13160   0.01267  Uiso   1.00
O16    O     0.87270   0.15960   0.75250   0.01267  Uiso   1.00
O17    O     0.78780   0.46460   0.22510   0.01267  Uiso   1.00
O18    O     0.12940   0.62270   0.89140   0.01267  Uiso   1.00
O19    O     0.74750   0.37600   0.21280   0.01267  Uiso   1.00
O20    O     0.89060   0.26060   0.14760   0.01267  Uiso   1.00
O21    O     0.19660   0.70290   0.71740   0.01267  Uiso   1.00
O22    O     0.94980   0.27300   0.21770   0.01267  Uiso   1.00
O23    O     0.16720   0.61170   0.69640   0.01267  Uiso   1.00
O24    O     0.93870   0.38350   0.17250   0.01267  Uiso   1.00
O25    O     0.63020   0.88090   0.61210   0.01267  Uiso   1.00
O26    O     0.56690   0.81000   0.61100   0.01267  Uiso   1.00
O27    O     0.56540   0.77410   0.72090   0.01267  Uiso   1.00
O28    O     0.62700   0.84150   0.72340   0.01267  Uiso   1.00
O29    O     0.67930   0.68320   0.60330   0.01267  Uiso   1.00
O30    O     0.71400   0.70480   0.68780   0.01267  Uiso   1.00
O31    O     0.76420   0.78020   0.60810   0.01267  Uiso   1.00
O32    O     0.72150   0.76350   0.52590   0.01267  Uiso   1.00
O33    O     0.77860   0.29630   0.78870   0.01267  Uiso   1.00
O34    O     0.82880   0.22700   0.66900   0.01267  Uiso   1.00
O35    O     0.67750   0.31700   0.75330   0.01267  Uiso   1.00
O36    O     0.72450   0.19080   0.70330   0.01267  Uiso   1.00
O37    O     0.36410   0.76040   0.16570   0.01267  Uiso   1.00
O38    O     0.76900   0.11970   0.78570   0.01267  Uiso   1.00
O39    O     0.74170   0.21330   0.86840   0.01267  Uiso   1.00
O40    O     0.12730   0.84040   0.24750   0.01267  Uiso   1.00
O41    O     0.21220   0.53540   0.77490   0.01267  Uiso   1.00
O42    O     0.87060   0.37730   0.10860   0.01267  Uiso   1.00
O43    O     0.25250   0.62400   0.78720   0.01267  Uiso   1.00
O44    O     0.10940   0.73940   0.85240   0.01267  Uiso   1.00
O45    O     0.80340   0.29710   0.28260   0.01267  Uiso   1.00
O46    O     0.05020   0.72700   0.78230   0.01267  Uiso   1.00
O47    O     0.83280   0.38830   0.30360   0.01267  Uiso   1.00
O48    O     0.06130   0.61650   0.82750   0.01267  Uiso   1.00
C241   C     0.94530   0.82390   0.59950   0.01267  Uiso   1.00
S1     S     0.93990   0.87700   0.65350   0.01267  Uiso   1.00
O49    O     0.96230   0.83670   0.69690   0.01267  Uiso   1.00
O50    O     0.99090   0.89830   0.60880   0.01267  Uiso   1.00
O51    O     0.86290   0.92690   0.68280   0.01267  Uiso   1.00
F1     F     0.89400   0.80320   0.63290   0.01267  Uiso   1.00
F2     F     0.01600   0.77220   0.57320   0.01267  Uiso   1.00
F3     F     0.93140   0.85780   0.55280   0.01267  Uiso   1.00
C242   C     0.87350   0.41760   0.47670   0.01267  Uiso   1.00
S2     S     0.93800   0.35640   0.50130   0.01267  Uiso   1.00
O52    O     0.00370   0.32750   0.43930   0.01267  Uiso   1.00
O53    O     0.91500   0.31110   0.53890   0.01267  Uiso   1.00
O54    O     0.93640   0.40270   0.53840   0.01267  Uiso   1.00
F4     F     0.87300   0.37810   0.43930   0.01267  Uiso   1.00
F5     F     0.82150   0.42560   0.53900   0.01267  Uiso   1.00
F6     F     0.93030   0.42910   0.46330   0.01267  Uiso   1.00
C243   C     0.05470   0.17610   0.40050   0.01267  Uiso   1.00
S3     S     0.06010   0.12300   0.34650   0.01267  Uiso   1.00
O55    O     0.03770   0.16330   0.30310   0.01267  Uiso   1.00
O56    O     0.00910   0.10170   0.39120   0.01267  Uiso   1.00
O57    O     0.13710   0.07310   0.31720   0.01267  Uiso   1.00
F7     F     0.10600   0.19680   0.36710   0.01267  Uiso   1.00
F8     F     0.98400   0.22780   0.42680   0.01267  Uiso   1.00
F9     F     0.06860   0.14220   0.44720   0.01267  Uiso   1.00
C244   C     0.12650   0.58240   0.52330   0.01267  Uiso   1.00
S4     S     0.06200   0.64360   0.49870   0.01267  Uiso   1.00
O58    O     0.99630   0.67250   0.56070   0.01267  Uiso   1.00
O59    O     0.08500   0.68890   0.46110   0.01267  Uiso   1.00
O60    O     0.06360   0.59730   0.46160   0.01267  Uiso   1.00
F10    F     0.12700   0.62190   0.56070   0.01267  Uiso   1.00
F11    F     0.17850   0.57440   0.46100   0.01267  Uiso   1.00
F12    F     0.06970   0.57090   0.53670   0.01267  Uiso   1.00
