data_image0
_cell_length_a       24.257
_cell_length_b       24.257
_cell_length_c       15.025
_cell_angle_alpha    90
_cell_angle_beta     90
_cell_angle_gamma    90

_symmetry_space_group_name_H-M    "P 1"
_symmetry_int_tables_number       1

loop_
  _symmetry_equiv_pos_as_xyz
  'x, y, z'

loop_
  _atom_site_label
  _atom_site_occupancy
  _atom_site_fract_x
  _atom_site_fract_y
  _atom_site_fract_z
  _atom_site_thermal_displace_type
  _atom_site_B_iso_or_equiv
  _atom_site_type_symbol
  O1       1.0000 0.35189  0.05427  0.08650  Biso   1.000  O
  O2       1.0000 0.41703  0.10280  0.16450  Biso   1.000  O
  C1       1.0000 0.36660  0.09300  0.13930  Biso   1.000  C
  C2       1.0000 0.32300  0.12870  0.17440  Biso   1.000  C
  C3       1.0000 0.27110  0.12930  0.13530  Biso   1.000  C
  H1       1.0000 0.26310  0.10430  0.08840  Biso   1.000  H
  C4       1.0000 0.23030  0.16640  0.16400  Biso   1.000  C
  C5       1.0000 0.33460  0.16510  0.24290  Biso   1.000  C
  H2       1.0000 0.37000  0.16480  0.27000  Biso   1.000  H
  C6       1.0000 0.24320  0.20300  0.23310  Biso   1.000  C
  C7       1.0000 0.29440  0.20250  0.27250  Biso   1.000  C
  H3       1.0000 0.30250  0.22740  0.31950  Biso   1.000  H
  C8       1.0000 0.17540  0.16320  0.11470  Biso   1.000  C
  F1       1.0000 0.13220  0.15120  0.16670  Biso   1.000  F
  F2       1.0000 0.16270  0.21050  0.07340  Biso   1.000  F
  F3       1.0000 0.17630  0.12440  0.05130  Biso   1.000  F
  O3       1.0000 0.64811  0.94573  0.08650  Biso   1.000  O
  O4       1.0000 0.58297  0.89720  0.16450  Biso   1.000  O
  C9       1.0000 0.63340  0.90700  0.13930  Biso   1.000  C
  C10      1.0000 0.67700  0.87130  0.17440  Biso   1.000  C
  C11      1.0000 0.72890  0.87070  0.13530  Biso   1.000  C
  H4       1.0000 0.73690  0.89570  0.08840  Biso   1.000  H
  C12      1.0000 0.76970  0.83360  0.16400  Biso   1.000  C
  C13      1.0000 0.66540  0.83490  0.24290  Biso   1.000  C
  H5       1.0000 0.63000  0.83520  0.27000  Biso   1.000  H
  C14      1.0000 0.75680  0.79700  0.23310  Biso   1.000  C
  C15      1.0000 0.70560  0.79750  0.27250  Biso   1.000  C
  H6       1.0000 0.69750  0.77260  0.31950  Biso   1.000  H
  C16      1.0000 0.82460  0.83680  0.11470  Biso   1.000  C
  F4       1.0000 0.86780  0.84880  0.16670  Biso   1.000  F
  F5       1.0000 0.83730  0.78950  0.07340  Biso   1.000  F
  F6       1.0000 0.82370  0.87560  0.05130  Biso   1.000  F
  O5       1.0000 0.94573  0.35189  0.58650  Biso   1.000  O
  O6       1.0000 0.89720  0.41703  0.66450  Biso   1.000  O
  C17      1.0000 0.90700  0.36660  0.63930  Biso   1.000  C
  C18      1.0000 0.87130  0.32300  0.67440  Biso   1.000  C
  C19      1.0000 0.87070  0.27110  0.63530  Biso   1.000  C
  H7       1.0000 0.89570  0.26310  0.58840  Biso   1.000  H
  C20      1.0000 0.83360  0.23030  0.66400  Biso   1.000  C
  C21      1.0000 0.83490  0.33460  0.74290  Biso   1.000  C
  H8       1.0000 0.83520  0.37000  0.77000  Biso   1.000  H
  C22      1.0000 0.79700  0.24320  0.73310  Biso   1.000  C
  C23      1.0000 0.79750  0.29440  0.77250  Biso   1.000  C
  H9       1.0000 0.77260  0.30250  0.81950  Biso   1.000  H
  C24      1.0000 0.83680  0.17540  0.61470  Biso   1.000  C
  F7       1.0000 0.84880  0.13220  0.66670  Biso   1.000  F
  F8       1.0000 0.78950  0.16270  0.57340  Biso   1.000  F
  F9       1.0000 0.87560  0.17630  0.55130  Biso   1.000  F
  O7       1.0000 0.05427  0.64811  0.58650  Biso   1.000  O
  O8       1.0000 0.10280  0.58297  0.66450  Biso   1.000  O
  C25      1.0000 0.09300  0.63340  0.63930  Biso   1.000  C
  C26      1.0000 0.12870  0.67700  0.67440  Biso   1.000  C
  C27      1.0000 0.12930  0.72890  0.63530  Biso   1.000  C
  H10      1.0000 0.10430  0.73690  0.58840  Biso   1.000  H
  C28      1.0000 0.16640  0.76970  0.66400  Biso   1.000  C
  C29      1.0000 0.16510  0.66540  0.74290  Biso   1.000  C
  H11      1.0000 0.16480  0.63000  0.77000  Biso   1.000  H
  C30      1.0000 0.20300  0.75680  0.73310  Biso   1.000  C
  C31      1.0000 0.20250  0.70560  0.77250  Biso   1.000  C
  H12      1.0000 0.22740  0.69750  0.81950  Biso   1.000  H
  C32      1.0000 0.16320  0.82460  0.61470  Biso   1.000  C
  F10      1.0000 0.15120  0.86780  0.66670  Biso   1.000  F
  F11      1.0000 0.21050  0.83730  0.57340  Biso   1.000  F
  F12      1.0000 0.12440  0.82370  0.55130  Biso   1.000  F
  O9       1.0000 0.64811  0.05427  0.91350  Biso   1.000  O
  O10      1.0000 0.58297  0.10280  0.83550  Biso   1.000  O
  C33      1.0000 0.63340  0.09300  0.86070  Biso   1.000  C
  C34      1.0000 0.67700  0.12870  0.82560  Biso   1.000  C
  C35      1.0000 0.72890  0.12930  0.86470  Biso   1.000  C
  H13      1.0000 0.73690  0.10430  0.91160  Biso   1.000  H
  C36      1.0000 0.76970  0.16640  0.83600  Biso   1.000  C
  C37      1.0000 0.66540  0.16510  0.75710  Biso   1.000  C
  H14      1.0000 0.63000  0.16480  0.73000  Biso   1.000  H
  C38      1.0000 0.75680  0.20300  0.76690  Biso   1.000  C
  C39      1.0000 0.70560  0.20250  0.72750  Biso   1.000  C
  H15      1.0000 0.69750  0.22740  0.68050  Biso   1.000  H
  C40      1.0000 0.82460  0.16320  0.88530  Biso   1.000  C
  F13      1.0000 0.86780  0.15120  0.83330  Biso   1.000  F
  F14      1.0000 0.83730  0.21050  0.92660  Biso   1.000  F
  F15      1.0000 0.82370  0.12440  0.94870  Biso   1.000  F
  O11      1.0000 0.35189  0.94573  0.91350  Biso   1.000  O
  O12      1.0000 0.41703  0.89720  0.83550  Biso   1.000  O
  C41      1.0000 0.36660  0.90700  0.86070  Biso   1.000  C
  C42      1.0000 0.32300  0.87130  0.82560  Biso   1.000  C
  C43      1.0000 0.27110  0.87070  0.86470  Biso   1.000  C
  H16      1.0000 0.26310  0.89570  0.91160  Biso   1.000  H
  C44      1.0000 0.23030  0.83360  0.83600  Biso   1.000  C
  C45      1.0000 0.33460  0.83490  0.75710  Biso   1.000  C
  H17      1.0000 0.37000  0.83520  0.73000  Biso   1.000  H
  C46      1.0000 0.24320  0.79700  0.76690  Biso   1.000  C
  C47      1.0000 0.29440  0.79750  0.72750  Biso   1.000  C
  H18      1.0000 0.30250  0.77260  0.68050  Biso   1.000  H
  C48      1.0000 0.17540  0.83680  0.88530  Biso   1.000  C
  F16      1.0000 0.13220  0.84880  0.83330  Biso   1.000  F
  F17      1.0000 0.16270  0.78950  0.92660  Biso   1.000  F
  F18      1.0000 0.17630  0.87560  0.94870  Biso   1.000  F
  O13      1.0000 0.05427  0.35189  0.41350  Biso   1.000  O
  O14      1.0000 0.10280  0.41703  0.33550  Biso   1.000  O
  C49      1.0000 0.09300  0.36660  0.36070  Biso   1.000  C
  C50      1.0000 0.12870  0.32300  0.32560  Biso   1.000  C
  C51      1.0000 0.12930  0.27110  0.36470  Biso   1.000  C
  H19      1.0000 0.10430  0.26310  0.41160  Biso   1.000  H
  C52      1.0000 0.16640  0.23030  0.33600  Biso   1.000  C
  C53      1.0000 0.16510  0.33460  0.25710  Biso   1.000  C
  H20      1.0000 0.16480  0.37000  0.23000  Biso   1.000  H
  C54      1.0000 0.20300  0.24320  0.26690  Biso   1.000  C
  C55      1.0000 0.20250  0.29440  0.22750  Biso   1.000  C
  H21      1.0000 0.22740  0.30250  0.18050  Biso   1.000  H
  C56      1.0000 0.16320  0.17540  0.38530  Biso   1.000  C
  F19      1.0000 0.15120  0.13220  0.33330  Biso   1.000  F
  F20      1.0000 0.21050  0.16270  0.42660  Biso   1.000  F
  F21      1.0000 0.12440  0.17630  0.44870  Biso   1.000  F
  O15      1.0000 0.94573  0.64811  0.41350  Biso   1.000  O
  O16      1.0000 0.89720  0.58297  0.33550  Biso   1.000  O
  C57      1.0000 0.90700  0.63340  0.36070  Biso   1.000  C
  C58      1.0000 0.87130  0.67700  0.32560  Biso   1.000  C
  C59      1.0000 0.87070  0.72890  0.36470  Biso   1.000  C
  H22      1.0000 0.89570  0.73690  0.41160  Biso   1.000  H
  C60      1.0000 0.83360  0.76970  0.33600  Biso   1.000  C
  C61      1.0000 0.83490  0.66540  0.25710  Biso   1.000  C
  H23      1.0000 0.83520  0.63000  0.23000  Biso   1.000  H
  C62      1.0000 0.79700  0.75680  0.26690  Biso   1.000  C
  C63      1.0000 0.79750  0.70560  0.22750  Biso   1.000  C
  H24      1.0000 0.77260  0.69750  0.18050  Biso   1.000  H
  C64      1.0000 0.83680  0.82460  0.38530  Biso   1.000  C
  F22      1.0000 0.84880  0.86780  0.33330  Biso   1.000  F
  F23      1.0000 0.78950  0.83730  0.42660  Biso   1.000  F
  F24      1.0000 0.87560  0.82370  0.44870  Biso   1.000  F
  O17      1.0000 0.64811  0.94573  0.91350  Biso   1.000  O
  O18      1.0000 0.58297  0.89720  0.83550  Biso   1.000  O
  C65      1.0000 0.63340  0.90700  0.86070  Biso   1.000  C
  C66      1.0000 0.67700  0.87130  0.82560  Biso   1.000  C
  C67      1.0000 0.72890  0.87070  0.86470  Biso   1.000  C
  H25      1.0000 0.73690  0.89570  0.91160  Biso   1.000  H
  C68      1.0000 0.76970  0.83360  0.83600  Biso   1.000  C
  C69      1.0000 0.66540  0.83490  0.75710  Biso   1.000  C
  H26      1.0000 0.63000  0.83520  0.73000  Biso   1.000  H
  C70      1.0000 0.75680  0.79700  0.76690  Biso   1.000  C
  C71      1.0000 0.70560  0.79750  0.72750  Biso   1.000  C
  H27      1.0000 0.69750  0.77260  0.68050  Biso   1.000  H
  C72      1.0000 0.82460  0.83680  0.88530  Biso   1.000  C
  F25      1.0000 0.86780  0.84880  0.83330  Biso   1.000  F
  F26      1.0000 0.83730  0.78950  0.92660  Biso   1.000  F
  F27      1.0000 0.82370  0.87560  0.94870  Biso   1.000  F
  O19      1.0000 0.35189  0.05427  0.91350  Biso   1.000  O
  O20      1.0000 0.41703  0.10280  0.83550  Biso   1.000  O
  C73      1.0000 0.36660  0.09300  0.86070  Biso   1.000  C
  C74      1.0000 0.32300  0.12870  0.82560  Biso   1.000  C
  C75      1.0000 0.27110  0.12930  0.86470  Biso   1.000  C
  H28      1.0000 0.26310  0.10430  0.91160  Biso   1.000  H
  C76      1.0000 0.23030  0.16640  0.83600  Biso   1.000  C
  C77      1.0000 0.33460  0.16510  0.75710  Biso   1.000  C
  H29      1.0000 0.37000  0.16480  0.73000  Biso   1.000  H
  C78      1.0000 0.24320  0.20300  0.76690  Biso   1.000  C
  C79      1.0000 0.29440  0.20250  0.72750  Biso   1.000  C
  H30      1.0000 0.30250  0.22740  0.68050  Biso   1.000  H
  C80      1.0000 0.17540  0.16320  0.88530  Biso   1.000  C
  F28      1.0000 0.13220  0.15120  0.83330  Biso   1.000  F
  F29      1.0000 0.16270  0.21050  0.92660  Biso   1.000  F
  F30      1.0000 0.17630  0.12440  0.94870  Biso   1.000  F
  O21      1.0000 0.05427  0.64811  0.41350  Biso   1.000  O
  O22      1.0000 0.10280  0.58297  0.33550  Biso   1.000  O
  C81      1.0000 0.09300  0.63340  0.36070  Biso   1.000  C
  C82      1.0000 0.12870  0.67700  0.32560  Biso   1.000  C
  C83      1.0000 0.12930  0.72890  0.36470  Biso   1.000  C
  H31      1.0000 0.10430  0.73690  0.41160  Biso   1.000  H
  C84      1.0000 0.16640  0.76970  0.33600  Biso   1.000  C
  C85      1.0000 0.16510  0.66540  0.25710  Biso   1.000  C
  H32      1.0000 0.16480  0.63000  0.23000  Biso   1.000  H
  C86      1.0000 0.20300  0.75680  0.26690  Biso   1.000  C
  C87      1.0000 0.20250  0.70560  0.22750  Biso   1.000  C
  H33      1.0000 0.22740  0.69750  0.18050  Biso   1.000  H
  C88      1.0000 0.16320  0.82460  0.38530  Biso   1.000  C
  F31      1.0000 0.15120  0.86780  0.33330  Biso   1.000  F
  F32      1.0000 0.21050  0.83730  0.42660  Biso   1.000  F
  F33      1.0000 0.12440  0.82370  0.44870  Biso   1.000  F
  O23      1.0000 0.94573  0.35189  0.41350  Biso   1.000  O
  O24      1.0000 0.89720  0.41703  0.33550  Biso   1.000  O
  C89      1.0000 0.90700  0.36660  0.36070  Biso   1.000  C
  C90      1.0000 0.87130  0.32300  0.32560  Biso   1.000  C
  C91      1.0000 0.87070  0.27110  0.36470  Biso   1.000  C
  H34      1.0000 0.89570  0.26310  0.41160  Biso   1.000  H
  C92      1.0000 0.83360  0.23030  0.33600  Biso   1.000  C
  C93      1.0000 0.83490  0.33460  0.25710  Biso   1.000  C
  H35      1.0000 0.83520  0.37000  0.23000  Biso   1.000  H
  C94      1.0000 0.79700  0.24320  0.26690  Biso   1.000  C
  C95      1.0000 0.79750  0.29440  0.22750  Biso   1.000  C
  H36      1.0000 0.77260  0.30250  0.18050  Biso   1.000  H
  C96      1.0000 0.83680  0.17540  0.38530  Biso   1.000  C
  F34      1.0000 0.84880  0.13220  0.33330  Biso   1.000  F
  F35      1.0000 0.78950  0.16270  0.42660  Biso   1.000  F
  F36      1.0000 0.87560  0.17630  0.44870  Biso   1.000  F
  O25      1.0000 0.35189  0.94573  0.08650  Biso   1.000  O
  O26      1.0000 0.41703  0.89720  0.16450  Biso   1.000  O
  C97      1.0000 0.36660  0.90700  0.13930  Biso   1.000  C
  C98      1.0000 0.32300  0.87130  0.17440  Biso   1.000  C
  C99      1.0000 0.27110  0.87070  0.13530  Biso   1.000  C
  H37      1.0000 0.26310  0.89570  0.08840  Biso   1.000  H
  C100     1.0000 0.23030  0.83360  0.16400  Biso   1.000  C
  C101     1.0000 0.33460  0.83490  0.24290  Biso   1.000  C
  H38      1.0000 0.37000  0.83520  0.27000  Biso   1.000  H
  C102     1.0000 0.24320  0.79700  0.23310  Biso   1.000  C
  C103     1.0000 0.29440  0.79750  0.27250  Biso   1.000  C
  H39      1.0000 0.30250  0.77260  0.31950  Biso   1.000  H
  C104     1.0000 0.17540  0.83680  0.11470  Biso   1.000  C
  F37      1.0000 0.13220  0.84880  0.16670  Biso   1.000  F
  F38      1.0000 0.16270  0.78950  0.07340  Biso   1.000  F
  F39      1.0000 0.17630  0.87560  0.05130  Biso   1.000  F
  O27      1.0000 0.64811  0.05427  0.08650  Biso   1.000  O
  O28      1.0000 0.58297  0.10280  0.16450  Biso   1.000  O
  C105     1.0000 0.63340  0.09300  0.13930  Biso   1.000  C
  C106     1.0000 0.67700  0.12870  0.17440  Biso   1.000  C
  C107     1.0000 0.72890  0.12930  0.13530  Biso   1.000  C
  H40      1.0000 0.73690  0.10430  0.08840  Biso   1.000  H
  C108     1.0000 0.76970  0.16640  0.16400  Biso   1.000  C
  C109     1.0000 0.66540  0.16510  0.24290  Biso   1.000  C
  H41      1.0000 0.63000  0.16480  0.27000  Biso   1.000  H
  C110     1.0000 0.75680  0.20300  0.23310  Biso   1.000  C
  C111     1.0000 0.70560  0.20250  0.27250  Biso   1.000  C
  H42      1.0000 0.69750  0.22740  0.31950  Biso   1.000  H
  C112     1.0000 0.82460  0.16320  0.11470  Biso   1.000  C
  F40      1.0000 0.86780  0.15120  0.16670  Biso   1.000  F
  F41      1.0000 0.83730  0.21050  0.07340  Biso   1.000  F
  F42      1.0000 0.82370  0.12440  0.05130  Biso   1.000  F
  O29      1.0000 0.94573  0.64811  0.58650  Biso   1.000  O
  O30      1.0000 0.89720  0.58297  0.66450  Biso   1.000  O
  C113     1.0000 0.90700  0.63340  0.63930  Biso   1.000  C
  C114     1.0000 0.87130  0.67700  0.67440  Biso   1.000  C
  C115     1.0000 0.87070  0.72890  0.63530  Biso   1.000  C
  H43      1.0000 0.89570  0.73690  0.58840  Biso   1.000  H
  C116     1.0000 0.83360  0.76970  0.66400  Biso   1.000  C
  C117     1.0000 0.83490  0.66540  0.74290  Biso   1.000  C
  H44      1.0000 0.83520  0.63000  0.77000  Biso   1.000  H
  C118     1.0000 0.79700  0.75680  0.73310  Biso   1.000  C
  C119     1.0000 0.79750  0.70560  0.77250  Biso   1.000  C
  H45      1.0000 0.77260  0.69750  0.81950  Biso   1.000  H
  C120     1.0000 0.83680  0.82460  0.61470  Biso   1.000  C
  F43      1.0000 0.84880  0.86780  0.66670  Biso   1.000  F
  F44      1.0000 0.78950  0.83730  0.57340  Biso   1.000  F
  F45      1.0000 0.87560  0.82370  0.55130  Biso   1.000  F
  O31      1.0000 0.05427  0.35189  0.58650  Biso   1.000  O
  O32      1.0000 0.10280  0.41703  0.66450  Biso   1.000  O
  C121     1.0000 0.09300  0.36660  0.63930  Biso   1.000  C
  C122     1.0000 0.12870  0.32300  0.67440  Biso   1.000  C
  C123     1.0000 0.12930  0.27110  0.63530  Biso   1.000  C
  H46      1.0000 0.10430  0.26310  0.58840  Biso   1.000  H
  C124     1.0000 0.16640  0.23030  0.66400  Biso   1.000  C
  C125     1.0000 0.16510  0.33460  0.74290  Biso   1.000  C
  H47      1.0000 0.16480  0.37000  0.77000  Biso   1.000  H
  C126     1.0000 0.20300  0.24320  0.73310  Biso   1.000  C
  C127     1.0000 0.20250  0.29440  0.77250  Biso   1.000  C
  H48      1.0000 0.22740  0.30250  0.81950  Biso   1.000  H
  C128     1.0000 0.16320  0.17540  0.61470  Biso   1.000  C
  F46      1.0000 0.15120  0.13220  0.66670  Biso   1.000  F
  F47      1.0000 0.21050  0.16270  0.57340  Biso   1.000  F
  F48      1.0000 0.12440  0.17630  0.55130  Biso   1.000  F
  Zr1      1.0000 0.39963  0.00000  0.00000  Biso   1.000  Zr
  Zr2      1.0000 0.60037  0.00000  0.00000  Biso   1.000  Zr
  Zr3      1.0000 0.00000  0.39963  0.50000  Biso   1.000  Zr
  Zr4      1.0000 0.00000  0.60037  0.50000  Biso   1.000  Zr
  Zr5      1.0000 0.50000  0.07268  0.11689  Biso   1.000  Zr
  Zr6      1.0000 0.50000  0.92732  0.11689  Biso   1.000  Zr
  Zr7      1.0000 0.92732  0.50000  0.61689  Biso   1.000  Zr
  Zr8      1.0000 0.07268  0.50000  0.61689  Biso   1.000  Zr
  Zr9      1.0000 0.50000  0.07268  0.88311  Biso   1.000  Zr
  Zr10     1.0000 0.50000  0.92732  0.88311  Biso   1.000  Zr
  Zr11     1.0000 0.07268  0.50000  0.38311  Biso   1.000  Zr
  Zr12     1.0000 0.92732  0.50000  0.38311  Biso   1.000  Zr
  O33      1.0000 0.45070  0.00000  0.11600  Biso   1.000  O
  O34      1.0000 0.54930  0.00000  0.11600  Biso   1.000  O
  O35      1.0000 0.00000  0.45070  0.61600  Biso   1.000  O
  O36      1.0000 0.00000  0.54930  0.61600  Biso   1.000  O
  O37      1.0000 0.54930  0.00000  0.88400  Biso   1.000  O
  O38      1.0000 0.45070  0.00000  0.88400  Biso   1.000  O
  O39      1.0000 0.00000  0.45070  0.38400  Biso   1.000  O
  O40      1.0000 0.00000  0.54930  0.38400  Biso   1.000  O
  O41      1.0000 0.45110  0.92720  0.00000  Biso   1.000  O
  O42      1.0000 0.54890  0.07280  0.00000  Biso   1.000  O
  O43      1.0000 0.07280  0.45110  0.50000  Biso   1.000  O
  O44      1.0000 0.92720  0.54890  0.50000  Biso   1.000  O
  O45      1.0000 0.54890  0.92720  0.00000  Biso   1.000  O
  O46      1.0000 0.45110  0.07280  0.00000  Biso   1.000  O
  O47      1.0000 0.92720  0.45110  0.50000  Biso   1.000  O
  O48      1.0000 0.07280  0.54890  0.50000  Biso   1.000  O
