data_image0
_cell_length_a       35.126
_cell_length_b       35.126
_cell_length_c       11.239
_cell_angle_alpha    90
_cell_angle_beta     90
_cell_angle_gamma    90

_symmetry_space_group_name_H-M    "P 1"
_symmetry_int_tables_number       1

loop_
  _symmetry_equiv_pos_as_xyz
  'x, y, z'

loop_
  _atom_site_label
  _atom_site_occupancy
  _atom_site_fract_x
  _atom_site_fract_y
  _atom_site_fract_z
  _atom_site_thermal_displace_type
  _atom_site_B_iso_or_equiv
  _atom_site_type_symbol
  O1       1.0000 0.60433  0.45993  0.58440  Biso   1.000  O
  O2       1.0000 0.46695  0.51497  0.34750  Biso   1.000  O
  O3       1.0000 0.60216  0.51960  0.65530  Biso   1.000  O
  O4       1.0000 0.90931  0.44784  0.85350  Biso   1.000  O
  O5       1.0000 0.51103  0.55780  0.46180  Biso   1.000  O
  C1       1.0000 0.79456  0.46079  0.80480  Biso   1.000  C
  H1       1.0000 0.77680  0.45080  0.86050  Biso   1.000  H
  O6       1.0000 0.92279  0.49622  0.73080  Biso   1.000  O
  C2       1.0000 0.80752  0.49421  0.62210  Biso   1.000  C
  C3       1.0000 0.83338  0.45653  0.82420  Biso   1.000  C
  H2       1.0000 0.84220  0.44370  0.89320  Biso   1.000  H
  C4       1.0000 0.85932  0.47112  0.74250  Biso   1.000  C
  C5       1.0000 0.71932  0.45138  0.65460  Biso   1.000  C
  H3       1.0000 0.73220  0.42770  0.64890  Biso   1.000  H
  C6       1.0000 0.68032  0.45324  0.63450  Biso   1.000  C
  H4       1.0000 0.66660  0.43080  0.61500  Biso   1.000  H
  C7       1.0000 0.66149  0.48793  0.64290  Biso   1.000  C
  C8       1.0000 0.72065  0.51888  0.69150  Biso   1.000  C
  C9       1.0000 0.68164  0.52074  0.67140  Biso   1.000  C
  H5       1.0000 0.66880  0.54440  0.67710  Biso   1.000  H
  C10      1.0000 0.79790  0.51230  0.49930  Biso   1.000  C
  H6       1.0000 0.78380  0.53600  0.51140  Biso   1.000  H
  H7       1.0000 0.78240  0.49450  0.45280  Biso   1.000  H
  H8       1.0000 0.82160  0.51770  0.45630  Biso   1.000  H
  C11      1.0000 0.84641  0.48994  0.64160  Biso   1.000  C
  H9       1.0000 0.86410  0.49990  0.58580  Biso   1.000  H
  C12      1.0000 0.78166  0.47965  0.70360  Biso   1.000  C
  C13      1.0000 0.90060  0.47090  0.77110  Biso   1.000  C
  C14      1.0000 0.73950  0.48419  0.68300  Biso   1.000  C
  C15      1.0000 0.62010  0.48993  0.62150  Biso   1.000  C
  C16      1.0000 0.74200  0.55700  0.72340  Biso   1.000  C
  H10      1.0000 0.72340  0.57750  0.73350  Biso   1.000  H
  H11      1.0000 0.75960  0.56360  0.65900  Biso   1.000  H
  H12      1.0000 0.75630  0.55350  0.79750  Biso   1.000  H
  O7       1.0000 0.89567  0.04007  0.58440  Biso   1.000  O
  O8       1.0000 0.03305  0.98503  0.34750  Biso   1.000  O
  O9       1.0000 0.89784  0.98040  0.65530  Biso   1.000  O
  O10      1.0000 0.59069  0.05216  0.85350  Biso   1.000  O
  O11      1.0000 0.98897  0.94220  0.46180  Biso   1.000  O
  C17      1.0000 0.70544  0.03921  0.80480  Biso   1.000  C
  H13      1.0000 0.72320  0.04920  0.86050  Biso   1.000  H
  O12      1.0000 0.57721  0.00378  0.73080  Biso   1.000  O
  C18      1.0000 0.69248  0.00579  0.62210  Biso   1.000  C
  C19      1.0000 0.66662  0.04347  0.82420  Biso   1.000  C
  H14      1.0000 0.65780  0.05630  0.89320  Biso   1.000  H
  C20      1.0000 0.64068  0.02888  0.74250  Biso   1.000  C
  C21      1.0000 0.78068  0.04862  0.65460  Biso   1.000  C
  H15      1.0000 0.76780  0.07230  0.64890  Biso   1.000  H
  C22      1.0000 0.81968  0.04676  0.63450  Biso   1.000  C
  H16      1.0000 0.83340  0.06920  0.61500  Biso   1.000  H
  C23      1.0000 0.83851  0.01207  0.64290  Biso   1.000  C
  C24      1.0000 0.77935  0.98112  0.69150  Biso   1.000  C
  C25      1.0000 0.81836  0.97926  0.67140  Biso   1.000  C
  H17      1.0000 0.83120  0.95560  0.67710  Biso   1.000  H
  C26      1.0000 0.70210  0.98770  0.49930  Biso   1.000  C
  H18      1.0000 0.71620  0.96400  0.51140  Biso   1.000  H
  H19      1.0000 0.71760  0.00550  0.45280  Biso   1.000  H
  H20      1.0000 0.67840  0.98230  0.45630  Biso   1.000  H
  C27      1.0000 0.65359  0.01006  0.64160  Biso   1.000  C
  H21      1.0000 0.63590  0.00010  0.58580  Biso   1.000  H
  C28      1.0000 0.71834  0.02035  0.70360  Biso   1.000  C
  C29      1.0000 0.59940  0.02910  0.77110  Biso   1.000  C
  C30      1.0000 0.76050  0.01581  0.68300  Biso   1.000  C
  C31      1.0000 0.87990  0.01007  0.62150  Biso   1.000  C
  C32      1.0000 0.75800  0.94300  0.72340  Biso   1.000  C
  H22      1.0000 0.77660  0.92250  0.73350  Biso   1.000  H
  H23      1.0000 0.74040  0.93640  0.65900  Biso   1.000  H
  H24      1.0000 0.74370  0.94650  0.79750  Biso   1.000  H
  O13      1.0000 0.04007  0.60433  0.08440  Biso   1.000  O
  O14      1.0000 0.98503  0.46695  0.84750  Biso   1.000  O
  O15      1.0000 0.98040  0.60216  0.15530  Biso   1.000  O
  O16      1.0000 0.05216  0.90931  0.35350  Biso   1.000  O
  O17      1.0000 0.94220  0.51103  0.96180  Biso   1.000  O
  C33      1.0000 0.03921  0.79456  0.30480  Biso   1.000  C
  H25      1.0000 0.04920  0.77680  0.36050  Biso   1.000  H
  O18      1.0000 0.00378  0.92279  0.23080  Biso   1.000  O
  C34      1.0000 0.00579  0.80752  0.12210  Biso   1.000  C
  C35      1.0000 0.04347  0.83338  0.32420  Biso   1.000  C
  H26      1.0000 0.05630  0.84220  0.39320  Biso   1.000  H
  C36      1.0000 0.02888  0.85932  0.24250  Biso   1.000  C
  C37      1.0000 0.04862  0.71932  0.15460  Biso   1.000  C
  H27      1.0000 0.07230  0.73220  0.14890  Biso   1.000  H
  C38      1.0000 0.04676  0.68032  0.13450  Biso   1.000  C
  H28      1.0000 0.06920  0.66660  0.11500  Biso   1.000  H
  C39      1.0000 0.01207  0.66149  0.14290  Biso   1.000  C
  C40      1.0000 0.98112  0.72065  0.19150  Biso   1.000  C
  C41      1.0000 0.97926  0.68164  0.17140  Biso   1.000  C
  H29      1.0000 0.95560  0.66880  0.17710  Biso   1.000  H
  C42      1.0000 0.98770  0.79790  0.99930  Biso   1.000  C
  H30      1.0000 0.96400  0.78380  0.01140  Biso   1.000  H
  H31      1.0000 0.00550  0.78240  0.95280  Biso   1.000  H
  H32      1.0000 0.98230  0.82160  0.95630  Biso   1.000  H
  C43      1.0000 0.01006  0.84641  0.14160  Biso   1.000  C
  H33      1.0000 0.00010  0.86410  0.08580  Biso   1.000  H
  C44      1.0000 0.02035  0.78166  0.20360  Biso   1.000  C
  C45      1.0000 0.02910  0.90060  0.27110  Biso   1.000  C
  C46      1.0000 0.01581  0.73950  0.18300  Biso   1.000  C
  C47      1.0000 0.01007  0.62010  0.12150  Biso   1.000  C
  C48      1.0000 0.94300  0.74200  0.22340  Biso   1.000  C
  H34      1.0000 0.92250  0.72340  0.23350  Biso   1.000  H
  H35      1.0000 0.93640  0.75960  0.15900  Biso   1.000  H
  H36      1.0000 0.94650  0.75630  0.29750  Biso   1.000  H
  O19      1.0000 0.45993  0.89567  0.08440  Biso   1.000  O
  O20      1.0000 0.51497  0.03305  0.84750  Biso   1.000  O
  O21      1.0000 0.51960  0.89784  0.15530  Biso   1.000  O
  O22      1.0000 0.44784  0.59069  0.35350  Biso   1.000  O
  O23      1.0000 0.55780  0.98897  0.96180  Biso   1.000  O
  C49      1.0000 0.46079  0.70544  0.30480  Biso   1.000  C
  H37      1.0000 0.45080  0.72320  0.36050  Biso   1.000  H
  O24      1.0000 0.49622  0.57721  0.23080  Biso   1.000  O
  C50      1.0000 0.49421  0.69248  0.12210  Biso   1.000  C
  C51      1.0000 0.45653  0.66662  0.32420  Biso   1.000  C
  H38      1.0000 0.44370  0.65780  0.39320  Biso   1.000  H
  C52      1.0000 0.47112  0.64068  0.24250  Biso   1.000  C
  C53      1.0000 0.45138  0.78068  0.15460  Biso   1.000  C
  H39      1.0000 0.42770  0.76780  0.14890  Biso   1.000  H
  C54      1.0000 0.45324  0.81968  0.13450  Biso   1.000  C
  H40      1.0000 0.43080  0.83340  0.11500  Biso   1.000  H
  C55      1.0000 0.48793  0.83851  0.14290  Biso   1.000  C
  C56      1.0000 0.51888  0.77935  0.19150  Biso   1.000  C
  C57      1.0000 0.52074  0.81836  0.17140  Biso   1.000  C
  H41      1.0000 0.54440  0.83120  0.17710  Biso   1.000  H
  C58      1.0000 0.51230  0.70210  0.99930  Biso   1.000  C
  H42      1.0000 0.53600  0.71620  0.01140  Biso   1.000  H
  H43      1.0000 0.49450  0.71760  0.95280  Biso   1.000  H
  H44      1.0000 0.51770  0.67840  0.95630  Biso   1.000  H
  C59      1.0000 0.48994  0.65359  0.14160  Biso   1.000  C
  H45      1.0000 0.49990  0.63590  0.08580  Biso   1.000  H
  C60      1.0000 0.47965  0.71834  0.20360  Biso   1.000  C
  C61      1.0000 0.47090  0.59940  0.27110  Biso   1.000  C
  C62      1.0000 0.48419  0.76050  0.18300  Biso   1.000  C
  C63      1.0000 0.48993  0.87990  0.12150  Biso   1.000  C
  C64      1.0000 0.55700  0.75800  0.22340  Biso   1.000  C
  H46      1.0000 0.57750  0.77660  0.23350  Biso   1.000  H
  H47      1.0000 0.56360  0.74040  0.15900  Biso   1.000  H
  H48      1.0000 0.55350  0.74370  0.29750  Biso   1.000  H
  O25      1.0000 0.39567  0.95993  0.91560  Biso   1.000  O
  O26      1.0000 0.53305  0.01497  0.15250  Biso   1.000  O
  O27      1.0000 0.39784  0.01960  0.84470  Biso   1.000  O
  O28      1.0000 0.09069  0.94784  0.64650  Biso   1.000  O
  O29      1.0000 0.48897  0.05780  0.03820  Biso   1.000  O
  C65      1.0000 0.20544  0.96079  0.69520  Biso   1.000  C
  H49      1.0000 0.22320  0.95080  0.63950  Biso   1.000  H
  O30      1.0000 0.07721  0.99622  0.76920  Biso   1.000  O
  C66      1.0000 0.19248  0.99421  0.87790  Biso   1.000  C
  C67      1.0000 0.16662  0.95653  0.67580  Biso   1.000  C
  H50      1.0000 0.15780  0.94370  0.60680  Biso   1.000  H
  C68      1.0000 0.14068  0.97112  0.75750  Biso   1.000  C
  C69      1.0000 0.28068  0.95138  0.84540  Biso   1.000  C
  H51      1.0000 0.26780  0.92770  0.85110  Biso   1.000  H
  C70      1.0000 0.31968  0.95324  0.86550  Biso   1.000  C
  H52      1.0000 0.33340  0.93080  0.88500  Biso   1.000  H
  C71      1.0000 0.33851  0.98793  0.85710  Biso   1.000  C
  C72      1.0000 0.27935  0.01888  0.80850  Biso   1.000  C
  C73      1.0000 0.31836  0.02074  0.82860  Biso   1.000  C
  H53      1.0000 0.33120  0.04440  0.82290  Biso   1.000  H
  C74      1.0000 0.20210  0.01230  0.00070  Biso   1.000  C
  H54      1.0000 0.21620  0.03600  0.98860  Biso   1.000  H
  H55      1.0000 0.21760  0.99450  0.04720  Biso   1.000  H
  H56      1.0000 0.17840  0.01770  0.04370  Biso   1.000  H
  C75      1.0000 0.15359  0.98994  0.85840  Biso   1.000  C
  H57      1.0000 0.13590  0.99990  0.91420  Biso   1.000  H
  C76      1.0000 0.21834  0.97965  0.79640  Biso   1.000  C
  C77      1.0000 0.09940  0.97090  0.72890  Biso   1.000  C
  C78      1.0000 0.26050  0.98419  0.81700  Biso   1.000  C
  C79      1.0000 0.37990  0.98993  0.87850  Biso   1.000  C
  C80      1.0000 0.25800  0.05700  0.77660  Biso   1.000  C
  H58      1.0000 0.27660  0.07750  0.76650  Biso   1.000  H
  H59      1.0000 0.24040  0.06360  0.84100  Biso   1.000  H
  H60      1.0000 0.24370  0.05350  0.70250  Biso   1.000  H
  O31      1.0000 0.10433  0.54007  0.91560  Biso   1.000  O
  O32      1.0000 0.96695  0.48503  0.15250  Biso   1.000  O
  O33      1.0000 0.10216  0.48040  0.84470  Biso   1.000  O
  O34      1.0000 0.40931  0.55216  0.64650  Biso   1.000  O
  O35      1.0000 0.01103  0.44220  0.03820  Biso   1.000  O
  C81      1.0000 0.29456  0.53921  0.69520  Biso   1.000  C
  H61      1.0000 0.27680  0.54920  0.63950  Biso   1.000  H
  O36      1.0000 0.42279  0.50378  0.76920  Biso   1.000  O
  C82      1.0000 0.30752  0.50579  0.87790  Biso   1.000  C
  C83      1.0000 0.33338  0.54347  0.67580  Biso   1.000  C
  H62      1.0000 0.34220  0.55630  0.60680  Biso   1.000  H
  C84      1.0000 0.35932  0.52888  0.75750  Biso   1.000  C
  C85      1.0000 0.21932  0.54862  0.84540  Biso   1.000  C
  H63      1.0000 0.23220  0.57230  0.85110  Biso   1.000  H
  C86      1.0000 0.18032  0.54676  0.86550  Biso   1.000  C
  H64      1.0000 0.16660  0.56920  0.88500  Biso   1.000  H
  C87      1.0000 0.16149  0.51207  0.85710  Biso   1.000  C
  C88      1.0000 0.22065  0.48112  0.80850  Biso   1.000  C
  C89      1.0000 0.18164  0.47926  0.82860  Biso   1.000  C
  H65      1.0000 0.16880  0.45560  0.82290  Biso   1.000  H
  C90      1.0000 0.29790  0.48770  0.00070  Biso   1.000  C
  H66      1.0000 0.28380  0.46400  0.98860  Biso   1.000  H
  H67      1.0000 0.28240  0.50550  0.04720  Biso   1.000  H
  H68      1.0000 0.32160  0.48230  0.04370  Biso   1.000  H
  C91      1.0000 0.34641  0.51006  0.85840  Biso   1.000  C
  H69      1.0000 0.36410  0.50010  0.91420  Biso   1.000  H
  C92      1.0000 0.28166  0.52035  0.79640  Biso   1.000  C
  C93      1.0000 0.40060  0.52910  0.72890  Biso   1.000  C
  C94      1.0000 0.23950  0.51581  0.81700  Biso   1.000  C
  C95      1.0000 0.12010  0.51007  0.87850  Biso   1.000  C
  C96      1.0000 0.24200  0.44300  0.77660  Biso   1.000  C
  H70      1.0000 0.22340  0.42250  0.76650  Biso   1.000  H
  H71      1.0000 0.25960  0.43640  0.84100  Biso   1.000  H
  H72      1.0000 0.25630  0.44650  0.70250  Biso   1.000  H
  O37      1.0000 0.95993  0.10433  0.41560  Biso   1.000  O
  O38      1.0000 0.01497  0.96695  0.65250  Biso   1.000  O
  O39      1.0000 0.01960  0.10216  0.34470  Biso   1.000  O
  O40      1.0000 0.94784  0.40931  0.14650  Biso   1.000  O
  O41      1.0000 0.05780  0.01103  0.53820  Biso   1.000  O
  C97      1.0000 0.96079  0.29456  0.19520  Biso   1.000  C
  H73      1.0000 0.95080  0.27680  0.13950  Biso   1.000  H
  O42      1.0000 0.99622  0.42279  0.26920  Biso   1.000  O
  C98      1.0000 0.99421  0.30752  0.37790  Biso   1.000  C
  C99      1.0000 0.95653  0.33338  0.17580  Biso   1.000  C
  H74      1.0000 0.94370  0.34220  0.10680  Biso   1.000  H
  C100     1.0000 0.97112  0.35932  0.25750  Biso   1.000  C
  C101     1.0000 0.95138  0.21932  0.34540  Biso   1.000  C
  H75      1.0000 0.92770  0.23220  0.35110  Biso   1.000  H
  C102     1.0000 0.95324  0.18032  0.36550  Biso   1.000  C
  H76      1.0000 0.93080  0.16660  0.38500  Biso   1.000  H
  C103     1.0000 0.98793  0.16149  0.35710  Biso   1.000  C
  C104     1.0000 0.01888  0.22065  0.30850  Biso   1.000  C
  C105     1.0000 0.02074  0.18164  0.32860  Biso   1.000  C
  H77      1.0000 0.04440  0.16880  0.32290  Biso   1.000  H
  C106     1.0000 0.01230  0.29790  0.50070  Biso   1.000  C
  H78      1.0000 0.03600  0.28380  0.48860  Biso   1.000  H
  H79      1.0000 0.99450  0.28240  0.54720  Biso   1.000  H
  H80      1.0000 0.01770  0.32160  0.54370  Biso   1.000  H
  C107     1.0000 0.98994  0.34641  0.35840  Biso   1.000  C
  H81      1.0000 0.99990  0.36410  0.41420  Biso   1.000  H
  C108     1.0000 0.97965  0.28166  0.29640  Biso   1.000  C
  C109     1.0000 0.97090  0.40060  0.22890  Biso   1.000  C
  C110     1.0000 0.98419  0.23950  0.31700  Biso   1.000  C
  C111     1.0000 0.98993  0.12010  0.37850  Biso   1.000  C
  C112     1.0000 0.05700  0.24200  0.27660  Biso   1.000  C
  H82      1.0000 0.07750  0.22340  0.26650  Biso   1.000  H
  H83      1.0000 0.06360  0.25960  0.34100  Biso   1.000  H
  H84      1.0000 0.05350  0.25630  0.20250  Biso   1.000  H
  O43      1.0000 0.54007  0.39567  0.41560  Biso   1.000  O
  O44      1.0000 0.48503  0.53305  0.65250  Biso   1.000  O
  O45      1.0000 0.48040  0.39784  0.34470  Biso   1.000  O
  O46      1.0000 0.55216  0.09069  0.14650  Biso   1.000  O
  O47      1.0000 0.44220  0.48897  0.53820  Biso   1.000  O
  C113     1.0000 0.53921  0.20544  0.19520  Biso   1.000  C
  H85      1.0000 0.54920  0.22320  0.13950  Biso   1.000  H
  O48      1.0000 0.50378  0.07721  0.26920  Biso   1.000  O
  C114     1.0000 0.50579  0.19248  0.37790  Biso   1.000  C
  C115     1.0000 0.54347  0.16662  0.17580  Biso   1.000  C
  H86      1.0000 0.55630  0.15780  0.10680  Biso   1.000  H
  C116     1.0000 0.52888  0.14068  0.25750  Biso   1.000  C
  C117     1.0000 0.54862  0.28068  0.34540  Biso   1.000  C
  H87      1.0000 0.57230  0.26780  0.35110  Biso   1.000  H
  C118     1.0000 0.54676  0.31968  0.36550  Biso   1.000  C
  H88      1.0000 0.56920  0.33340  0.38500  Biso   1.000  H
  C119     1.0000 0.51207  0.33851  0.35710  Biso   1.000  C
  C120     1.0000 0.48112  0.27935  0.30850  Biso   1.000  C
  C121     1.0000 0.47926  0.31836  0.32860  Biso   1.000  C
  H89      1.0000 0.45560  0.33120  0.32290  Biso   1.000  H
  C122     1.0000 0.48770  0.20210  0.50070  Biso   1.000  C
  H90      1.0000 0.46400  0.21620  0.48860  Biso   1.000  H
  H91      1.0000 0.50550  0.21760  0.54720  Biso   1.000  H
  H92      1.0000 0.48230  0.17840  0.54370  Biso   1.000  H
  C123     1.0000 0.51006  0.15359  0.35840  Biso   1.000  C
  H93      1.0000 0.50010  0.13590  0.41420  Biso   1.000  H
  C124     1.0000 0.52035  0.21834  0.29640  Biso   1.000  C
  C125     1.0000 0.52910  0.09940  0.22890  Biso   1.000  C
  C126     1.0000 0.51581  0.26050  0.31700  Biso   1.000  C
  C127     1.0000 0.51007  0.37990  0.37850  Biso   1.000  C
  C128     1.0000 0.44300  0.25800  0.27660  Biso   1.000  C
  H94      1.0000 0.42250  0.27660  0.26650  Biso   1.000  H
  H95      1.0000 0.43640  0.24040  0.34100  Biso   1.000  H
  H96      1.0000 0.44650  0.24370  0.20250  Biso   1.000  H
  O49      1.0000 0.39567  0.54007  0.41560  Biso   1.000  O
  O50      1.0000 0.53305  0.48503  0.65250  Biso   1.000  O
  O51      1.0000 0.39784  0.48040  0.34470  Biso   1.000  O
  O52      1.0000 0.09069  0.55216  0.14650  Biso   1.000  O
  O53      1.0000 0.48897  0.44220  0.53820  Biso   1.000  O
  C129     1.0000 0.20544  0.53921  0.19520  Biso   1.000  C
  H97      1.0000 0.22320  0.54920  0.13950  Biso   1.000  H
  O54      1.0000 0.07721  0.50378  0.26920  Biso   1.000  O
  C130     1.0000 0.19248  0.50579  0.37790  Biso   1.000  C
  C131     1.0000 0.16662  0.54347  0.17580  Biso   1.000  C
  H98      1.0000 0.15780  0.55630  0.10680  Biso   1.000  H
  C132     1.0000 0.14068  0.52888  0.25750  Biso   1.000  C
  C133     1.0000 0.28068  0.54862  0.34540  Biso   1.000  C
  H99      1.0000 0.26780  0.57230  0.35110  Biso   1.000  H
  C134     1.0000 0.31968  0.54676  0.36550  Biso   1.000  C
  H100     1.0000 0.33340  0.56920  0.38500  Biso   1.000  H
  C135     1.0000 0.33851  0.51207  0.35710  Biso   1.000  C
  C136     1.0000 0.27935  0.48112  0.30850  Biso   1.000  C
  C137     1.0000 0.31836  0.47926  0.32860  Biso   1.000  C
  H101     1.0000 0.33120  0.45560  0.32290  Biso   1.000  H
  C138     1.0000 0.20210  0.48770  0.50070  Biso   1.000  C
  H102     1.0000 0.21620  0.46400  0.48860  Biso   1.000  H
  H103     1.0000 0.21760  0.50550  0.54720  Biso   1.000  H
  H104     1.0000 0.17840  0.48230  0.54370  Biso   1.000  H
  C139     1.0000 0.15359  0.51006  0.35840  Biso   1.000  C
  H105     1.0000 0.13590  0.50010  0.41420  Biso   1.000  H
  C140     1.0000 0.21834  0.52035  0.29640  Biso   1.000  C
  C141     1.0000 0.09940  0.52910  0.22890  Biso   1.000  C
  C142     1.0000 0.26050  0.51581  0.31700  Biso   1.000  C
  C143     1.0000 0.37990  0.51007  0.37850  Biso   1.000  C
  C144     1.0000 0.25800  0.44300  0.27660  Biso   1.000  C
  H106     1.0000 0.27660  0.42250  0.26650  Biso   1.000  H
  H107     1.0000 0.24040  0.43640  0.34100  Biso   1.000  H
  H108     1.0000 0.24370  0.44650  0.20250  Biso   1.000  H
  O55      1.0000 0.10433  0.95993  0.41560  Biso   1.000  O
  O56      1.0000 0.96695  0.01497  0.65250  Biso   1.000  O
  O57      1.0000 0.10216  0.01960  0.34470  Biso   1.000  O
  O58      1.0000 0.40931  0.94784  0.14650  Biso   1.000  O
  O59      1.0000 0.01103  0.05780  0.53820  Biso   1.000  O
  C145     1.0000 0.29456  0.96079  0.19520  Biso   1.000  C
  H109     1.0000 0.27680  0.95080  0.13950  Biso   1.000  H
  O60      1.0000 0.42279  0.99622  0.26920  Biso   1.000  O
  C146     1.0000 0.30752  0.99421  0.37790  Biso   1.000  C
  C147     1.0000 0.33338  0.95653  0.17580  Biso   1.000  C
  H110     1.0000 0.34220  0.94370  0.10680  Biso   1.000  H
  C148     1.0000 0.35932  0.97112  0.25750  Biso   1.000  C
  C149     1.0000 0.21932  0.95138  0.34540  Biso   1.000  C
  H111     1.0000 0.23220  0.92770  0.35110  Biso   1.000  H
  C150     1.0000 0.18032  0.95324  0.36550  Biso   1.000  C
  H112     1.0000 0.16660  0.93080  0.38500  Biso   1.000  H
  C151     1.0000 0.16149  0.98793  0.35710  Biso   1.000  C
  C152     1.0000 0.22065  0.01888  0.30850  Biso   1.000  C
  C153     1.0000 0.18164  0.02074  0.32860  Biso   1.000  C
  H113     1.0000 0.16880  0.04440  0.32290  Biso   1.000  H
  C154     1.0000 0.29790  0.01230  0.50070  Biso   1.000  C
  H114     1.0000 0.28380  0.03600  0.48860  Biso   1.000  H
  H115     1.0000 0.28240  0.99450  0.54720  Biso   1.000  H
  H116     1.0000 0.32160  0.01770  0.54370  Biso   1.000  H
  C155     1.0000 0.34641  0.98994  0.35840  Biso   1.000  C
  H117     1.0000 0.36410  0.99990  0.41420  Biso   1.000  H
  C156     1.0000 0.28166  0.97965  0.29640  Biso   1.000  C
  C157     1.0000 0.40060  0.97090  0.22890  Biso   1.000  C
  C158     1.0000 0.23950  0.98419  0.31700  Biso   1.000  C
  C159     1.0000 0.12010  0.98993  0.37850  Biso   1.000  C
  C160     1.0000 0.24200  0.05700  0.27660  Biso   1.000  C
  H118     1.0000 0.22340  0.07750  0.26650  Biso   1.000  H
  H119     1.0000 0.25960  0.06360  0.34100  Biso   1.000  H
  H120     1.0000 0.25630  0.05350  0.20250  Biso   1.000  H
  O61      1.0000 0.95993  0.39567  0.91560  Biso   1.000  O
  O62      1.0000 0.01497  0.53305  0.15250  Biso   1.000  O
  O63      1.0000 0.01960  0.39784  0.84470  Biso   1.000  O
  O64      1.0000 0.94784  0.09069  0.64650  Biso   1.000  O
  O65      1.0000 0.05780  0.48897  0.03820  Biso   1.000  O
  C161     1.0000 0.96079  0.20544  0.69520  Biso   1.000  C
  H121     1.0000 0.95080  0.22320  0.63950  Biso   1.000  H
  O66      1.0000 0.99622  0.07721  0.76920  Biso   1.000  O
  C162     1.0000 0.99421  0.19248  0.87790  Biso   1.000  C
  C163     1.0000 0.95653  0.16662  0.67580  Biso   1.000  C
  H122     1.0000 0.94370  0.15780  0.60680  Biso   1.000  H
  C164     1.0000 0.97112  0.14068  0.75750  Biso   1.000  C
  C165     1.0000 0.95138  0.28068  0.84540  Biso   1.000  C
  H123     1.0000 0.92770  0.26780  0.85110  Biso   1.000  H
  C166     1.0000 0.95324  0.31968  0.86550  Biso   1.000  C
  H124     1.0000 0.93080  0.33340  0.88500  Biso   1.000  H
  C167     1.0000 0.98793  0.33851  0.85710  Biso   1.000  C
  C168     1.0000 0.01888  0.27935  0.80850  Biso   1.000  C
  C169     1.0000 0.02074  0.31836  0.82860  Biso   1.000  C
  H125     1.0000 0.04440  0.33120  0.82290  Biso   1.000  H
  C170     1.0000 0.01230  0.20210  0.00070  Biso   1.000  C
  H126     1.0000 0.03600  0.21620  0.98860  Biso   1.000  H
  H127     1.0000 0.99450  0.21760  0.04720  Biso   1.000  H
  H128     1.0000 0.01770  0.17840  0.04370  Biso   1.000  H
  C171     1.0000 0.98994  0.15359  0.85840  Biso   1.000  C
  H129     1.0000 0.99990  0.13590  0.91420  Biso   1.000  H
  C172     1.0000 0.97965  0.21834  0.79640  Biso   1.000  C
  C173     1.0000 0.97090  0.09940  0.72890  Biso   1.000  C
  C174     1.0000 0.98419  0.26050  0.81700  Biso   1.000  C
  C175     1.0000 0.98993  0.37990  0.87850  Biso   1.000  C
  C176     1.0000 0.05700  0.25800  0.77660  Biso   1.000  C
  H130     1.0000 0.07750  0.27660  0.76650  Biso   1.000  H
  H131     1.0000 0.06360  0.24040  0.84100  Biso   1.000  H
  H132     1.0000 0.05350  0.24370  0.70250  Biso   1.000  H
  O67      1.0000 0.54007  0.10433  0.91560  Biso   1.000  O
  O68      1.0000 0.48503  0.96695  0.15250  Biso   1.000  O
  O69      1.0000 0.48040  0.10216  0.84470  Biso   1.000  O
  O70      1.0000 0.55216  0.40931  0.64650  Biso   1.000  O
  O71      1.0000 0.44220  0.01103  0.03820  Biso   1.000  O
  C177     1.0000 0.53921  0.29456  0.69520  Biso   1.000  C
  H133     1.0000 0.54920  0.27680  0.63950  Biso   1.000  H
  O72      1.0000 0.50378  0.42279  0.76920  Biso   1.000  O
  C178     1.0000 0.50579  0.30752  0.87790  Biso   1.000  C
  C179     1.0000 0.54347  0.33338  0.67580  Biso   1.000  C
  H134     1.0000 0.55630  0.34220  0.60680  Biso   1.000  H
  C180     1.0000 0.52888  0.35932  0.75750  Biso   1.000  C
  C181     1.0000 0.54862  0.21932  0.84540  Biso   1.000  C
  H135     1.0000 0.57230  0.23220  0.85110  Biso   1.000  H
  C182     1.0000 0.54676  0.18032  0.86550  Biso   1.000  C
  H136     1.0000 0.56920  0.16660  0.88500  Biso   1.000  H
  C183     1.0000 0.51207  0.16149  0.85710  Biso   1.000  C
  C184     1.0000 0.48112  0.22065  0.80850  Biso   1.000  C
  C185     1.0000 0.47926  0.18164  0.82860  Biso   1.000  C
  H137     1.0000 0.45560  0.16880  0.82290  Biso   1.000  H
  C186     1.0000 0.48770  0.29790  0.00070  Biso   1.000  C
  H138     1.0000 0.46400  0.28380  0.98860  Biso   1.000  H
  H139     1.0000 0.50550  0.28240  0.04720  Biso   1.000  H
  H140     1.0000 0.48230  0.32160  0.04370  Biso   1.000  H
  C187     1.0000 0.51006  0.34641  0.85840  Biso   1.000  C
  H141     1.0000 0.50010  0.36410  0.91420  Biso   1.000  H
  C188     1.0000 0.52035  0.28166  0.79640  Biso   1.000  C
  C189     1.0000 0.52910  0.40060  0.72890  Biso   1.000  C
  C190     1.0000 0.51581  0.23950  0.81700  Biso   1.000  C
  C191     1.0000 0.51007  0.12010  0.87850  Biso   1.000  C
  C192     1.0000 0.44300  0.24200  0.77660  Biso   1.000  C
  H142     1.0000 0.42250  0.22340  0.76650  Biso   1.000  H
  H143     1.0000 0.43640  0.25960  0.84100  Biso   1.000  H
  H144     1.0000 0.44650  0.25630  0.70250  Biso   1.000  H
  O73      1.0000 0.60433  0.04007  0.08440  Biso   1.000  O
  O74      1.0000 0.46695  0.98503  0.84750  Biso   1.000  O
  O75      1.0000 0.60216  0.98040  0.15530  Biso   1.000  O
  O76      1.0000 0.90931  0.05216  0.35350  Biso   1.000  O
  O77      1.0000 0.51103  0.94220  0.96180  Biso   1.000  O
  C193     1.0000 0.79456  0.03921  0.30480  Biso   1.000  C
  H145     1.0000 0.77680  0.04920  0.36050  Biso   1.000  H
  O78      1.0000 0.92279  0.00378  0.23080  Biso   1.000  O
  C194     1.0000 0.80752  0.00579  0.12210  Biso   1.000  C
  C195     1.0000 0.83338  0.04347  0.32420  Biso   1.000  C
  H146     1.0000 0.84220  0.05630  0.39320  Biso   1.000  H
  C196     1.0000 0.85932  0.02888  0.24250  Biso   1.000  C
  C197     1.0000 0.71932  0.04862  0.15460  Biso   1.000  C
  H147     1.0000 0.73220  0.07230  0.14890  Biso   1.000  H
  C198     1.0000 0.68032  0.04676  0.13450  Biso   1.000  C
  H148     1.0000 0.66660  0.06920  0.11500  Biso   1.000  H
  C199     1.0000 0.66149  0.01207  0.14290  Biso   1.000  C
  C200     1.0000 0.72065  0.98112  0.19150  Biso   1.000  C
  C201     1.0000 0.68164  0.97926  0.17140  Biso   1.000  C
  H149     1.0000 0.66880  0.95560  0.17710  Biso   1.000  H
  C202     1.0000 0.79790  0.98770  0.99930  Biso   1.000  C
  H150     1.0000 0.78380  0.96400  0.01140  Biso   1.000  H
  H151     1.0000 0.78240  0.00550  0.95280  Biso   1.000  H
  H152     1.0000 0.82160  0.98230  0.95630  Biso   1.000  H
  C203     1.0000 0.84641  0.01006  0.14160  Biso   1.000  C
  H153     1.0000 0.86410  0.00010  0.08580  Biso   1.000  H
  C204     1.0000 0.78166  0.02035  0.20360  Biso   1.000  C
  C205     1.0000 0.90060  0.02910  0.27110  Biso   1.000  C
  C206     1.0000 0.73950  0.01581  0.18300  Biso   1.000  C
  C207     1.0000 0.62010  0.01007  0.12150  Biso   1.000  C
  C208     1.0000 0.74200  0.94300  0.22340  Biso   1.000  C
  H154     1.0000 0.72340  0.92250  0.23350  Biso   1.000  H
  H155     1.0000 0.75960  0.93640  0.15900  Biso   1.000  H
  H156     1.0000 0.75630  0.94650  0.29750  Biso   1.000  H
  O79      1.0000 0.89567  0.45993  0.08440  Biso   1.000  O
  O80      1.0000 0.03305  0.51497  0.84750  Biso   1.000  O
  O81      1.0000 0.89784  0.51960  0.15530  Biso   1.000  O
  O82      1.0000 0.59069  0.44784  0.35350  Biso   1.000  O
  O83      1.0000 0.98897  0.55780  0.96180  Biso   1.000  O
  C209     1.0000 0.70544  0.46079  0.30480  Biso   1.000  C
  H157     1.0000 0.72320  0.45080  0.36050  Biso   1.000  H
  O84      1.0000 0.57721  0.49622  0.23080  Biso   1.000  O
  C210     1.0000 0.69248  0.49421  0.12210  Biso   1.000  C
  C211     1.0000 0.66662  0.45653  0.32420  Biso   1.000  C
  H158     1.0000 0.65780  0.44370  0.39320  Biso   1.000  H
  C212     1.0000 0.64068  0.47112  0.24250  Biso   1.000  C
  C213     1.0000 0.78068  0.45138  0.15460  Biso   1.000  C
  H159     1.0000 0.76780  0.42770  0.14890  Biso   1.000  H
  C214     1.0000 0.81968  0.45324  0.13450  Biso   1.000  C
  H160     1.0000 0.83340  0.43080  0.11500  Biso   1.000  H
  C215     1.0000 0.83851  0.48793  0.14290  Biso   1.000  C
  C216     1.0000 0.77935  0.51888  0.19150  Biso   1.000  C
  C217     1.0000 0.81836  0.52074  0.17140  Biso   1.000  C
  H161     1.0000 0.83120  0.54440  0.17710  Biso   1.000  H
  C218     1.0000 0.70210  0.51230  0.99930  Biso   1.000  C
  H162     1.0000 0.71620  0.53600  0.01140  Biso   1.000  H
  H163     1.0000 0.71760  0.49450  0.95280  Biso   1.000  H
  H164     1.0000 0.67840  0.51770  0.95630  Biso   1.000  H
  C219     1.0000 0.65359  0.48994  0.14160  Biso   1.000  C
  H165     1.0000 0.63590  0.49990  0.08580  Biso   1.000  H
  C220     1.0000 0.71834  0.47965  0.20360  Biso   1.000  C
  C221     1.0000 0.59940  0.47090  0.27110  Biso   1.000  C
  C222     1.0000 0.76050  0.48419  0.18300  Biso   1.000  C
  C223     1.0000 0.87990  0.48993  0.12150  Biso   1.000  C
  C224     1.0000 0.75800  0.55700  0.22340  Biso   1.000  C
  H166     1.0000 0.77660  0.57750  0.23350  Biso   1.000  H
  H167     1.0000 0.74040  0.56360  0.15900  Biso   1.000  H
  H168     1.0000 0.74370  0.55350  0.29750  Biso   1.000  H
  O85      1.0000 0.04007  0.89567  0.58440  Biso   1.000  O
  O86      1.0000 0.98503  0.03305  0.34750  Biso   1.000  O
  O87      1.0000 0.98040  0.89784  0.65530  Biso   1.000  O
  O88      1.0000 0.05216  0.59069  0.85350  Biso   1.000  O
  O89      1.0000 0.94220  0.98897  0.46180  Biso   1.000  O
  C225     1.0000 0.03921  0.70544  0.80480  Biso   1.000  C
  H169     1.0000 0.04920  0.72320  0.86050  Biso   1.000  H
  O90      1.0000 0.00378  0.57721  0.73080  Biso   1.000  O
  C226     1.0000 0.00579  0.69248  0.62210  Biso   1.000  C
  C227     1.0000 0.04347  0.66662  0.82420  Biso   1.000  C
  H170     1.0000 0.05630  0.65780  0.89320  Biso   1.000  H
  C228     1.0000 0.02888  0.64068  0.74250  Biso   1.000  C
  C229     1.0000 0.04862  0.78068  0.65460  Biso   1.000  C
  H171     1.0000 0.07230  0.76780  0.64890  Biso   1.000  H
  C230     1.0000 0.04676  0.81968  0.63450  Biso   1.000  C
  H172     1.0000 0.06920  0.83340  0.61500  Biso   1.000  H
  C231     1.0000 0.01207  0.83851  0.64290  Biso   1.000  C
  C232     1.0000 0.98112  0.77935  0.69150  Biso   1.000  C
  C233     1.0000 0.97926  0.81836  0.67140  Biso   1.000  C
  H173     1.0000 0.95560  0.83120  0.67710  Biso   1.000  H
  C234     1.0000 0.98770  0.70210  0.49930  Biso   1.000  C
  H174     1.0000 0.96400  0.71620  0.51140  Biso   1.000  H
  H175     1.0000 0.00550  0.71760  0.45280  Biso   1.000  H
  H176     1.0000 0.98230  0.67840  0.45630  Biso   1.000  H
  C235     1.0000 0.01006  0.65359  0.64160  Biso   1.000  C
  H177     1.0000 0.00010  0.63590  0.58580  Biso   1.000  H
  C236     1.0000 0.02035  0.71834  0.70360  Biso   1.000  C
  C237     1.0000 0.02910  0.59940  0.77110  Biso   1.000  C
  C238     1.0000 0.01581  0.76050  0.68300  Biso   1.000  C
  C239     1.0000 0.01007  0.87990  0.62150  Biso   1.000  C
  C240     1.0000 0.94300  0.75800  0.72340  Biso   1.000  C
  H178     1.0000 0.92250  0.77660  0.73350  Biso   1.000  H
  H179     1.0000 0.93640  0.74040  0.65900  Biso   1.000  H
  H180     1.0000 0.94650  0.74370  0.79750  Biso   1.000  H
  O91      1.0000 0.45993  0.60433  0.58440  Biso   1.000  O
  O92      1.0000 0.51497  0.46695  0.34750  Biso   1.000  O
  O93      1.0000 0.51960  0.60216  0.65530  Biso   1.000  O
  O94      1.0000 0.44784  0.90931  0.85350  Biso   1.000  O
  O95      1.0000 0.55780  0.51103  0.46180  Biso   1.000  O
  C241     1.0000 0.46079  0.79456  0.80480  Biso   1.000  C
  H181     1.0000 0.45080  0.77680  0.86050  Biso   1.000  H
  O96      1.0000 0.49622  0.92279  0.73080  Biso   1.000  O
  C242     1.0000 0.49421  0.80752  0.62210  Biso   1.000  C
  C243     1.0000 0.45653  0.83338  0.82420  Biso   1.000  C
  H182     1.0000 0.44370  0.84220  0.89320  Biso   1.000  H
  C244     1.0000 0.47112  0.85932  0.74250  Biso   1.000  C
  C245     1.0000 0.45138  0.71932  0.65460  Biso   1.000  C
  H183     1.0000 0.42770  0.73220  0.64890  Biso   1.000  H
  C246     1.0000 0.45324  0.68032  0.63450  Biso   1.000  C
  H184     1.0000 0.43080  0.66660  0.61500  Biso   1.000  H
  C247     1.0000 0.48793  0.66149  0.64290  Biso   1.000  C
  C248     1.0000 0.51888  0.72065  0.69150  Biso   1.000  C
  C249     1.0000 0.52074  0.68164  0.67140  Biso   1.000  C
  H185     1.0000 0.54440  0.66880  0.67710  Biso   1.000  H
  C250     1.0000 0.51230  0.79790  0.49930  Biso   1.000  C
  H186     1.0000 0.53600  0.78380  0.51140  Biso   1.000  H
  H187     1.0000 0.49450  0.78240  0.45280  Biso   1.000  H
  H188     1.0000 0.51770  0.82160  0.45630  Biso   1.000  H
  C251     1.0000 0.48994  0.84641  0.64160  Biso   1.000  C
  H189     1.0000 0.49990  0.86410  0.58580  Biso   1.000  H
  C252     1.0000 0.47965  0.78166  0.70360  Biso   1.000  C
  C253     1.0000 0.47090  0.90060  0.77110  Biso   1.000  C
  C254     1.0000 0.48419  0.73950  0.68300  Biso   1.000  C
  C255     1.0000 0.48993  0.62010  0.62150  Biso   1.000  C
  C256     1.0000 0.55700  0.74200  0.72340  Biso   1.000  C
  H190     1.0000 0.57750  0.72340  0.73350  Biso   1.000  H
  H191     1.0000 0.56360  0.75960  0.65900  Biso   1.000  H
  H192     1.0000 0.55350  0.75630  0.79750  Biso   1.000  H
  Zr1      1.0000 0.45058  0.54942  0.50000  Biso   1.000  Zr
  Zr2      1.0000 0.04942  0.95058  0.50000  Biso   1.000  Zr
  Zr3      1.0000 0.95058  0.45058  0.00000  Biso   1.000  Zr
  Zr4      1.0000 0.54942  0.04942  0.00000  Biso   1.000  Zr
  Zr5      1.0000 0.54942  0.45058  0.50000  Biso   1.000  Zr
  Zr6      1.0000 0.95058  0.04942  0.50000  Biso   1.000  Zr
  Zr7      1.0000 0.04942  0.54942  0.00000  Biso   1.000  Zr
  Zr8      1.0000 0.45058  0.95058  0.00000  Biso   1.000  Zr
  Zr9      1.0000 0.54369  0.54369  0.61240  Biso   1.000  Zr
  Zr10     1.0000 0.52536  0.52536  0.30905  Biso   1.000  Zr
  Zr11     1.0000 0.95631  0.95631  0.61240  Biso   1.000  Zr
  Zr12     1.0000 0.97464  0.97464  0.30905  Biso   1.000  Zr
  Zr13     1.0000 0.95631  0.54369  0.11240  Biso   1.000  Zr
  Zr14     1.0000 0.97464  0.52536  0.80905  Biso   1.000  Zr
  Zr15     1.0000 0.54369  0.95631  0.11240  Biso   1.000  Zr
  Zr16     1.0000 0.52536  0.97464  0.80905  Biso   1.000  Zr
  Zr17     1.0000 0.45631  0.04369  0.88760  Biso   1.000  Zr
  Zr18     1.0000 0.47464  0.02536  0.19095  Biso   1.000  Zr
  Zr19     1.0000 0.04369  0.45631  0.88760  Biso   1.000  Zr
  Zr20     1.0000 0.02536  0.47464  0.19095  Biso   1.000  Zr
  Zr21     1.0000 0.04369  0.04369  0.38760  Biso   1.000  Zr
  Zr22     1.0000 0.02536  0.02536  0.69095  Biso   1.000  Zr
  Zr23     1.0000 0.45631  0.45631  0.38760  Biso   1.000  Zr
  Zr24     1.0000 0.47464  0.47464  0.69095  Biso   1.000  Zr
