data_image0
_cell_length_a       15.6825
_cell_length_b       39.503
_cell_length_c       17.2763
_cell_angle_alpha    90
_cell_angle_beta     93.791
_cell_angle_gamma    90

_symmetry_space_group_name_H-M    "P 1"
_symmetry_int_tables_number       1

loop_
  _symmetry_equiv_pos_as_xyz
  'x, y, z'

loop_
  _atom_site_label
  _atom_site_occupancy
  _atom_site_fract_x
  _atom_site_fract_y
  _atom_site_fract_z
  _atom_site_thermal_displace_type
  _atom_site_B_iso_or_equiv
  _atom_site_type_symbol
  Mo1      1.0000 0.79250  0.58429  0.97951  Biso   1.000  Mo
  Mo2      1.0000 0.83229  0.62991  0.08517  Biso   1.000  Mo
  O1       1.0000 0.74440  0.62880  0.00140  Biso   1.000  O
  O2       1.0000 0.69610  0.57960  0.89170  Biso   1.000  O
  O3       1.0000 0.85410  0.58150  0.08050  Biso   1.000  O
  O4       1.0000 0.80310  0.53200  0.96690  Biso   1.000  O
  O5       1.0000 0.68620  0.56790  0.04720  Biso   1.000  O
  O6       1.0000 0.71360  0.60910  0.15710  Biso   1.000  O
  O7       1.0000 0.88480  0.62930  0.19460  Biso   1.000  O
  O8       1.0000 0.78200  0.67600  0.11500  Biso   1.000  O
  Co1      1.0000 0.64095  0.65730  0.97130  Biso   1.000  Co
  P1       1.0000 0.64400  0.60042  0.83220  Biso   1.000  P
  Co2      1.0000 0.88027  0.54585  0.16409  Biso   1.000  Co
  P2       1.0000 0.85090  0.50114  0.99930  Biso   1.000  P
  P3       1.0000 0.68610  0.57171  0.13500  Biso   1.000  P
  Mo3      1.0000 0.65877  0.63032  0.27394  Biso   1.000  Mo
  P4       1.0000 0.86930  0.61428  0.27430  Biso   1.000  P
  P5       1.0000 0.69380  0.68736  0.13940  Biso   1.000  P
  O9       1.0000 0.60430  0.63160  0.86970  Biso   1.000  O
  O10      1.0000 0.62330  0.67440  0.08470  Biso   1.000  O
  O11      1.0000 0.54310  0.68810  0.92940  Biso   1.000  O
  N1       1.0000 0.22700  0.80670  0.42380  Biso   1.000  N
  O12      1.0000 0.57940  0.57810  0.79020  Biso   1.000  O
  O13      1.0000 0.70550  0.61430  0.77130  Biso   1.000  O
  O14      1.0000 0.87430  0.50470  0.08780  Biso   1.000  O
  O15      1.0000 0.74400  0.54320  0.17800  Biso   1.000  O
  O16      1.0000 0.92910  0.50520  0.23330  Biso   1.000  O
  O17      1.0000 0.86120  0.57510  0.26770  Biso   1.000  O
  O18      1.0000 0.79330  0.47120  0.98220  Biso   1.000  O
  O19      1.0000 0.93410  0.49610  0.95840  Biso   1.000  O
  O20      1.0000 0.59180  0.56720  0.15140  Biso   1.000  O
  O21      1.0000 0.78660  0.62850  0.30530  Biso   1.000  O
  Mo4      1.0000 0.53600  0.58621  0.25648  Biso   1.000  Mo
  O22      1.0000 0.65450  0.58280  0.29880  Biso   1.000  O
  O23      1.0000 0.55420  0.63060  0.20930  Biso   1.000  O
  O24      1.0000 0.68580  0.67650  0.22440  Biso   1.000  O
  O25      1.0000 0.94290  0.62240  0.33170  Biso   1.000  O
  O26      1.0000 0.68890  0.72720  0.13680  Biso   1.000  O
  Co3      1.0000 0.48335  0.65662  0.84650  Biso   1.000  Co
  Co4      1.0000 0.50460  0.65829  0.11820  Biso   1.000  Co
  P6       1.0000 0.49630  0.71258  0.98340  Biso   1.000  P
  Mo5      1.0000 0.46323  0.57830  0.72573  Biso   1.000  Mo
  H1       1.0000 0.72790  0.59840  0.75000  Biso   1.000  H
  Co5      1.0000 0.87795  0.46583  0.17013  Biso   1.000  Co
  Co6      1.0000 0.74970  0.54654  0.30920  Biso   1.000  Co
  P7       1.0000 0.92760  0.50537  0.32320  Biso   1.000  P
  Mo6      1.0000 0.79235  0.41869  0.99732  Biso   1.000  Mo
  O27      1.0000 0.52340  0.53490  0.27040  Biso   1.000  O
  O28      1.0000 0.42790  0.58140  0.18290  Biso   1.000  O
  H2       1.0000 0.94800  0.64300  0.33580  Biso   1.000  H
  H3       1.0000 0.64980  0.73310  0.10590  Biso   1.000  H
  O29      1.0000 0.44400  0.62500  0.75930  Biso   1.000  O
  O30      1.0000 0.41900  0.62150  0.92500  Biso   1.000  O
  O31      1.0000 0.35960  0.68090  0.87340  Biso   1.000  O
  N2       1.0000 0.53140  0.69030  0.76390  Biso   1.000  N
  O32      1.0000 0.38790  0.63370  0.10150  Biso   1.000  O
  O33      1.0000 0.44580  0.68970  0.03340  Biso   1.000  O
  N3       1.0000 0.45990  0.69340  0.20100  Biso   1.000  N
  O34      1.0000 0.43460  0.73540  0.93140  Biso   1.000  O
  O35      1.0000 0.55460  0.73710  0.02960  Biso   1.000  O
  O36      1.0000 0.47370  0.52640  0.72440  Biso   1.000  O
  Mo7      1.0000 0.33502  0.61974  0.70052  Biso   1.000  Mo
  O37      1.0000 0.42010  0.56800  0.83830  Biso   1.000  O
  O38      1.0000 0.34280  0.57050  0.69320  Biso   1.000  O
  O39      1.0000 0.85000  0.42590  0.09810  Biso   1.000  O
  O40      1.0000 0.84440  0.43940  0.26890  Biso   1.000  O
  O41      1.0000 0.83260  0.50670  0.34160  Biso   1.000  O
  O42      1.0000 0.65900  0.50540  0.32020  Biso   1.000  O
  O43      1.0000 0.97910  0.47680  0.36070  Biso   1.000  O
  O44      1.0000 0.97390  0.53760  0.35600  Biso   1.000  O
  Mo8      1.0000 0.83685  0.37753  0.11124  Biso   1.000  Mo
  O45      1.0000 0.75400  0.37260  0.02420  Biso   1.000  O
  O46      1.0000 0.70490  0.41940  0.90590  Biso   1.000  O
  O47      1.0000 0.67740  0.43170  0.05690  Biso   1.000  O
  P8       1.0000 0.56190  0.50466  0.31510  Biso   1.000  P
  P9       1.0000 0.35460  0.60323  0.14560  Biso   1.000  P
  Co7      1.0000 0.34786  0.65816  0.99200  Biso   1.000  Co
  P10      1.0000 0.36450  0.59143  0.88240  Biso   1.000  P
  P11      1.0000 0.28380  0.68386  0.81460  Biso   1.000  P
  C1       1.0000 0.57390  0.68040  0.70560  Biso   1.000  C
  C2       1.0000 0.53600  0.72450  0.77600  Biso   1.000  C
  C3       1.0000 0.41680  0.68410  0.26260  Biso   1.000  C
  C4       1.0000 0.45900  0.72730  0.18800  Biso   1.000  C
  H4       1.0000 0.40140  0.72340  0.90500  Biso   1.000  H
  H5       1.0000 0.58950  0.72650  0.05740  Biso   1.000  H
  O48      1.0000 0.30280  0.66640  0.73800  Biso   1.000  O
  O49      1.0000 0.29060  0.60620  0.82650  Biso   1.000  O
  O50      1.0000 0.20480  0.61490  0.66900  Biso   1.000  O
  Co8      1.0000 0.25270  0.53346  0.68283  Biso   1.000  Co
  P12      1.0000 0.86900  0.40319  0.29350  Biso   1.000  P
  H6       1.0000 0.95770  0.45860  0.34690  Biso   1.000  H
  H7       1.0000 0.95040  0.55450  0.33690  Biso   1.000  H
  O51      1.0000 0.79430  0.33190  0.14950  Biso   1.000  O
  O52      1.0000 0.89350  0.38330  0.22160  Biso   1.000  O
  O53      1.0000 0.52920  0.50370  0.39850  Biso   1.000  O
  O54      1.0000 0.30450  0.61750  0.21160  Biso   1.000  O
  N4       1.0000 0.76330  0.80590  0.53900  Biso   1.000  N
  O55      1.0000 0.26570  0.72130  0.79940  Biso   1.000  O
  C5       1.0000 0.62300  0.70100  0.66350  Biso   1.000  C
  H8       1.0000 0.57010  0.65760  0.69160  Biso   1.000  H
  H9       1.0000 0.50780  0.73370  0.81650  Biso   1.000  H
  C6       1.0000 0.57900  0.74550  0.73160  Biso   1.000  C
  H10      1.0000 0.41610  0.66120  0.27490  Biso   1.000  H
  C7       1.0000 0.37630  0.70440  0.30600  Biso   1.000  C
  C8       1.0000 0.41590  0.75140  0.23020  Biso   1.000  C
  H11      1.0000 0.49010  0.73520  0.14700  Biso   1.000  H
  N5       1.0000 0.24500  0.54340  0.56250  Biso   1.000  N
  O56      1.0000 0.94460  0.40280  0.35370  Biso   1.000  O
  H12      1.0000 0.55170  0.51900  0.42450  Biso   1.000  H
  H13      1.0000 0.26490  0.62920  0.19330  Biso   1.000  H
  H14      1.0000 0.30690  0.73000  0.78040  Biso   1.000  H
  C9       1.0000 0.62710  0.73510  0.67450  Biso   1.000  C
  H15      1.0000 0.65570  0.69130  0.62600  Biso   1.000  H
  H16      1.0000 0.57460  0.76860  0.74070  Biso   1.000  H
  C10      1.0000 0.37140  0.73860  0.29070  Biso   1.000  C
  H17      1.0000 0.35000  0.69580  0.34840  Biso   1.000  H
  H18      1.0000 0.41700  0.77440  0.21870  Biso   1.000  H
  C11      1.0000 0.31930  0.54630  0.52710  Biso   1.000  C
  C12      1.0000 0.17460  0.53450  0.51850  Biso   1.000  C
  H19      1.0000 0.96150  0.42220  0.36170  Biso   1.000  H
  C13      1.0000 0.67300  0.75960  0.62810  Biso   1.000  C
  C14      1.0000 0.32520  0.76210  0.33880  Biso   1.000  C
  H20      1.0000 0.36900  0.55260  0.55590  Biso   1.000  H
  C15      1.0000 0.32200  0.54000  0.44710  Biso   1.000  C
  C16      1.0000 0.17570  0.52730  0.43950  Biso   1.000  C
  H21      1.0000 0.12290  0.53300  0.54180  Biso   1.000  H
  C17      1.0000 0.66400  0.79440  0.63990  Biso   1.000  C
  C18      1.0000 0.72600  0.74790  0.57400  Biso   1.000  C
  C19      1.0000 0.33560  0.79680  0.33400  Biso   1.000  C
  C20      1.0000 0.26370  0.75100  0.38600  Biso   1.000  C
  C21      1.0000 0.25370  0.52890  0.40260  Biso   1.000  C
  H22      1.0000 0.37300  0.54360  0.42390  Biso   1.000  H
  H23      1.0000 0.12540  0.52140  0.41110  Biso   1.000  H
  C22      1.0000 0.70900  0.81600  0.58960  Biso   1.000  C
  H24      1.0000 0.63110  0.80310  0.67810  Biso   1.000  H
  C23      1.0000 0.76710  0.77250  0.52600  Biso   1.000  C
  H25      1.0000 0.73470  0.72480  0.56800  Biso   1.000  H
  C24      1.0000 0.28740  0.81800  0.37990  Biso   1.000  C
  H26      1.0000 0.37390  0.80600  0.30110  Biso   1.000  H
  C25      1.0000 0.21690  0.77410  0.42800  Biso   1.000  C
  H27      1.0000 0.25310  0.72790  0.39010  Biso   1.000  H
  H28      1.0000 0.69940  0.83920  0.59290  Biso   1.000  H
  H29      1.0000 0.79740  0.76470  0.48560  Biso   1.000  H
  H30      1.0000 0.29840  0.84110  0.37940  Biso   1.000  H
  H31      1.0000 0.17680  0.76570  0.46020  Biso   1.000  H
  H32      1.0000 0.97520  0.49910  0.98960  Biso   1.000  H
  Mo9      1.0000 0.70750  0.08429  0.52049  Biso   1.000  Mo
  Mo10     1.0000 0.66771  0.12991  0.41483  Biso   1.000  Mo
  O57      1.0000 0.75560  0.12880  0.49860  Biso   1.000  O
  O58      1.0000 0.80390  0.07960  0.60830  Biso   1.000  O
  O59      1.0000 0.64590  0.08150  0.41950  Biso   1.000  O
  O60      1.0000 0.69690  0.03200  0.53310  Biso   1.000  O
  O61      1.0000 0.81380  0.06790  0.45280  Biso   1.000  O
  O62      1.0000 0.78640  0.10910  0.34290  Biso   1.000  O
  O63      1.0000 0.61520  0.12930  0.30540  Biso   1.000  O
  O64      1.0000 0.71800  0.17600  0.38500  Biso   1.000  O
  Co9      1.0000 0.85905  0.15730  0.52870  Biso   1.000  Co
  P13      1.0000 0.85600  0.10042  0.66780  Biso   1.000  P
  Co10     1.0000 0.61973  0.04585  0.33591  Biso   1.000  Co
  P14      1.0000 0.64910  0.00114  0.50070  Biso   1.000  P
  P15      1.0000 0.81390  0.07171  0.36500  Biso   1.000  P
  Mo11     1.0000 0.84123  0.13032  0.22606  Biso   1.000  Mo
  P16      1.0000 0.63070  0.11428  0.22570  Biso   1.000  P
  P17      1.0000 0.80620  0.18736  0.36060  Biso   1.000  P
  O65      1.0000 0.89570  0.13160  0.63030  Biso   1.000  O
  O66      1.0000 0.87670  0.17440  0.41530  Biso   1.000  O
  O67      1.0000 0.95690  0.18810  0.57060  Biso   1.000  O
  N6       1.0000 0.27300  0.30670  0.07620  Biso   1.000  N
  O68      1.0000 0.92060  0.07810  0.70980  Biso   1.000  O
  O69      1.0000 0.79450  0.11430  0.72870  Biso   1.000  O
  O70      1.0000 0.62570  0.00470  0.41220  Biso   1.000  O
  O71      1.0000 0.75600  0.04320  0.32200  Biso   1.000  O
  O72      1.0000 0.57090  0.00520  0.26670  Biso   1.000  O
  O73      1.0000 0.63880  0.07510  0.23230  Biso   1.000  O
  O74      1.0000 0.70670  0.97120  0.51780  Biso   1.000  O
  O75      1.0000 0.56590  0.99610  0.54160  Biso   1.000  O
  O76      1.0000 0.90820  0.06720  0.34860  Biso   1.000  O
  O77      1.0000 0.71340  0.12850  0.19470  Biso   1.000  O
  Mo12     1.0000 0.96400  0.08621  0.24352  Biso   1.000  Mo
  O78      1.0000 0.84550  0.08280  0.20120  Biso   1.000  O
  O79      1.0000 0.94580  0.13060  0.29070  Biso   1.000  O
  O80      1.0000 0.81420  0.17650  0.27560  Biso   1.000  O
  O81      1.0000 0.55710  0.12240  0.16830  Biso   1.000  O
  O82      1.0000 0.81110  0.22720  0.36320  Biso   1.000  O
  Co11     1.0000 0.01665  0.15662  0.65350  Biso   1.000  Co
  Co12     1.0000 0.99540  0.15829  0.38180  Biso   1.000  Co
  P18      1.0000 0.00370  0.21258  0.51660  Biso   1.000  P
  Mo13     1.0000 0.03677  0.07830  0.77427  Biso   1.000  Mo
  H33      1.0000 0.77210  0.09840  0.75000  Biso   1.000  H
  Co13     1.0000 0.62205  0.96583  0.32987  Biso   1.000  Co
  Co14     1.0000 0.75030  0.04654  0.19080  Biso   1.000  Co
  P19      1.0000 0.57240  0.00537  0.17680  Biso   1.000  P
  Mo14     1.0000 0.70765  0.91869  0.50268  Biso   1.000  Mo
  O83      1.0000 0.97660  0.03490  0.22960  Biso   1.000  O
  O84      1.0000 0.07210  0.08140  0.31710  Biso   1.000  O
  H34      1.0000 0.55200  0.14300  0.16420  Biso   1.000  H
  H35      1.0000 0.85020  0.23310  0.39410  Biso   1.000  H
  O85      1.0000 0.05600  0.12500  0.74070  Biso   1.000  O
  O86      1.0000 0.08100  0.12150  0.57500  Biso   1.000  O
  O87      1.0000 0.14040  0.18090  0.62660  Biso   1.000  O
  N7       1.0000 0.96860  0.19030  0.73610  Biso   1.000  N
  O88      1.0000 0.11210  0.13370  0.39850  Biso   1.000  O
  O89      1.0000 0.05420  0.18970  0.46660  Biso   1.000  O
  N8       1.0000 0.04010  0.19340  0.29900  Biso   1.000  N
  O90      1.0000 0.06540  0.23540  0.56860  Biso   1.000  O
  O91      1.0000 0.94540  0.23710  0.47040  Biso   1.000  O
  O92      1.0000 0.02630  0.02640  0.77560  Biso   1.000  O
  Mo15     1.0000 0.16498  0.11974  0.79948  Biso   1.000  Mo
  O93      1.0000 0.07990  0.06800  0.66170  Biso   1.000  O
  O94      1.0000 0.15720  0.07050  0.80680  Biso   1.000  O
  O95      1.0000 0.65000  0.92590  0.40190  Biso   1.000  O
  O96      1.0000 0.65560  0.93940  0.23110  Biso   1.000  O
  O97      1.0000 0.66740  0.00670  0.15840  Biso   1.000  O
  O98      1.0000 0.84100  0.00540  0.17980  Biso   1.000  O
  O99      1.0000 0.52090  0.97680  0.13930  Biso   1.000  O
  O100     1.0000 0.52610  0.03760  0.14400  Biso   1.000  O
  Mo16     1.0000 0.66315  0.87753  0.38876  Biso   1.000  Mo
  O101     1.0000 0.74600  0.87260  0.47580  Biso   1.000  O
  O102     1.0000 0.79510  0.91940  0.59410  Biso   1.000  O
  O103     1.0000 0.82260  0.93170  0.44310  Biso   1.000  O
  P20      1.0000 0.93810  0.00466  0.18490  Biso   1.000  P
  P21      1.0000 0.14540  0.10323  0.35440  Biso   1.000  P
  Co15     1.0000 0.15214  0.15816  0.50800  Biso   1.000  Co
  P22      1.0000 0.13550  0.09143  0.61760  Biso   1.000  P
  P23      1.0000 0.21620  0.18386  0.68540  Biso   1.000  P
  C26      1.0000 0.92610  0.18040  0.79440  Biso   1.000  C
  C27      1.0000 0.96400  0.22450  0.72400  Biso   1.000  C
  C28      1.0000 0.08320  0.18410  0.23740  Biso   1.000  C
  C29      1.0000 0.04100  0.22730  0.31200  Biso   1.000  C
  H36      1.0000 0.09860  0.22340  0.59500  Biso   1.000  H
  H37      1.0000 0.91050  0.22650  0.44260  Biso   1.000  H
  O104     1.0000 0.19720  0.16640  0.76200  Biso   1.000  O
  O105     1.0000 0.20940  0.10620  0.67350  Biso   1.000  O
  O106     1.0000 0.29520  0.11490  0.83100  Biso   1.000  O
  Co16     1.0000 0.24730  0.03346  0.81717  Biso   1.000  Co
  P24      1.0000 0.63100  0.90319  0.20650  Biso   1.000  P
  H38      1.0000 0.54230  0.95860  0.15310  Biso   1.000  H
  H39      1.0000 0.54960  0.05450  0.16310  Biso   1.000  H
  O107     1.0000 0.70570  0.83190  0.35050  Biso   1.000  O
  O108     1.0000 0.60650  0.88330  0.27840  Biso   1.000  O
  O109     1.0000 0.97080  0.00370  0.10150  Biso   1.000  O
  O110     1.0000 0.19550  0.11750  0.28840  Biso   1.000  O
  N9       1.0000 0.73670  0.30590  0.96100  Biso   1.000  N
  O111     1.0000 0.23430  0.22130  0.70060  Biso   1.000  O
  C30      1.0000 0.87700  0.20100  0.83650  Biso   1.000  C
  H40      1.0000 0.92990  0.15760  0.80840  Biso   1.000  H
  H41      1.0000 0.99220  0.23370  0.68350  Biso   1.000  H
  C31      1.0000 0.92100  0.24550  0.76840  Biso   1.000  C
  H42      1.0000 0.08390  0.16120  0.22510  Biso   1.000  H
  C32      1.0000 0.12370  0.20440  0.19400  Biso   1.000  C
  C33      1.0000 0.08410  0.25140  0.26980  Biso   1.000  C
  H43      1.0000 0.00990  0.23520  0.35300  Biso   1.000  H
  N10      1.0000 0.25500  0.04340  0.93750  Biso   1.000  N
  O112     1.0000 0.55540  0.90280  0.14630  Biso   1.000  O
  H44      1.0000 0.94830  0.01900  0.07550  Biso   1.000  H
  H45      1.0000 0.23510  0.12920  0.30670  Biso   1.000  H
  H46      1.0000 0.19310  0.23000  0.71960  Biso   1.000  H
  C34      1.0000 0.87290  0.23510  0.82550  Biso   1.000  C
  H47      1.0000 0.84430  0.19130  0.87400  Biso   1.000  H
  H48      1.0000 0.92540  0.26860  0.75930  Biso   1.000  H
  C35      1.0000 0.12860  0.23860  0.20930  Biso   1.000  C
  H49      1.0000 0.15000  0.19580  0.15160  Biso   1.000  H
  H50      1.0000 0.08300  0.27440  0.28130  Biso   1.000  H
  C36      1.0000 0.18070  0.04630  0.97290  Biso   1.000  C
  C37      1.0000 0.32540  0.03450  0.98150  Biso   1.000  C
  H51      1.0000 0.53850  0.92220  0.13830  Biso   1.000  H
  C38      1.0000 0.82700  0.25960  0.87190  Biso   1.000  C
  C39      1.0000 0.17480  0.26210  0.16120  Biso   1.000  C
  H52      1.0000 0.13100  0.05260  0.94410  Biso   1.000  H
  C40      1.0000 0.17800  0.04000  0.05290  Biso   1.000  C
  C41      1.0000 0.32430  0.02730  0.06050  Biso   1.000  C
  H53      1.0000 0.37710  0.03300  0.95820  Biso   1.000  H
  C42      1.0000 0.83600  0.29440  0.86010  Biso   1.000  C
  C43      1.0000 0.77400  0.24790  0.92600  Biso   1.000  C
  C44      1.0000 0.16440  0.29680  0.16600  Biso   1.000  C
  C45      1.0000 0.23630  0.25100  0.11400  Biso   1.000  C
  C46      1.0000 0.24630  0.02890  0.09740  Biso   1.000  C
  H54      1.0000 0.12700  0.04360  0.07610  Biso   1.000  H
  H55      1.0000 0.37460  0.02140  0.08890  Biso   1.000  H
  C47      1.0000 0.79100  0.31600  0.91040  Biso   1.000  C
  H56      1.0000 0.86890  0.30310  0.82190  Biso   1.000  H
  C48      1.0000 0.73290  0.27250  0.97400  Biso   1.000  C
  H57      1.0000 0.76530  0.22480  0.93200  Biso   1.000  H
  C49      1.0000 0.21260  0.31800  0.12010  Biso   1.000  C
  H58      1.0000 0.12610  0.30600  0.19890  Biso   1.000  H
  C50      1.0000 0.28310  0.27410  0.07200  Biso   1.000  C
  H59      1.0000 0.24690  0.22790  0.10990  Biso   1.000  H
  H60      1.0000 0.80060  0.33920  0.90710  Biso   1.000  H
  H61      1.0000 0.70260  0.26470  0.01440  Biso   1.000  H
  H62      1.0000 0.20160  0.34110  0.12060  Biso   1.000  H
  H63      1.0000 0.32320  0.26570  0.03980  Biso   1.000  H
  H64      1.0000 0.52480  0.99910  0.51040  Biso   1.000  H
  Mo17     1.0000 0.20750  0.41571  0.02049  Biso   1.000  Mo
  Mo18     1.0000 0.16771  0.37009  0.91483  Biso   1.000  Mo
  O113     1.0000 0.25560  0.37120  0.99860  Biso   1.000  O
  O114     1.0000 0.30390  0.42040  0.10830  Biso   1.000  O
  O115     1.0000 0.14590  0.41850  0.91950  Biso   1.000  O
  O116     1.0000 0.19690  0.46800  0.03310  Biso   1.000  O
  O117     1.0000 0.31380  0.43210  0.95280  Biso   1.000  O
  O118     1.0000 0.28640  0.39090  0.84290  Biso   1.000  O
  O119     1.0000 0.11520  0.37070  0.80540  Biso   1.000  O
  O120     1.0000 0.21800  0.32400  0.88500  Biso   1.000  O
  Co17     1.0000 0.35905  0.34270  0.02870  Biso   1.000  Co
  P25      1.0000 0.35600  0.39958  0.16780  Biso   1.000  P
  Co18     1.0000 0.11973  0.45415  0.83591  Biso   1.000  Co
  P26      1.0000 0.14910  0.49886  0.00070  Biso   1.000  P
  P27      1.0000 0.31390  0.42829  0.86500  Biso   1.000  P
  Mo19     1.0000 0.34123  0.36968  0.72606  Biso   1.000  Mo
  P28      1.0000 0.13070  0.38572  0.72570  Biso   1.000  P
  P29      1.0000 0.30620  0.31264  0.86060  Biso   1.000  P
  O121     1.0000 0.39570  0.36840  0.13030  Biso   1.000  O
  O122     1.0000 0.37670  0.32560  0.91530  Biso   1.000  O
  O123     1.0000 0.45690  0.31190  0.07060  Biso   1.000  O
  N11      1.0000 0.77300  0.19330  0.57620  Biso   1.000  N
  O124     1.0000 0.42060  0.42190  0.20980  Biso   1.000  O
  O125     1.0000 0.29450  0.38570  0.22870  Biso   1.000  O
  O126     1.0000 0.12570  0.49530  0.91220  Biso   1.000  O
  O127     1.0000 0.25600  0.45680  0.82200  Biso   1.000  O
  O128     1.0000 0.07090  0.49480  0.76670  Biso   1.000  O
  O129     1.0000 0.13880  0.42490  0.73230  Biso   1.000  O
  O130     1.0000 0.20670  0.52880  0.01780  Biso   1.000  O
  O131     1.0000 0.06590  0.50390  0.04160  Biso   1.000  O
  O132     1.0000 0.40820  0.43280  0.84860  Biso   1.000  O
  O133     1.0000 0.21340  0.37150  0.69470  Biso   1.000  O
  Mo20     1.0000 0.46400  0.41379  0.74352  Biso   1.000  Mo
  O134     1.0000 0.34550  0.41720  0.70120  Biso   1.000  O
  O135     1.0000 0.44580  0.36940  0.79070  Biso   1.000  O
  O136     1.0000 0.31420  0.32350  0.77560  Biso   1.000  O
  O137     1.0000 0.05710  0.37760  0.66830  Biso   1.000  O
  O138     1.0000 0.31110  0.27280  0.86320  Biso   1.000  O
  Co19     1.0000 0.51665  0.34338  0.15350  Biso   1.000  Co
  Co20     1.0000 0.49540  0.34171  0.88180  Biso   1.000  Co
  P30      1.0000 0.50370  0.28742  0.01660  Biso   1.000  P
  Mo21     1.0000 0.53677  0.42170  0.27427  Biso   1.000  Mo
  H65      1.0000 0.27210  0.40160  0.25000  Biso   1.000  H
  Co21     1.0000 0.12205  0.53417  0.82987  Biso   1.000  Co
  Co22     1.0000 0.25030  0.45346  0.69080  Biso   1.000  Co
  P31      1.0000 0.07240  0.49463  0.67680  Biso   1.000  P
  Mo22     1.0000 0.20765  0.58131  0.00268  Biso   1.000  Mo
  O139     1.0000 0.47660  0.46510  0.72960  Biso   1.000  O
  O140     1.0000 0.57210  0.41860  0.81710  Biso   1.000  O
  H66      1.0000 0.05200  0.35700  0.66420  Biso   1.000  H
  H67      1.0000 0.35020  0.26690  0.89410  Biso   1.000  H
  O141     1.0000 0.55600  0.37500  0.24070  Biso   1.000  O
  O142     1.0000 0.58100  0.37850  0.07500  Biso   1.000  O
  O143     1.0000 0.64040  0.31910  0.12660  Biso   1.000  O
  N12      1.0000 0.46860  0.30970  0.23610  Biso   1.000  N
  O144     1.0000 0.61210  0.36630  0.89850  Biso   1.000  O
  O145     1.0000 0.55420  0.31030  0.96660  Biso   1.000  O
  N13      1.0000 0.54010  0.30660  0.79900  Biso   1.000  N
  O146     1.0000 0.56540  0.26460  0.06860  Biso   1.000  O
  O147     1.0000 0.44540  0.26290  0.97040  Biso   1.000  O
  O148     1.0000 0.52630  0.47360  0.27560  Biso   1.000  O
  Mo23     1.0000 0.66498  0.38026  0.29948  Biso   1.000  Mo
  O149     1.0000 0.57990  0.43200  0.16170  Biso   1.000  O
  O150     1.0000 0.65720  0.42950  0.30680  Biso   1.000  O
  O151     1.0000 0.15000  0.57410  0.90190  Biso   1.000  O
  O152     1.0000 0.15560  0.56060  0.73110  Biso   1.000  O
  O153     1.0000 0.16740  0.49330  0.65840  Biso   1.000  O
  O154     1.0000 0.34100  0.49460  0.67980  Biso   1.000  O
  O155     1.0000 0.02090  0.52320  0.63930  Biso   1.000  O
  O156     1.0000 0.02610  0.46240  0.64400  Biso   1.000  O
  Mo24     1.0000 0.16315  0.62247  0.88876  Biso   1.000  Mo
  O157     1.0000 0.24600  0.62740  0.97580  Biso   1.000  O
  O158     1.0000 0.29510  0.58060  0.09410  Biso   1.000  O
  O159     1.0000 0.32260  0.56830  0.94310  Biso   1.000  O
  P32      1.0000 0.43810  0.49534  0.68490  Biso   1.000  P
  P33      1.0000 0.64540  0.39677  0.85440  Biso   1.000  P
  Co23     1.0000 0.65214  0.34184  0.00800  Biso   1.000  Co
  P34      1.0000 0.63550  0.40857  0.11760  Biso   1.000  P
  P35      1.0000 0.71620  0.31614  0.18540  Biso   1.000  P
  C51      1.0000 0.42610  0.31960  0.29440  Biso   1.000  C
  C52      1.0000 0.46400  0.27550  0.22400  Biso   1.000  C
  C53      1.0000 0.58320  0.31590  0.73740  Biso   1.000  C
  C54      1.0000 0.54100  0.27270  0.81200  Biso   1.000  C
  H68      1.0000 0.59860  0.27660  0.09500  Biso   1.000  H
  H69      1.0000 0.41050  0.27350  0.94260  Biso   1.000  H
  O160     1.0000 0.69720  0.33360  0.26200  Biso   1.000  O
  O161     1.0000 0.70940  0.39380  0.17350  Biso   1.000  O
  O162     1.0000 0.79520  0.38510  0.33100  Biso   1.000  O
  Co24     1.0000 0.74730  0.46654  0.31717  Biso   1.000  Co
  P36      1.0000 0.13100  0.59681  0.70650  Biso   1.000  P
  H70      1.0000 0.04230  0.54140  0.65310  Biso   1.000  H
  H71      1.0000 0.04960  0.44550  0.66310  Biso   1.000  H
  O163     1.0000 0.20570  0.66810  0.85050  Biso   1.000  O
  O164     1.0000 0.10650  0.61670  0.77840  Biso   1.000  O
  O165     1.0000 0.47080  0.49630  0.60150  Biso   1.000  O
  O166     1.0000 0.69550  0.38250  0.78840  Biso   1.000  O
  N14      1.0000 0.23670  0.19410  0.46100  Biso   1.000  N
  O167     1.0000 0.73430  0.27870  0.20060  Biso   1.000  O
  C55      1.0000 0.37700  0.29900  0.33650  Biso   1.000  C
  H72      1.0000 0.42990  0.34240  0.30840  Biso   1.000  H
  H73      1.0000 0.49220  0.26630  0.18350  Biso   1.000  H
  C56      1.0000 0.42100  0.25450  0.26840  Biso   1.000  C
  H74      1.0000 0.58390  0.33880  0.72510  Biso   1.000  H
  C57      1.0000 0.62370  0.29560  0.69400  Biso   1.000  C
  C58      1.0000 0.58410  0.24860  0.76980  Biso   1.000  C
  H75      1.0000 0.50990  0.26480  0.85300  Biso   1.000  H
  N15      1.0000 0.75500  0.45660  0.43750  Biso   1.000  N
  O168     1.0000 0.05540  0.59720  0.64630  Biso   1.000  O
  H76      1.0000 0.44830  0.48100  0.57550  Biso   1.000  H
  H77      1.0000 0.73510  0.37080  0.80670  Biso   1.000  H
  H78      1.0000 0.69310  0.27000  0.21960  Biso   1.000  H
  C59      1.0000 0.37290  0.26490  0.32550  Biso   1.000  C
  H79      1.0000 0.34430  0.30870  0.37400  Biso   1.000  H
  H80      1.0000 0.42540  0.23140  0.25930  Biso   1.000  H
  C60      1.0000 0.62860  0.26140  0.70930  Biso   1.000  C
  H81      1.0000 0.65000  0.30420  0.65160  Biso   1.000  H
  H82      1.0000 0.58300  0.22560  0.78130  Biso   1.000  H
  C61      1.0000 0.68070  0.45370  0.47290  Biso   1.000  C
  C62      1.0000 0.82540  0.46550  0.48150  Biso   1.000  C
  H83      1.0000 0.03850  0.57780  0.63830  Biso   1.000  H
  C63      1.0000 0.32700  0.24040  0.37190  Biso   1.000  C
  C64      1.0000 0.67480  0.23790  0.66120  Biso   1.000  C
  H84      1.0000 0.63100  0.44740  0.44410  Biso   1.000  H
  C65      1.0000 0.67800  0.46000  0.55290  Biso   1.000  C
  C66      1.0000 0.82430  0.47270  0.56050  Biso   1.000  C
  H85      1.0000 0.87710  0.46700  0.45820  Biso   1.000  H
  C67      1.0000 0.33600  0.20560  0.36010  Biso   1.000  C
  C68      1.0000 0.27400  0.25210  0.42600  Biso   1.000  C
  C69      1.0000 0.66440  0.20320  0.66600  Biso   1.000  C
  C70      1.0000 0.73630  0.24900  0.61400  Biso   1.000  C
  C71      1.0000 0.74630  0.47110  0.59740  Biso   1.000  C
  H86      1.0000 0.62700  0.45640  0.57610  Biso   1.000  H
  H87      1.0000 0.87460  0.47860  0.58890  Biso   1.000  H
  C72      1.0000 0.29100  0.18400  0.41040  Biso   1.000  C
  H88      1.0000 0.36890  0.19690  0.32190  Biso   1.000  H
  C73      1.0000 0.23290  0.22750  0.47400  Biso   1.000  C
  H89      1.0000 0.26530  0.27520  0.43200  Biso   1.000  H
  C74      1.0000 0.71260  0.18200  0.62010  Biso   1.000  C
  H90      1.0000 0.62610  0.19400  0.69890  Biso   1.000  H
  C75      1.0000 0.78310  0.22590  0.57200  Biso   1.000  C
  H91      1.0000 0.74690  0.27210  0.60990  Biso   1.000  H
  H92      1.0000 0.30060  0.16080  0.40710  Biso   1.000  H
  H93      1.0000 0.20260  0.23530  0.51440  Biso   1.000  H
  H94      1.0000 0.70160  0.15890  0.62060  Biso   1.000  H
  H95      1.0000 0.82320  0.23430  0.53980  Biso   1.000  H
  H96      1.0000 0.02480  0.50090  0.01040  Biso   1.000  H
  Mo25     1.0000 0.29250  0.91571  0.47951  Biso   1.000  Mo
  Mo26     1.0000 0.33229  0.87009  0.58517  Biso   1.000  Mo
  O169     1.0000 0.24440  0.87120  0.50140  Biso   1.000  O
  O170     1.0000 0.19610  0.92040  0.39170  Biso   1.000  O
  O171     1.0000 0.35410  0.91850  0.58050  Biso   1.000  O
  O172     1.0000 0.30310  0.96800  0.46690  Biso   1.000  O
  O173     1.0000 0.18620  0.93210  0.54720  Biso   1.000  O
  O174     1.0000 0.21360  0.89090  0.65710  Biso   1.000  O
  O175     1.0000 0.38480  0.87070  0.69460  Biso   1.000  O
  O176     1.0000 0.28200  0.82400  0.61500  Biso   1.000  O
  Co25     1.0000 0.14095  0.84270  0.47130  Biso   1.000  Co
  P37      1.0000 0.14400  0.89958  0.33220  Biso   1.000  P
  Co26     1.0000 0.38027  0.95415  0.66409  Biso   1.000  Co
  P38      1.0000 0.35090  0.99886  0.49930  Biso   1.000  P
  P39      1.0000 0.18610  0.92829  0.63500  Biso   1.000  P
  Mo27     1.0000 0.15877  0.86968  0.77394  Biso   1.000  Mo
  P40      1.0000 0.36930  0.88572  0.77430  Biso   1.000  P
  P41      1.0000 0.19380  0.81264  0.63940  Biso   1.000  P
  O177     1.0000 0.10430  0.86840  0.36970  Biso   1.000  O
  O178     1.0000 0.12330  0.82560  0.58470  Biso   1.000  O
  O179     1.0000 0.04310  0.81190  0.42940  Biso   1.000  O
  N16      1.0000 0.72700  0.69330  0.92380  Biso   1.000  N
  O180     1.0000 0.07940  0.92190  0.29020  Biso   1.000  O
  O181     1.0000 0.20550  0.88570  0.27130  Biso   1.000  O
  O182     1.0000 0.37430  0.99530  0.58780  Biso   1.000  O
  O183     1.0000 0.24400  0.95680  0.67800  Biso   1.000  O
  O184     1.0000 0.42910  0.99480  0.73330  Biso   1.000  O
  O185     1.0000 0.36120  0.92490  0.76770  Biso   1.000  O
  O186     1.0000 0.29330  0.02880  0.48220  Biso   1.000  O
  O187     1.0000 0.43410  0.00390  0.45840  Biso   1.000  O
  O188     1.0000 0.09180  0.93280  0.65140  Biso   1.000  O
  O189     1.0000 0.28660  0.87150  0.80530  Biso   1.000  O
  Mo28     1.0000 0.03600  0.91379  0.75648  Biso   1.000  Mo
  O190     1.0000 0.15450  0.91720  0.79880  Biso   1.000  O
  O191     1.0000 0.05420  0.86940  0.70930  Biso   1.000  O
  O192     1.0000 0.18580  0.82350  0.72440  Biso   1.000  O
  O193     1.0000 0.44290  0.87760  0.83170  Biso   1.000  O
  O194     1.0000 0.18890  0.77280  0.63680  Biso   1.000  O
  Co27     1.0000 0.98335  0.84338  0.34650  Biso   1.000  Co
  Co28     1.0000 0.00460  0.84171  0.61820  Biso   1.000  Co
  P42      1.0000 0.99630  0.78742  0.48340  Biso   1.000  P
  Mo29     1.0000 0.96323  0.92170  0.22573  Biso   1.000  Mo
  H97      1.0000 0.22790  0.90160  0.25000  Biso   1.000  H
  Co29     1.0000 0.37795  0.03417  0.67013  Biso   1.000  Co
  Co30     1.0000 0.24970  0.95346  0.80920  Biso   1.000  Co
  P43      1.0000 0.42760  0.99463  0.82320  Biso   1.000  P
  Mo30     1.0000 0.29235  0.08131  0.49732  Biso   1.000  Mo
  O195     1.0000 0.02340  0.96510  0.77040  Biso   1.000  O
  O196     1.0000 0.92790  0.91860  0.68290  Biso   1.000  O
  H98      1.0000 0.44800  0.85700  0.83580  Biso   1.000  H
  H99      1.0000 0.14980  0.76690  0.60590  Biso   1.000  H
  O197     1.0000 0.94400  0.87500  0.25930  Biso   1.000  O
  O198     1.0000 0.91900  0.87850  0.42500  Biso   1.000  O
  O199     1.0000 0.85960  0.81910  0.37340  Biso   1.000  O
  N17      1.0000 0.03140  0.80970  0.26390  Biso   1.000  N
  O200     1.0000 0.88790  0.86630  0.60150  Biso   1.000  O
  O201     1.0000 0.94580  0.81030  0.53340  Biso   1.000  O
  N18      1.0000 0.95990  0.80660  0.70100  Biso   1.000  N
  O202     1.0000 0.93460  0.76460  0.43140  Biso   1.000  O
  O203     1.0000 0.05460  0.76290  0.52960  Biso   1.000  O
  O204     1.0000 0.97370  0.97360  0.22440  Biso   1.000  O
  Mo31     1.0000 0.83502  0.88026  0.20052  Biso   1.000  Mo
  O205     1.0000 0.92010  0.93200  0.33830  Biso   1.000  O
  O206     1.0000 0.84280  0.92950  0.19320  Biso   1.000  O
  O207     1.0000 0.35000  0.07410  0.59810  Biso   1.000  O
  O208     1.0000 0.34440  0.06060  0.76890  Biso   1.000  O
  O209     1.0000 0.33260  0.99330  0.84160  Biso   1.000  O
  O210     1.0000 0.15900  0.99460  0.82020  Biso   1.000  O
  O211     1.0000 0.47910  0.02320  0.86070  Biso   1.000  O
  O212     1.0000 0.47390  0.96240  0.85600  Biso   1.000  O
  Mo32     1.0000 0.33685  0.12247  0.61124  Biso   1.000  Mo
  O213     1.0000 0.25400  0.12740  0.52420  Biso   1.000  O
  O214     1.0000 0.20490  0.08060  0.40590  Biso   1.000  O
  O215     1.0000 0.17740  0.06830  0.55690  Biso   1.000  O
  P44      1.0000 0.06190  0.99534  0.81510  Biso   1.000  P
  P45      1.0000 0.85460  0.89677  0.64560  Biso   1.000  P
  Co31     1.0000 0.84786  0.84184  0.49200  Biso   1.000  Co
  P46      1.0000 0.86450  0.90857  0.38240  Biso   1.000  P
  P47      1.0000 0.78380  0.81614  0.31460  Biso   1.000  P
  C76      1.0000 0.07390  0.81960  0.20560  Biso   1.000  C
  C77      1.0000 0.03600  0.77550  0.27600  Biso   1.000  C
  C78      1.0000 0.91680  0.81590  0.76260  Biso   1.000  C
  C79      1.0000 0.95900  0.77270  0.68800  Biso   1.000  C
  H100     1.0000 0.90140  0.77660  0.40500  Biso   1.000  H
  H101     1.0000 0.08950  0.77350  0.55740  Biso   1.000  H
  O216     1.0000 0.80280  0.83360  0.23800  Biso   1.000  O
  O217     1.0000 0.79060  0.89380  0.32650  Biso   1.000  O
  O218     1.0000 0.70480  0.88510  0.16900  Biso   1.000  O
  Co32     1.0000 0.75270  0.96654  0.18283  Biso   1.000  Co
  P48      1.0000 0.36900  0.09681  0.79350  Biso   1.000  P
  H102     1.0000 0.45770  0.04140  0.84690  Biso   1.000  H
  H103     1.0000 0.45040  0.94550  0.83690  Biso   1.000  H
  O219     1.0000 0.29430  0.16810  0.64950  Biso   1.000  O
  O220     1.0000 0.39350  0.11670  0.72160  Biso   1.000  O
  O221     1.0000 0.02920  0.99630  0.89850  Biso   1.000  O
  O222     1.0000 0.80450  0.88250  0.71160  Biso   1.000  O
  N19      1.0000 0.26330  0.69410  0.03900  Biso   1.000  N
  O223     1.0000 0.76570  0.77870  0.29940  Biso   1.000  O
  C80      1.0000 0.12300  0.79900  0.16350  Biso   1.000  C
  H104     1.0000 0.07010  0.84240  0.19160  Biso   1.000  H
  H105     1.0000 0.00780  0.76630  0.31650  Biso   1.000  H
  C81      1.0000 0.07900  0.75450  0.23160  Biso   1.000  C
  H106     1.0000 0.91610  0.83880  0.77490  Biso   1.000  H
  C82      1.0000 0.87630  0.79560  0.80600  Biso   1.000  C
  C83      1.0000 0.91590  0.74860  0.73020  Biso   1.000  C
  H107     1.0000 0.99010  0.76480  0.64700  Biso   1.000  H
  N20      1.0000 0.74500  0.95660  0.06250  Biso   1.000  N
  O224     1.0000 0.44460  0.09720  0.85370  Biso   1.000  O
  H108     1.0000 0.05170  0.98100  0.92450  Biso   1.000  H
  H109     1.0000 0.76490  0.87080  0.69330  Biso   1.000  H
  H110     1.0000 0.80690  0.77000  0.28040  Biso   1.000  H
  C84      1.0000 0.12710  0.76490  0.17450  Biso   1.000  C
  H111     1.0000 0.15570  0.80870  0.12600  Biso   1.000  H
  H112     1.0000 0.07460  0.73140  0.24070  Biso   1.000  H
  C85      1.0000 0.87140  0.76140  0.79070  Biso   1.000  C
  H113     1.0000 0.85000  0.80420  0.84840  Biso   1.000  H
  H114     1.0000 0.91700  0.72560  0.71870  Biso   1.000  H
  C86      1.0000 0.81930  0.95370  0.02710  Biso   1.000  C
  C87      1.0000 0.67460  0.96550  0.01850  Biso   1.000  C
  H115     1.0000 0.46150  0.07780  0.86170  Biso   1.000  H
  C88      1.0000 0.17300  0.74040  0.12810  Biso   1.000  C
  C89      1.0000 0.82520  0.73790  0.83880  Biso   1.000  C
  H116     1.0000 0.86900  0.94740  0.05590  Biso   1.000  H
  C90      1.0000 0.82200  0.96000  0.94710  Biso   1.000  C
  C91      1.0000 0.67570  0.97270  0.93950  Biso   1.000  C
  H117     1.0000 0.62290  0.96700  0.04180  Biso   1.000  H
  C92      1.0000 0.16400  0.70560  0.13990  Biso   1.000  C
  C93      1.0000 0.22600  0.75210  0.07400  Biso   1.000  C
  C94      1.0000 0.83560  0.70320  0.83400  Biso   1.000  C
  C95      1.0000 0.76370  0.74900  0.88600  Biso   1.000  C
  C96      1.0000 0.75370  0.97110  0.90260  Biso   1.000  C
  H118     1.0000 0.87300  0.95640  0.92390  Biso   1.000  H
  H119     1.0000 0.62540  0.97860  0.91110  Biso   1.000  H
  C97      1.0000 0.20900  0.68400  0.08960  Biso   1.000  C
  H120     1.0000 0.13110  0.69690  0.17810  Biso   1.000  H
  C98      1.0000 0.26710  0.72750  0.02600  Biso   1.000  C
  H121     1.0000 0.23470  0.77520  0.06800  Biso   1.000  H
  C99      1.0000 0.78740  0.68200  0.87990  Biso   1.000  C
  H122     1.0000 0.87390  0.69400  0.80110  Biso   1.000  H
  C100     1.0000 0.71690  0.72590  0.92800  Biso   1.000  C
  H123     1.0000 0.75310  0.77210  0.89010  Biso   1.000  H
  H124     1.0000 0.19940  0.66080  0.09290  Biso   1.000  H
  H125     1.0000 0.29740  0.73530  0.98560  Biso   1.000  H
  H126     1.0000 0.79840  0.65890  0.87940  Biso   1.000  H
  H127     1.0000 0.67680  0.73430  0.96020  Biso   1.000  H
  H128     1.0000 0.47520  0.00090  0.48960  Biso   1.000  H
