data_image0
_cell_length_a       8.2846
_cell_length_b       18.1175
_cell_length_c       20.7615
_cell_angle_alpha    90
_cell_angle_beta     97.678
_cell_angle_gamma    90

_symmetry_space_group_name_H-M    "P 1"
_symmetry_int_tables_number       1

loop_
  _symmetry_equiv_pos_as_xyz
  'x, y, z'

loop_
  _atom_site_label
  _atom_site_occupancy
  _atom_site_fract_x
  _atom_site_fract_y
  _atom_site_fract_z
  _atom_site_thermal_displace_type
  _atom_site_B_iso_or_equiv
  _atom_site_type_symbol
  Np1      1.0000 0.56850  0.80435  0.38162  Biso   1.000  Np
  O1       1.0000 0.49750  0.82310  0.45660  Biso   1.000  O
  O2       1.0000 0.44810  0.67890  0.38820  Biso   1.000  O
  O3       1.0000 0.70860  0.69170  0.42220  Biso   1.000  O
  O4       1.0000 0.21040  0.42320  0.38690  Biso   1.000  O
  O5       1.0000 0.36140  0.32910  0.42340  Biso   1.000  O
  O6       1.0000 0.27480  0.80060  0.32910  Biso   1.000  O
  O7       1.0000 0.41100  0.90440  0.32830  Biso   1.000  O
  C1       1.0000 0.58460  0.65190  0.41120  Biso   1.000  C
  C2       1.0000 0.60280  0.57070  0.42440  Biso   1.000  C
  C3       1.0000 0.47160  0.52410  0.41190  Biso   1.000  C
  H1       1.0000 0.36790  0.54310  0.39480  Biso   1.000  H
  C4       1.0000 0.49080  0.44850  0.42440  Biso   1.000  C
  C5       1.0000 0.64380  0.42060  0.44920  Biso   1.000  C
  H2       1.0000 0.65750  0.36920  0.45730  Biso   1.000  H
  C6       1.0000 0.77560  0.46800  0.46180  Biso   1.000  C
  H3       1.0000 0.88000  0.44940  0.47850  Biso   1.000  H
  C7       1.0000 0.75340  0.54330  0.44990  Biso   1.000  C
  H4       1.0000 0.84290  0.57610  0.45930  Biso   1.000  H
  C8       1.0000 0.34900  0.39720  0.41090  Biso   1.000  C
  C9       1.0000 0.28160  0.86830  0.31350  Biso   1.000  C
  C10      1.0000 0.13500  0.90590  0.27900  Biso   1.000  C
  C11      1.0000 0.13520  0.98310  0.27840  Biso   1.000  C
  H5       1.0000 0.22880  0.00930  0.29750  Biso   1.000  H
  Cs1      1.0000 0.05635  0.69496  0.38883  Biso   1.000  Cs
  Np2      1.0000 0.06850  0.30435  0.38162  Biso   1.000  Np
  O8       1.0000 0.99750  0.32310  0.45660  Biso   1.000  O
  O9       1.0000 0.94810  0.17890  0.38820  Biso   1.000  O
  O10      1.0000 0.20860  0.19170  0.42220  Biso   1.000  O
  O11      1.0000 0.71040  0.92320  0.38690  Biso   1.000  O
  O12      1.0000 0.86140  0.82910  0.42340  Biso   1.000  O
  O13      1.0000 0.77480  0.30060  0.32910  Biso   1.000  O
  O14      1.0000 0.91100  0.40440  0.32830  Biso   1.000  O
  C12      1.0000 0.08460  0.15190  0.41120  Biso   1.000  C
  C13      1.0000 0.10280  0.07070  0.42440  Biso   1.000  C
  C14      1.0000 0.97160  0.02410  0.41190  Biso   1.000  C
  H6       1.0000 0.86790  0.04310  0.39480  Biso   1.000  H
  C15      1.0000 0.99080  0.94850  0.42440  Biso   1.000  C
  C16      1.0000 0.14380  0.92060  0.44920  Biso   1.000  C
  H7       1.0000 0.15750  0.86920  0.45730  Biso   1.000  H
  C17      1.0000 0.27560  0.96800  0.46180  Biso   1.000  C
  H8       1.0000 0.38000  0.94940  0.47850  Biso   1.000  H
  C18      1.0000 0.25340  0.04330  0.44990  Biso   1.000  C
  H9       1.0000 0.34290  0.07610  0.45930  Biso   1.000  H
  C19      1.0000 0.84900  0.89720  0.41090  Biso   1.000  C
  C20      1.0000 0.78160  0.36830  0.31350  Biso   1.000  C
  C21      1.0000 0.63500  0.40590  0.27900  Biso   1.000  C
  C22      1.0000 0.63520  0.48310  0.27840  Biso   1.000  C
  H10      1.0000 0.72880  0.50930  0.29750  Biso   1.000  H
  Cs2      1.0000 0.55635  0.19496  0.38883  Biso   1.000  Cs
  Np3      1.0000 0.43150  0.80435  0.11838  Biso   1.000  Np
  O15      1.0000 0.50250  0.82310  0.04340  Biso   1.000  O
  O16      1.0000 0.55190  0.67890  0.11180  Biso   1.000  O
  O17      1.0000 0.29140  0.69170  0.07780  Biso   1.000  O
  O18      1.0000 0.78960  0.42320  0.11310  Biso   1.000  O
  O19      1.0000 0.63860  0.32910  0.07660  Biso   1.000  O
  O20      1.0000 0.72520  0.80060  0.17090  Biso   1.000  O
  O21      1.0000 0.58900  0.90440  0.17170  Biso   1.000  O
  C23      1.0000 0.41540  0.65190  0.08880  Biso   1.000  C
  C24      1.0000 0.39720  0.57070  0.07560  Biso   1.000  C
  C25      1.0000 0.52840  0.52410  0.08810  Biso   1.000  C
  H11      1.0000 0.63210  0.54310  0.10520  Biso   1.000  H
  C26      1.0000 0.50920  0.44850  0.07560  Biso   1.000  C
  C27      1.0000 0.35620  0.42060  0.05080  Biso   1.000  C
  H12      1.0000 0.34250  0.36920  0.04270  Biso   1.000  H
  C28      1.0000 0.22440  0.46800  0.03820  Biso   1.000  C
  H13      1.0000 0.12000  0.44940  0.02150  Biso   1.000  H
  C29      1.0000 0.24660  0.54330  0.05010  Biso   1.000  C
  H14      1.0000 0.15710  0.57610  0.04070  Biso   1.000  H
  C30      1.0000 0.65100  0.39720  0.08910  Biso   1.000  C
  C31      1.0000 0.71840  0.86830  0.18650  Biso   1.000  C
  C32      1.0000 0.86500  0.90590  0.22100  Biso   1.000  C
  C33      1.0000 0.86480  0.98310  0.22160  Biso   1.000  C
  H15      1.0000 0.77120  0.00930  0.20250  Biso   1.000  H
  Cs3      1.0000 0.94365  0.69496  0.11117  Biso   1.000  Cs
  Np4      1.0000 0.93150  0.30435  0.11838  Biso   1.000  Np
  O22      1.0000 0.00250  0.32310  0.04340  Biso   1.000  O
  O23      1.0000 0.05190  0.17890  0.11180  Biso   1.000  O
  O24      1.0000 0.79140  0.19170  0.07780  Biso   1.000  O
  O25      1.0000 0.28960  0.92320  0.11310  Biso   1.000  O
  O26      1.0000 0.13860  0.82910  0.07660  Biso   1.000  O
  O27      1.0000 0.22520  0.30060  0.17090  Biso   1.000  O
  O28      1.0000 0.08900  0.40440  0.17170  Biso   1.000  O
  C34      1.0000 0.91540  0.15190  0.08880  Biso   1.000  C
  C35      1.0000 0.89720  0.07070  0.07560  Biso   1.000  C
  C36      1.0000 0.02840  0.02410  0.08810  Biso   1.000  C
  H16      1.0000 0.13210  0.04310  0.10520  Biso   1.000  H
  C37      1.0000 0.00920  0.94850  0.07560  Biso   1.000  C
  C38      1.0000 0.85620  0.92060  0.05080  Biso   1.000  C
  H17      1.0000 0.84250  0.86920  0.04270  Biso   1.000  H
  C39      1.0000 0.72440  0.96800  0.03820  Biso   1.000  C
  H18      1.0000 0.62000  0.94940  0.02150  Biso   1.000  H
  C40      1.0000 0.74660  0.04330  0.05010  Biso   1.000  C
  H19      1.0000 0.65710  0.07610  0.04070  Biso   1.000  H
  C41      1.0000 0.15100  0.89720  0.08910  Biso   1.000  C
  C42      1.0000 0.21840  0.36830  0.18650  Biso   1.000  C
  C43      1.0000 0.36500  0.40590  0.22100  Biso   1.000  C
  C44      1.0000 0.36480  0.48310  0.22160  Biso   1.000  C
  H20      1.0000 0.27120  0.50930  0.20250  Biso   1.000  H
  Cs4      1.0000 0.44365  0.19496  0.11117  Biso   1.000  Cs
  Np5      1.0000 0.43150  0.19565  0.61838  Biso   1.000  Np
  O29      1.0000 0.50250  0.17690  0.54340  Biso   1.000  O
  O30      1.0000 0.55190  0.32110  0.61180  Biso   1.000  O
  O31      1.0000 0.29140  0.30830  0.57780  Biso   1.000  O
  O32      1.0000 0.78960  0.57680  0.61310  Biso   1.000  O
  O33      1.0000 0.63860  0.67090  0.57660  Biso   1.000  O
  O34      1.0000 0.72520  0.19940  0.67090  Biso   1.000  O
  O35      1.0000 0.58900  0.09560  0.67170  Biso   1.000  O
  C45      1.0000 0.41540  0.34810  0.58880  Biso   1.000  C
  C46      1.0000 0.39720  0.42930  0.57560  Biso   1.000  C
  C47      1.0000 0.52840  0.47590  0.58810  Biso   1.000  C
  H21      1.0000 0.63210  0.45690  0.60520  Biso   1.000  H
  C48      1.0000 0.50920  0.55150  0.57560  Biso   1.000  C
  C49      1.0000 0.35620  0.57940  0.55080  Biso   1.000  C
  H22      1.0000 0.34250  0.63080  0.54270  Biso   1.000  H
  C50      1.0000 0.22440  0.53200  0.53820  Biso   1.000  C
  H23      1.0000 0.12000  0.55060  0.52150  Biso   1.000  H
  C51      1.0000 0.24660  0.45670  0.55010  Biso   1.000  C
  H24      1.0000 0.15710  0.42390  0.54070  Biso   1.000  H
  C52      1.0000 0.65100  0.60280  0.58910  Biso   1.000  C
  C53      1.0000 0.71840  0.13170  0.68650  Biso   1.000  C
  C54      1.0000 0.86500  0.09410  0.72100  Biso   1.000  C
  C55      1.0000 0.86480  0.01690  0.72160  Biso   1.000  C
  H25      1.0000 0.77120  0.99070  0.70250  Biso   1.000  H
  Cs5      1.0000 0.94365  0.30504  0.61117  Biso   1.000  Cs
  Np6      1.0000 0.93150  0.69565  0.61838  Biso   1.000  Np
  O36      1.0000 0.00250  0.67690  0.54340  Biso   1.000  O
  O37      1.0000 0.05190  0.82110  0.61180  Biso   1.000  O
  O38      1.0000 0.79140  0.80830  0.57780  Biso   1.000  O
  O39      1.0000 0.28960  0.07680  0.61310  Biso   1.000  O
  O40      1.0000 0.13860  0.17090  0.57660  Biso   1.000  O
  O41      1.0000 0.22520  0.69940  0.67090  Biso   1.000  O
  O42      1.0000 0.08900  0.59560  0.67170  Biso   1.000  O
  C56      1.0000 0.91540  0.84810  0.58880  Biso   1.000  C
  C57      1.0000 0.89720  0.92930  0.57560  Biso   1.000  C
  C58      1.0000 0.02840  0.97590  0.58810  Biso   1.000  C
  H26      1.0000 0.13210  0.95690  0.60520  Biso   1.000  H
  C59      1.0000 0.00920  0.05150  0.57560  Biso   1.000  C
  C60      1.0000 0.85620  0.07940  0.55080  Biso   1.000  C
  H27      1.0000 0.84250  0.13080  0.54270  Biso   1.000  H
  C61      1.0000 0.72440  0.03200  0.53820  Biso   1.000  C
  H28      1.0000 0.62000  0.05060  0.52150  Biso   1.000  H
  C62      1.0000 0.74660  0.95670  0.55010  Biso   1.000  C
  H29      1.0000 0.65710  0.92390  0.54070  Biso   1.000  H
  C63      1.0000 0.15100  0.10280  0.58910  Biso   1.000  C
  C64      1.0000 0.21840  0.63170  0.68650  Biso   1.000  C
  C65      1.0000 0.36500  0.59410  0.72100  Biso   1.000  C
  C66      1.0000 0.36480  0.51690  0.72160  Biso   1.000  C
  H30      1.0000 0.27120  0.49070  0.70250  Biso   1.000  H
  Cs6      1.0000 0.44365  0.80504  0.61117  Biso   1.000  Cs
  Np7      1.0000 0.56850  0.19565  0.88162  Biso   1.000  Np
  O43      1.0000 0.49750  0.17690  0.95660  Biso   1.000  O
  O44      1.0000 0.44810  0.32110  0.88820  Biso   1.000  O
  O45      1.0000 0.70860  0.30830  0.92220  Biso   1.000  O
  O46      1.0000 0.21040  0.57680  0.88690  Biso   1.000  O
  O47      1.0000 0.36140  0.67090  0.92340  Biso   1.000  O
  O48      1.0000 0.27480  0.19940  0.82910  Biso   1.000  O
  O49      1.0000 0.41100  0.09560  0.82830  Biso   1.000  O
  C67      1.0000 0.58460  0.34810  0.91120  Biso   1.000  C
  C68      1.0000 0.60280  0.42930  0.92440  Biso   1.000  C
  C69      1.0000 0.47160  0.47590  0.91190  Biso   1.000  C
  H31      1.0000 0.36790  0.45690  0.89480  Biso   1.000  H
  C70      1.0000 0.49080  0.55150  0.92440  Biso   1.000  C
  C71      1.0000 0.64380  0.57940  0.94920  Biso   1.000  C
  H32      1.0000 0.65750  0.63080  0.95730  Biso   1.000  H
  C72      1.0000 0.77560  0.53200  0.96180  Biso   1.000  C
  H33      1.0000 0.88000  0.55060  0.97850  Biso   1.000  H
  C73      1.0000 0.75340  0.45670  0.94990  Biso   1.000  C
  H34      1.0000 0.84290  0.42390  0.95930  Biso   1.000  H
  C74      1.0000 0.34900  0.60280  0.91090  Biso   1.000  C
  C75      1.0000 0.28160  0.13170  0.81350  Biso   1.000  C
  C76      1.0000 0.13500  0.09410  0.77900  Biso   1.000  C
  C77      1.0000 0.13520  0.01690  0.77840  Biso   1.000  C
  H35      1.0000 0.22880  0.99070  0.79750  Biso   1.000  H
  Cs7      1.0000 0.05635  0.30504  0.88883  Biso   1.000  Cs
  Np8      1.0000 0.06850  0.69565  0.88162  Biso   1.000  Np
  O50      1.0000 0.99750  0.67690  0.95660  Biso   1.000  O
  O51      1.0000 0.94810  0.82110  0.88820  Biso   1.000  O
  O52      1.0000 0.20860  0.80830  0.92220  Biso   1.000  O
  O53      1.0000 0.71040  0.07680  0.88690  Biso   1.000  O
  O54      1.0000 0.86140  0.17090  0.92340  Biso   1.000  O
  O55      1.0000 0.77480  0.69940  0.82910  Biso   1.000  O
  O56      1.0000 0.91100  0.59560  0.82830  Biso   1.000  O
  C78      1.0000 0.08460  0.84810  0.91120  Biso   1.000  C
  C79      1.0000 0.10280  0.92930  0.92440  Biso   1.000  C
  C80      1.0000 0.97160  0.97590  0.91190  Biso   1.000  C
  H36      1.0000 0.86790  0.95690  0.89480  Biso   1.000  H
  C81      1.0000 0.99080  0.05150  0.92440  Biso   1.000  C
  C82      1.0000 0.14380  0.07940  0.94920  Biso   1.000  C
  H37      1.0000 0.15750  0.13080  0.95730  Biso   1.000  H
  C83      1.0000 0.27560  0.03200  0.96180  Biso   1.000  C
  H38      1.0000 0.38000  0.05060  0.97850  Biso   1.000  H
  C84      1.0000 0.25340  0.95670  0.94990  Biso   1.000  C
  H39      1.0000 0.34290  0.92390  0.95930  Biso   1.000  H
  C85      1.0000 0.84900  0.10280  0.91090  Biso   1.000  C
  C86      1.0000 0.78160  0.63170  0.81350  Biso   1.000  C
  C87      1.0000 0.63500  0.59410  0.77900  Biso   1.000  C
  C88      1.0000 0.63520  0.51690  0.77840  Biso   1.000  C
  H40      1.0000 0.72880  0.49070  0.79750  Biso   1.000  H
  Cs8      1.0000 0.55635  0.80504  0.88883  Biso   1.000  Cs
  C89      1.0000 0.00000  0.86660  0.25000  Biso   1.000  C
  H41      1.0000 0.00000  0.81410  0.25000  Biso   1.000  H
  C90      1.0000 0.00000  0.02130  0.25000  Biso   1.000  C
  H42      1.0000 0.00000  0.07380  0.25000  Biso   1.000  H
  C91      1.0000 0.50000  0.36660  0.25000  Biso   1.000  C
  H43      1.0000 0.50000  0.31410  0.25000  Biso   1.000  H
  C92      1.0000 0.50000  0.52130  0.25000  Biso   1.000  C
  H44      1.0000 0.50000  0.57380  0.25000  Biso   1.000  H
  C93      1.0000 0.00000  0.13340  0.75000  Biso   1.000  C
  H45      1.0000 0.00000  0.18590  0.75000  Biso   1.000  H
  C94      1.0000 0.00000  0.97870  0.75000  Biso   1.000  C
  H46      1.0000 0.00000  0.92620  0.75000  Biso   1.000  H
  C95      1.0000 0.50000  0.63340  0.75000  Biso   1.000  C
  H47      1.0000 0.50000  0.68590  0.75000  Biso   1.000  H
  C96      1.0000 0.50000  0.47870  0.75000  Biso   1.000  C
  H48      1.0000 0.50000  0.42620  0.75000  Biso   1.000  H
