data_IXEQIL_clean
_audit_creation_date              2014-07-02
_audit_creation_method            'Materials Studio'
_symmetry_space_group_name_H-M    'P1'
_symmetry_Int_Tables_number       1
_symmetry_cell_setting            triclinic
loop_
_symmetry_equiv_pos_as_xyz
  x,y,z
_cell_length_a                    12.6774
_cell_length_b                    12.6774
_cell_length_c                    18.0381
_cell_angle_alpha                 69.4266
_cell_angle_beta                  69.4266
_cell_angle_gamma                 89.9999
loop_
_atom_site_label
_atom_site_type_symbol
_atom_site_fract_x
_atom_site_fract_y
_atom_site_fract_z
_atom_site_U_iso_or_equiv
_atom_site_adp_type
_atom_site_occupancy
Cd1    Cd    0.57783   0.82005   0.86010   0.01267  Uiso   1.00
Cd2    Cd    0.56207   0.31985   0.86010   0.01267  Uiso   1.00
Cd3    Cd    0.57005   0.81207   0.36010   0.01267  Uiso   1.00
Cd4    Cd    0.06985   0.82783   0.36010   0.01267  Uiso   1.00
Cd5    Cd    0.18793   0.42995   0.63990   0.01267  Uiso   1.00
Cd6    Cd    0.17217   0.93015   0.63990   0.01267  Uiso   1.00
Cd7    Cd    0.68015   0.43793   0.13990   0.01267  Uiso   1.00
Cd8    Cd    0.17995   0.42217   0.13990   0.01267  Uiso   1.00
H1     H     0.93380   0.81610   0.65560   0.01267  Uiso   1.00
H2     H     0.91120   0.96970   0.58160   0.01267  Uiso   1.00
H3     H     0.76800   0.70160   0.63480   0.01267  Uiso   1.00
H4     H     0.74610   0.87270   0.54940   0.01267  Uiso   1.00
H5     H     0.62800   0.06740   0.87000   0.01267  Uiso   1.00
H6     H     0.56600   0.99520   0.69320   0.01267  Uiso   1.00
H7     H     0.46500   0.01720   0.76700   0.01267  Uiso   1.00
H8     H     0.77630   0.02850   0.76660   0.01267  Uiso   1.00
H9     H     0.75350   0.00310   0.69240   0.01267  Uiso   1.00
H10    H     0.70390   0.13850   0.59860   0.01267  Uiso   1.00
H11    H     0.38960   0.63710   0.03620   0.01267  Uiso   1.00
H12    H     0.63480   0.57090   0.85680   0.01267  Uiso   1.00
H13    H     0.67480   0.61120   0.96400   0.01267  Uiso   1.00
H14    H     0.41060   0.52830   0.65560   0.01267  Uiso   1.00
H15    H     0.50720   0.44870   0.58160   0.01267  Uiso   1.00
H16    H     0.59720   0.66360   0.63480   0.01267  Uiso   1.00
H17    H     0.70450   0.57790   0.54940   0.01267  Uiso   1.00
H18    H     0.50200   0.06260   0.87000   0.01267  Uiso   1.00
H19    H     0.74080   0.31160   0.69320   0.01267  Uiso   1.00
H20    H     0.76800   0.21580   0.76700   0.01267  Uiso   1.00
H21    H     0.45710   0.20490   0.76660   0.01267  Uiso   1.00
H22    H     0.55410   0.30450   0.69240   0.01267  Uiso   1.00
H23    H     0.69750   0.26290   0.59860   0.01267  Uiso   1.00
H24    H     0.57420   0.32670   0.03620   0.01267  Uiso   1.00
H25    H     0.50840   0.57230   0.85680   0.01267  Uiso   1.00
H26    H     0.36120   0.42480   0.96400   0.01267  Uiso   1.00
H27    H     0.56610   0.66060   0.15560   0.01267  Uiso   1.00
H28    H     0.71970   0.75720   0.08160   0.01267  Uiso   1.00
H29    H     0.45160   0.84720   0.13480   0.01267  Uiso   1.00
H30    H     0.62270   0.95450   0.04940   0.01267  Uiso   1.00
H31    H     0.81740   0.75200   0.37000   0.01267  Uiso   1.00
H32    H     0.74520   0.99080   0.19320   0.01267  Uiso   1.00
H33    H     0.76720   0.01800   0.26700   0.01267  Uiso   1.00
H34    H     0.77850   0.70710   0.26660   0.01267  Uiso   1.00
H35    H     0.75310   0.80410   0.19240   0.01267  Uiso   1.00
H36    H     0.88850   0.94750   0.09860   0.01267  Uiso   1.00
H37    H     0.38710   0.82420   0.53620   0.01267  Uiso   1.00
H38    H     0.32090   0.75840   0.35680   0.01267  Uiso   1.00
H39    H     0.36120   0.61120   0.46400   0.01267  Uiso   1.00
H40    H     0.27830   0.18380   0.15560   0.01267  Uiso   1.00
H41    H     0.19870   0.16120   0.08160   0.01267  Uiso   1.00
H42    H     0.41360   0.01800   0.13480   0.01267  Uiso   1.00
H43    H     0.32790   0.99610   0.04940   0.01267  Uiso   1.00
H44    H     0.81260   0.87800   0.37000   0.01267  Uiso   1.00
H45    H     0.06160   0.81600   0.19320   0.01267  Uiso   1.00
H46    H     0.96580   0.71500   0.26700   0.01267  Uiso   1.00
H47    H     0.95490   0.02630   0.26660   0.01267  Uiso   1.00
H48    H     0.05450   0.00350   0.19240   0.01267  Uiso   1.00
H49    H     0.01290   0.95390   0.09860   0.01267  Uiso   1.00
H50    H     0.07670   0.63960   0.53620   0.01267  Uiso   1.00
H51    H     0.32230   0.88480   0.35680   0.01267  Uiso   1.00
H52    H     0.17480   0.92480   0.46400   0.01267  Uiso   1.00
H53    H     0.33940   0.43390   0.84440   0.01267  Uiso   1.00
H54    H     0.24280   0.28030   0.91840   0.01267  Uiso   1.00
H55    H     0.15280   0.54840   0.86520   0.01267  Uiso   1.00
H56    H     0.04550   0.37730   0.95060   0.01267  Uiso   1.00
H57    H     0.24800   0.18260   0.63000   0.01267  Uiso   1.00
H58    H     0.00920   0.25480   0.80680   0.01267  Uiso   1.00
H59    H     0.98200   0.23280   0.73300   0.01267  Uiso   1.00
H60    H     0.29290   0.22150   0.73340   0.01267  Uiso   1.00
H61    H     0.19590   0.24690   0.80760   0.01267  Uiso   1.00
H62    H     0.05250   0.11150   0.90140   0.01267  Uiso   1.00
H63    H     0.17580   0.61290   0.46380   0.01267  Uiso   1.00
H64    H     0.24160   0.67910   0.64320   0.01267  Uiso   1.00
H65    H     0.38880   0.63880   0.53600   0.01267  Uiso   1.00
H66    H     0.81620   0.72170   0.84440   0.01267  Uiso   1.00
H67    H     0.83880   0.80130   0.91840   0.01267  Uiso   1.00
H68    H     0.98200   0.58640   0.86520   0.01267  Uiso   1.00
H69    H     0.00390   0.67210   0.95060   0.01267  Uiso   1.00
H70    H     0.12200   0.18740   0.63000   0.01267  Uiso   1.00
H71    H     0.18400   0.93840   0.80680   0.01267  Uiso   1.00
H72    H     0.28500   0.03420   0.73300   0.01267  Uiso   1.00
H73    H     0.97370   0.04510   0.73340   0.01267  Uiso   1.00
H74    H     0.99650   0.94550   0.80760   0.01267  Uiso   1.00
H75    H     0.04610   0.98710   0.90140   0.01267  Uiso   1.00
H76    H     0.36040   0.92330   0.46380   0.01267  Uiso   1.00
H77    H     0.11520   0.67770   0.64320   0.01267  Uiso   1.00
H78    H     0.07520   0.82520   0.53600   0.01267  Uiso   1.00
H79    H     0.47170   0.58940   0.34440   0.01267  Uiso   1.00
H80    H     0.55130   0.49280   0.41840   0.01267  Uiso   1.00
H81    H     0.33640   0.40280   0.36520   0.01267  Uiso   1.00
H82    H     0.42210   0.29550   0.45060   0.01267  Uiso   1.00
H83    H     0.93740   0.49800   0.13000   0.01267  Uiso   1.00
H84    H     0.68840   0.25920   0.30680   0.01267  Uiso   1.00
H85    H     0.78420   0.23200   0.23300   0.01267  Uiso   1.00
H86    H     0.79510   0.54290   0.23340   0.01267  Uiso   1.00
H87    H     0.69550   0.44590   0.30760   0.01267  Uiso   1.00
H88    H     0.73710   0.30250   0.40140   0.01267  Uiso   1.00
H89    H     0.67330   0.42580   0.96380   0.01267  Uiso   1.00
H90    H     0.42770   0.49160   0.14320   0.01267  Uiso   1.00
H91    H     0.57520   0.63880   0.03600   0.01267  Uiso   1.00
H92    H     0.18390   0.06620   0.34440   0.01267  Uiso   1.00
H93    H     0.03030   0.08880   0.41840   0.01267  Uiso   1.00
H94    H     0.29840   0.23200   0.36520   0.01267  Uiso   1.00
H95    H     0.12730   0.25390   0.45060   0.01267  Uiso   1.00
H96    H     0.93260   0.37200   0.13000   0.01267  Uiso   1.00
H97    H     0.00480   0.43400   0.30680   0.01267  Uiso   1.00
H98    H     0.98280   0.53500   0.23300   0.01267  Uiso   1.00
H99    H     0.97150   0.22370   0.23340   0.01267  Uiso   1.00
H100   H     0.99690   0.24650   0.30760   0.01267  Uiso   1.00
H101   H     0.86150   0.29610   0.40140   0.01267  Uiso   1.00
H102   H     0.36290   0.61040   0.96380   0.01267  Uiso   1.00
H103   H     0.42910   0.36520   0.14320   0.01267  Uiso   1.00
H104   H     0.38880   0.32520   0.03600   0.01267  Uiso   1.00
C1     C     0.71250   0.78700   0.71480   0.01267  Uiso   1.00
C2     C     0.79870   0.76970   0.64060   0.01267  Uiso   1.00
C3     C     0.81830   0.86980   0.56040   0.01267  Uiso   1.00
C4     C     0.90600   0.85340   0.48900   0.01267  Uiso   1.00
C5     C     0.54650   0.04110   0.72940   0.01267  Uiso   1.00
C6     C     0.73140   0.04810   0.72920   0.01267  Uiso   1.00
C7     C     0.57270   0.49820   0.71480   0.01267  Uiso   1.00
C8     C     0.56070   0.58970   0.64060   0.01267  Uiso   1.00
C9     C     0.62130   0.56980   0.56040   0.01267  Uiso   1.00
C10    C     0.60500   0.65760   0.48900   0.01267  Uiso   1.00
C11    C     0.72410   0.22950   0.72940   0.01267  Uiso   1.00
C12    C     0.53940   0.22270   0.72920   0.01267  Uiso   1.00
C13    C     0.53700   0.82270   0.21480   0.01267  Uiso   1.00
C14    C     0.51970   0.81070   0.14060   0.01267  Uiso   1.00
C15    C     0.61980   0.87130   0.06040   0.01267  Uiso   1.00
C16    C     0.60340   0.85500   0.98900   0.01267  Uiso   1.00
C17    C     0.79110   0.97410   0.22940   0.01267  Uiso   1.00
C18    C     0.79810   0.78940   0.22920   0.01267  Uiso   1.00
C19    C     0.24820   0.96250   0.21480   0.01267  Uiso   1.00
C20    C     0.33970   0.04870   0.14060   0.01267  Uiso   1.00
C21    C     0.31980   0.06830   0.06040   0.01267  Uiso   1.00
C22    C     0.40760   0.15600   0.98900   0.01267  Uiso   1.00
C23    C     0.97950   0.79650   0.22940   0.01267  Uiso   1.00
C24    C     0.97270   0.98140   0.22920   0.01267  Uiso   1.00
C25    C     0.17730   0.46300   0.78520   0.01267  Uiso   1.00
C26    C     0.18930   0.48030   0.85940   0.01267  Uiso   1.00
C27    C     0.12870   0.38020   0.93960   0.01267  Uiso   1.00
C28    C     0.14500   0.39660   0.01100   0.01267  Uiso   1.00
C29    C     0.02590   0.20890   0.77060   0.01267  Uiso   1.00
C30    C     0.21060   0.20190   0.77080   0.01267  Uiso   1.00
C31    C     0.03750   0.75180   0.78520   0.01267  Uiso   1.00
C32    C     0.95130   0.66030   0.85940   0.01267  Uiso   1.00
C33    C     0.93170   0.68020   0.93960   0.01267  Uiso   1.00
C34    C     0.84400   0.59240   0.01100   0.01267  Uiso   1.00
C35    C     0.20350   0.02050   0.77060   0.01267  Uiso   1.00
C36    C     0.01860   0.02730   0.77080   0.01267  Uiso   1.00
C37    C     0.50180   0.42730   0.28520   0.01267  Uiso   1.00
C38    C     0.41030   0.43930   0.35940   0.01267  Uiso   1.00
C39    C     0.43020   0.37870   0.43960   0.01267  Uiso   1.00
C40    C     0.34240   0.39500   0.51100   0.01267  Uiso   1.00
C41    C     0.77050   0.27590   0.27060   0.01267  Uiso   1.00
C42    C     0.77730   0.46060   0.27080   0.01267  Uiso   1.00
C43    C     0.21300   0.28750   0.28520   0.01267  Uiso   1.00
C44    C     0.23030   0.20130   0.35940   0.01267  Uiso   1.00
C45    C     0.13020   0.18170   0.43960   0.01267  Uiso   1.00
C46    C     0.14660   0.09400   0.51100   0.01267  Uiso   1.00
C47    C     0.95890   0.45350   0.27060   0.01267  Uiso   1.00
C48    C     0.95190   0.26860   0.27080   0.01267  Uiso   1.00
C49    C     0.58360   0.08360   0.83280   0.01267  Uiso   1.00
C50    C     0.68160   0.18160   0.63680   0.01267  Uiso   1.00
C51    C     0.83360   0.83360   0.33280   0.01267  Uiso   1.00
C52    C     0.93160   0.93160   0.13680   0.01267  Uiso   1.00
C53    C     0.16640   0.16640   0.66720   0.01267  Uiso   1.00
C54    C     0.06840   0.06840   0.86320   0.01267  Uiso   1.00
C55    C     0.91640   0.41640   0.16720   0.01267  Uiso   1.00
C56    C     0.81840   0.31840   0.36320   0.01267  Uiso   1.00
C57    C     0.40870   0.59130   0.00000   0.01267  Uiso   1.00
C58    C     0.59130   0.40870   0.00000   0.01267  Uiso   1.00
C59    C     0.34130   0.84130   0.50000   0.01267  Uiso   1.00
C60    C     0.15870   0.65870   0.50000   0.01267  Uiso   1.00
C61    C     0.55300   0.55300   0.89400   0.01267  Uiso   1.00
C62    C     0.30300   0.80300   0.39400   0.01267  Uiso   1.00
C63    C     0.19700   0.69700   0.60600   0.01267  Uiso   1.00
C64    C     0.44700   0.44700   0.10600   0.01267  Uiso   1.00
C65    C     0.59250   0.59250   0.00000   0.01267  Uiso   1.00
C66    C     0.40750   0.40750   1.00000   0.01267  Uiso   1.00
C67    C     0.34250   0.65750   0.50000   0.01267  Uiso   1.00
C68    C     0.15750   0.84250   0.50000   0.01267  Uiso   1.00
N1     N     0.61250   0.01480   0.78220   0.01267  Uiso   1.00
N2     N     0.56100   0.15690   0.67580   0.01267  Uiso   1.00
N3     N     0.52800   0.62080   0.94600   0.01267  Uiso   1.00
N4     N     0.60530   0.20300   0.78220   0.01267  Uiso   1.00
N5     N     0.76320   0.16730   0.67580   0.01267  Uiso   1.00
N6     N     0.52600   0.43320   0.94600   0.01267  Uiso   1.00
N7     N     0.76480   0.85530   0.28220   0.01267  Uiso   1.00
N8     N     0.90690   0.01320   0.17580   0.01267  Uiso   1.00
N9     N     0.37080   0.77600   0.44600   0.01267  Uiso   1.00
N10    N     0.95300   0.86250   0.28220   0.01267  Uiso   1.00
N11    N     0.91730   0.81100   0.17580   0.01267  Uiso   1.00
N12    N     0.18320   0.77800   0.44600   0.01267  Uiso   1.00
N13    N     0.14470   0.23520   0.71780   0.01267  Uiso   1.00
N14    N     0.98680   0.09310   0.82420   0.01267  Uiso   1.00
N15    N     0.22400   0.62920   0.55400   0.01267  Uiso   1.00
N16    N     0.13750   0.04700   0.71780   0.01267  Uiso   1.00
N17    N     0.18900   0.08270   0.82420   0.01267  Uiso   1.00
N18    N     0.22200   0.81680   0.55400   0.01267  Uiso   1.00
N19    N     0.79700   0.39470   0.21780   0.01267  Uiso   1.00
N20    N     0.83270   0.23680   0.32420   0.01267  Uiso   1.00
N21    N     0.56680   0.47400   0.05400   0.01267  Uiso   1.00
N22    N     0.98520   0.38750   0.21780   0.01267  Uiso   1.00
N23    N     0.84310   0.43900   0.32420   0.01267  Uiso   1.00
N24    N     0.37920   0.47200   0.05400   0.01267  Uiso   1.00
O1     O     0.73810   0.79390   0.77100   0.01267  Uiso   1.00
O2     O     0.61630   0.79050   0.71860   0.01267  Uiso   1.00
O3     O     0.90130   0.74980   0.65080   0.01267  Uiso   1.00
O4     O     0.83940   0.96870   0.57260   0.01267  Uiso   1.00
O5     O     0.97720   0.93750   0.43740   0.01267  Uiso   1.00
O6     O     0.90880   0.76030   0.48360   0.01267  Uiso   1.00
O7     O     0.49090   0.43510   0.77100   0.01267  Uiso   1.00
O8     O     0.66510   0.49090   0.71860   0.01267  Uiso   1.00
O9     O     0.44790   0.59940   0.65080   0.01267  Uiso   1.00
O10    O     0.58800   0.45870   0.57260   0.01267  Uiso   1.00
O11    O     0.58540   0.62510   0.43740   0.01267  Uiso   1.00
O12    O     0.60760   0.75610   0.48360   0.01267  Uiso   1.00
O13    O     0.54390   0.74090   0.27100   0.01267  Uiso   1.00
O14    O     0.54050   0.91510   0.21860   0.01267  Uiso   1.00
O15    O     0.49980   0.69790   0.15080   0.01267  Uiso   1.00
O16    O     0.71870   0.83800   0.07260   0.01267  Uiso   1.00
O17    O     0.68750   0.83540   0.93740   0.01267  Uiso   1.00
O18    O     0.51030   0.85760   0.98360   0.01267  Uiso   1.00
O19    O     0.18510   0.98810   0.27100   0.01267  Uiso   1.00
O20    O     0.24090   0.86630   0.21860   0.01267  Uiso   1.00
O21    O     0.34940   0.15130   0.15080   0.01267  Uiso   1.00
O22    O     0.20870   0.08940   0.07260   0.01267  Uiso   1.00
O23    O     0.37510   0.22720   0.93740   0.01267  Uiso   1.00
O24    O     0.50610   0.15880   0.98360   0.01267  Uiso   1.00
O25    O     0.25910   0.45610   0.72900   0.01267  Uiso   1.00
O26    O     0.08490   0.45950   0.78140   0.01267  Uiso   1.00
O27    O     0.30210   0.50020   0.84920   0.01267  Uiso   1.00
O28    O     0.16200   0.28130   0.92740   0.01267  Uiso   1.00
O29    O     0.16460   0.31250   0.06260   0.01267  Uiso   1.00
O30    O     0.14240   0.48970   0.01640   0.01267  Uiso   1.00
O31    O     0.01190   0.81490   0.72900   0.01267  Uiso   1.00
O32    O     0.13370   0.75910   0.78140   0.01267  Uiso   1.00
O33    O     0.84870   0.65060   0.84920   0.01267  Uiso   1.00
O34    O     0.91060   0.79130   0.92740   0.01267  Uiso   1.00
O35    O     0.77280   0.62490   0.06260   0.01267  Uiso   1.00
O36    O     0.84120   0.49390   0.01640   0.01267  Uiso   1.00
O37    O     0.56490   0.50910   0.22900   0.01267  Uiso   1.00
O38    O     0.50910   0.33490   0.28140   0.01267  Uiso   1.00
O39    O     0.40060   0.55210   0.34920   0.01267  Uiso   1.00
O40    O     0.54130   0.41200   0.42740   0.01267  Uiso   1.00
O41    O     0.37490   0.41460   0.56260   0.01267  Uiso   1.00
O42    O     0.24390   0.39240   0.51640   0.01267  Uiso   1.00
O43    O     0.20610   0.26190   0.22900   0.01267  Uiso   1.00
O44    O     0.20950   0.38370   0.28140   0.01267  Uiso   1.00
O45    O     0.25020   0.09870   0.34920   0.01267  Uiso   1.00
O46    O     0.03130   0.16060   0.42740   0.01267  Uiso   1.00
O47    O     0.06250   0.02280   0.56260   0.01267  Uiso   1.00
O48    O     0.23970   0.09120   0.51640   0.01267  Uiso   1.00
