data_image0
_cell_length_a       19.857
_cell_length_b       19.857
_cell_length_c       19.857
_cell_angle_alpha    90
_cell_angle_beta     90
_cell_angle_gamma    90

_symmetry_space_group_name_H-M    "P 1"
_symmetry_int_tables_number       1

loop_
  _symmetry_equiv_pos_as_xyz
  'x, y, z'

loop_
  _atom_site_label
  _atom_site_occupancy
  _atom_site_fract_x
  _atom_site_fract_y
  _atom_site_fract_z
  _atom_site_thermal_displace_type
  _atom_site_B_iso_or_equiv
  _atom_site_type_symbol
  Re1      1.0000 0.18770  0.28124  0.18770  Biso   1.000  Re
  C1       1.0000 0.11690  0.31590  0.11690  Biso   1.000  C
  N1       1.0000 0.07750  0.33220  0.07750  Biso   1.000  N
  Re2      1.0000 0.68770  0.78124  0.68770  Biso   1.000  Re
  C2       1.0000 0.61690  0.81590  0.61690  Biso   1.000  C
  N2       1.0000 0.57750  0.83220  0.57750  Biso   1.000  N
  Re3      1.0000 0.81230  0.71876  0.18770  Biso   1.000  Re
  C3       1.0000 0.88310  0.68410  0.11690  Biso   1.000  C
  N3       1.0000 0.92250  0.66780  0.07750  Biso   1.000  N
  Re4      1.0000 0.31230  0.21876  0.68770  Biso   1.000  Re
  C4       1.0000 0.38310  0.18410  0.61690  Biso   1.000  C
  N4       1.0000 0.42250  0.16780  0.57750  Biso   1.000  N
  Re5      1.0000 0.81230  0.28124  0.81230  Biso   1.000  Re
  C5       1.0000 0.88310  0.31590  0.88310  Biso   1.000  C
  N5       1.0000 0.92250  0.33220  0.92250  Biso   1.000  N
  Re6      1.0000 0.31230  0.78124  0.31230  Biso   1.000  Re
  C6       1.0000 0.38310  0.81590  0.38310  Biso   1.000  C
  N6       1.0000 0.42250  0.83220  0.42250  Biso   1.000  N
  Re7      1.0000 0.18770  0.71876  0.81230  Biso   1.000  Re
  C7       1.0000 0.11690  0.68410  0.88310  Biso   1.000  C
  N7       1.0000 0.07750  0.66780  0.92250  Biso   1.000  N
  Re8      1.0000 0.68770  0.21876  0.31230  Biso   1.000  Re
  C8       1.0000 0.61690  0.18410  0.38310  Biso   1.000  C
  N8       1.0000 0.57750  0.16780  0.42250  Biso   1.000  N
  Re9      1.0000 0.18770  0.18770  0.28124  Biso   1.000  Re
  C9       1.0000 0.11690  0.11690  0.31590  Biso   1.000  C
  N9       1.0000 0.07750  0.07750  0.33220  Biso   1.000  N
  Re10     1.0000 0.68770  0.68770  0.78124  Biso   1.000  Re
  C10      1.0000 0.61690  0.61690  0.81590  Biso   1.000  C
  N10      1.0000 0.57750  0.57750  0.83220  Biso   1.000  N
  Re11     1.0000 0.18770  0.81230  0.71876  Biso   1.000  Re
  C11      1.0000 0.11690  0.88310  0.68410  Biso   1.000  C
  N11      1.0000 0.07750  0.92250  0.66780  Biso   1.000  N
  Re12     1.0000 0.68770  0.31230  0.21876  Biso   1.000  Re
  C12      1.0000 0.61690  0.38310  0.18410  Biso   1.000  C
  N12      1.0000 0.57750  0.42250  0.16780  Biso   1.000  N
  Re13     1.0000 0.81230  0.81230  0.28124  Biso   1.000  Re
  C13      1.0000 0.88310  0.88310  0.31590  Biso   1.000  C
  N13      1.0000 0.92250  0.92250  0.33220  Biso   1.000  N
  Re14     1.0000 0.31230  0.31230  0.78124  Biso   1.000  Re
  C14      1.0000 0.38310  0.38310  0.81590  Biso   1.000  C
  N14      1.0000 0.42250  0.42250  0.83220  Biso   1.000  N
  Re15     1.0000 0.81230  0.18770  0.71876  Biso   1.000  Re
  C15      1.0000 0.88310  0.11690  0.68410  Biso   1.000  C
  N15      1.0000 0.92250  0.07750  0.66780  Biso   1.000  N
  Re16     1.0000 0.31230  0.68770  0.21876  Biso   1.000  Re
  C16      1.0000 0.38310  0.61690  0.18410  Biso   1.000  C
  N16      1.0000 0.42250  0.57750  0.16780  Biso   1.000  N
  Re17     1.0000 0.28124  0.18770  0.18770  Biso   1.000  Re
  C17      1.0000 0.31590  0.11690  0.11690  Biso   1.000  C
  N17      1.0000 0.33220  0.07750  0.07750  Biso   1.000  N
  Re18     1.0000 0.78124  0.68770  0.68770  Biso   1.000  Re
  C18      1.0000 0.81590  0.61690  0.61690  Biso   1.000  C
  N18      1.0000 0.83220  0.57750  0.57750  Biso   1.000  N
  Re19     1.0000 0.71876  0.18770  0.81230  Biso   1.000  Re
  C19      1.0000 0.68410  0.11690  0.88310  Biso   1.000  C
  N19      1.0000 0.66780  0.07750  0.92250  Biso   1.000  N
  Re20     1.0000 0.21876  0.68770  0.31230  Biso   1.000  Re
  C20      1.0000 0.18410  0.61690  0.38310  Biso   1.000  C
  N20      1.0000 0.16780  0.57750  0.42250  Biso   1.000  N
  Re21     1.0000 0.28124  0.81230  0.81230  Biso   1.000  Re
  C21      1.0000 0.31590  0.88310  0.88310  Biso   1.000  C
  N21      1.0000 0.33220  0.92250  0.92250  Biso   1.000  N
  Re22     1.0000 0.78124  0.31230  0.31230  Biso   1.000  Re
  C22      1.0000 0.81590  0.38310  0.38310  Biso   1.000  C
  N22      1.0000 0.83220  0.42250  0.42250  Biso   1.000  N
  Re23     1.0000 0.71876  0.81230  0.18770  Biso   1.000  Re
  C23      1.0000 0.68410  0.88310  0.11690  Biso   1.000  C
  N23      1.0000 0.66780  0.92250  0.07750  Biso   1.000  N
  Re24     1.0000 0.21876  0.31230  0.68770  Biso   1.000  Re
  C24      1.0000 0.18410  0.38310  0.61690  Biso   1.000  C
  N24      1.0000 0.16780  0.42250  0.57750  Biso   1.000  N
  Re25     1.0000 0.28124  0.18770  0.81230  Biso   1.000  Re
  C25      1.0000 0.31590  0.11690  0.88310  Biso   1.000  C
  N25      1.0000 0.33220  0.07750  0.92250  Biso   1.000  N
  Re26     1.0000 0.78124  0.68770  0.31230  Biso   1.000  Re
  C26      1.0000 0.81590  0.61690  0.38310  Biso   1.000  C
  N26      1.0000 0.83220  0.57750  0.42250  Biso   1.000  N
  Re27     1.0000 0.71876  0.81230  0.81230  Biso   1.000  Re
  C27      1.0000 0.68410  0.88310  0.88310  Biso   1.000  C
  N27      1.0000 0.66780  0.92250  0.92250  Biso   1.000  N
  Re28     1.0000 0.21876  0.31230  0.31230  Biso   1.000  Re
  C28      1.0000 0.18410  0.38310  0.38310  Biso   1.000  C
  N28      1.0000 0.16780  0.42250  0.42250  Biso   1.000  N
  Re29     1.0000 0.28124  0.81230  0.18770  Biso   1.000  Re
  C29      1.0000 0.31590  0.88310  0.11690  Biso   1.000  C
  N29      1.0000 0.33220  0.92250  0.07750  Biso   1.000  N
  Re30     1.0000 0.78124  0.31230  0.68770  Biso   1.000  Re
  C30      1.0000 0.81590  0.38310  0.61690  Biso   1.000  C
  N30      1.0000 0.83220  0.42250  0.57750  Biso   1.000  N
  Re31     1.0000 0.71876  0.18770  0.18770  Biso   1.000  Re
  C31      1.0000 0.68410  0.11690  0.11690  Biso   1.000  C
  N31      1.0000 0.66780  0.07750  0.07750  Biso   1.000  N
  Re32     1.0000 0.21876  0.68770  0.68770  Biso   1.000  Re
  C32      1.0000 0.18410  0.61690  0.61690  Biso   1.000  C
  N32      1.0000 0.16780  0.57750  0.57750  Biso   1.000  N
  Re33     1.0000 0.18770  0.18770  0.71876  Biso   1.000  Re
  C33      1.0000 0.11690  0.11690  0.68410  Biso   1.000  C
  N33      1.0000 0.07750  0.07750  0.66780  Biso   1.000  N
  Re34     1.0000 0.68770  0.68770  0.21876  Biso   1.000  Re
  C34      1.0000 0.61690  0.61690  0.18410  Biso   1.000  C
  N34      1.0000 0.57750  0.57750  0.16780  Biso   1.000  N
  Re35     1.0000 0.81230  0.18770  0.28124  Biso   1.000  Re
  C35      1.0000 0.88310  0.11690  0.31590  Biso   1.000  C
  N35      1.0000 0.92250  0.07750  0.33220  Biso   1.000  N
  Re36     1.0000 0.31230  0.68770  0.78124  Biso   1.000  Re
  C36      1.0000 0.38310  0.61690  0.81590  Biso   1.000  C
  N36      1.0000 0.42250  0.57750  0.83220  Biso   1.000  N
  Re37     1.0000 0.81230  0.81230  0.71876  Biso   1.000  Re
  C37      1.0000 0.88310  0.88310  0.68410  Biso   1.000  C
  N37      1.0000 0.92250  0.92250  0.66780  Biso   1.000  N
  Re38     1.0000 0.31230  0.31230  0.21876  Biso   1.000  Re
  C38      1.0000 0.38310  0.38310  0.18410  Biso   1.000  C
  N38      1.0000 0.42250  0.42250  0.16780  Biso   1.000  N
  Re39     1.0000 0.18770  0.81230  0.28124  Biso   1.000  Re
  C39      1.0000 0.11690  0.88310  0.31590  Biso   1.000  C
  N39      1.0000 0.07750  0.92250  0.33220  Biso   1.000  N
  Re40     1.0000 0.68770  0.31230  0.78124  Biso   1.000  Re
  C40      1.0000 0.61690  0.38310  0.81590  Biso   1.000  C
  N40      1.0000 0.57750  0.42250  0.83220  Biso   1.000  N
  Re41     1.0000 0.18770  0.28124  0.81230  Biso   1.000  Re
  C41      1.0000 0.11690  0.31590  0.88310  Biso   1.000  C
  N41      1.0000 0.07750  0.33220  0.92250  Biso   1.000  N
  Re42     1.0000 0.68770  0.78124  0.31230  Biso   1.000  Re
  C42      1.0000 0.61690  0.81590  0.38310  Biso   1.000  C
  N42      1.0000 0.57750  0.83220  0.42250  Biso   1.000  N
  Re43     1.0000 0.18770  0.71876  0.18770  Biso   1.000  Re
  C43      1.0000 0.11690  0.68410  0.11690  Biso   1.000  C
  N43      1.0000 0.07750  0.66780  0.07750  Biso   1.000  N
  Re44     1.0000 0.68770  0.21876  0.68770  Biso   1.000  Re
  C44      1.0000 0.61690  0.18410  0.61690  Biso   1.000  C
  N44      1.0000 0.57750  0.16780  0.57750  Biso   1.000  N
  Re45     1.0000 0.81230  0.28124  0.18770  Biso   1.000  Re
  C45      1.0000 0.88310  0.31590  0.11690  Biso   1.000  C
  N45      1.0000 0.92250  0.33220  0.07750  Biso   1.000  N
  Re46     1.0000 0.31230  0.78124  0.68770  Biso   1.000  Re
  C46      1.0000 0.38310  0.81590  0.61690  Biso   1.000  C
  N46      1.0000 0.42250  0.83220  0.57750  Biso   1.000  N
  Re47     1.0000 0.81230  0.71876  0.81230  Biso   1.000  Re
  C47      1.0000 0.88310  0.68410  0.88310  Biso   1.000  C
  N47      1.0000 0.92250  0.66780  0.92250  Biso   1.000  N
  Re48     1.0000 0.31230  0.21876  0.31230  Biso   1.000  Re
  C48      1.0000 0.38310  0.18410  0.38310  Biso   1.000  C
  N48      1.0000 0.42250  0.16780  0.42250  Biso   1.000  N
  Se1      1.0000 0.27980  0.27980  0.10045  Biso   1.000  Se
  Se2      1.0000 0.77980  0.77980  0.60045  Biso   1.000  Se
  Se3      1.0000 0.72020  0.72020  0.10045  Biso   1.000  Se
  Se4      1.0000 0.22020  0.22020  0.60045  Biso   1.000  Se
  Se5      1.0000 0.72020  0.27980  0.89955  Biso   1.000  Se
  Se6      1.0000 0.22020  0.77980  0.39955  Biso   1.000  Se
  Se7      1.0000 0.27980  0.72020  0.89955  Biso   1.000  Se
  Se8      1.0000 0.77980  0.22020  0.39955  Biso   1.000  Se
  Se9      1.0000 0.10045  0.27980  0.27980  Biso   1.000  Se
  Se10     1.0000 0.60045  0.77980  0.77980  Biso   1.000  Se
  Se11     1.0000 0.10045  0.72020  0.72020  Biso   1.000  Se
  Se12     1.0000 0.60045  0.22020  0.22020  Biso   1.000  Se
  Se13     1.0000 0.89955  0.72020  0.27980  Biso   1.000  Se
  Se14     1.0000 0.39955  0.22020  0.77980  Biso   1.000  Se
  Se15     1.0000 0.89955  0.27980  0.72020  Biso   1.000  Se
  Se16     1.0000 0.39955  0.77980  0.22020  Biso   1.000  Se
  Se17     1.0000 0.27980  0.10045  0.27980  Biso   1.000  Se
  Se18     1.0000 0.77980  0.60045  0.77980  Biso   1.000  Se
  Se19     1.0000 0.72020  0.10045  0.72020  Biso   1.000  Se
  Se20     1.0000 0.22020  0.60045  0.22020  Biso   1.000  Se
  Se21     1.0000 0.27980  0.89955  0.72020  Biso   1.000  Se
  Se22     1.0000 0.77980  0.39955  0.22020  Biso   1.000  Se
  Se23     1.0000 0.72020  0.89955  0.27980  Biso   1.000  Se
  Se24     1.0000 0.22020  0.39955  0.77980  Biso   1.000  Se
  Se25     1.0000 0.27980  0.27980  0.89955  Biso   1.000  Se
  Se26     1.0000 0.77980  0.77980  0.39955  Biso   1.000  Se
  Se27     1.0000 0.72020  0.72020  0.89955  Biso   1.000  Se
  Se28     1.0000 0.22020  0.22020  0.39955  Biso   1.000  Se
  Se29     1.0000 0.27980  0.72020  0.10045  Biso   1.000  Se
  Se30     1.0000 0.77980  0.22020  0.60045  Biso   1.000  Se
  Se31     1.0000 0.72020  0.27980  0.10045  Biso   1.000  Se
  Se32     1.0000 0.22020  0.77980  0.60045  Biso   1.000  Se
  Se33     1.0000 0.27980  0.10045  0.72020  Biso   1.000  Se
  Se34     1.0000 0.77980  0.60045  0.22020  Biso   1.000  Se
  Se35     1.0000 0.72020  0.10045  0.27980  Biso   1.000  Se
  Se36     1.0000 0.22020  0.60045  0.77980  Biso   1.000  Se
  Se37     1.0000 0.72020  0.89955  0.72020  Biso   1.000  Se
  Se38     1.0000 0.22020  0.39955  0.22020  Biso   1.000  Se
  Se39     1.0000 0.27980  0.89955  0.27980  Biso   1.000  Se
  Se40     1.0000 0.77980  0.39955  0.77980  Biso   1.000  Se
  Se41     1.0000 0.10045  0.27980  0.72020  Biso   1.000  Se
  Se42     1.0000 0.60045  0.77980  0.22020  Biso   1.000  Se
  Se43     1.0000 0.10045  0.72020  0.27980  Biso   1.000  Se
  Se44     1.0000 0.60045  0.22020  0.77980  Biso   1.000  Se
  Se45     1.0000 0.89955  0.27980  0.27980  Biso   1.000  Se
  Se46     1.0000 0.39955  0.77980  0.77980  Biso   1.000  Se
  Se47     1.0000 0.89955  0.72020  0.72020  Biso   1.000  Se
  Se48     1.0000 0.39955  0.22020  0.22020  Biso   1.000  Se
  Se49     1.0000 0.16075  0.16075  0.16075  Biso   1.000  Se
  Se50     1.0000 0.66075  0.66075  0.66075  Biso   1.000  Se
  Se51     1.0000 0.83925  0.83925  0.16075  Biso   1.000  Se
  Se52     1.0000 0.33925  0.33925  0.66075  Biso   1.000  Se
  Se53     1.0000 0.83925  0.16075  0.83925  Biso   1.000  Se
  Se54     1.0000 0.33925  0.66075  0.33925  Biso   1.000  Se
  Se55     1.0000 0.16075  0.83925  0.83925  Biso   1.000  Se
  Se56     1.0000 0.66075  0.33925  0.33925  Biso   1.000  Se
  Se57     1.0000 0.16075  0.16075  0.83925  Biso   1.000  Se
  Se58     1.0000 0.66075  0.66075  0.33925  Biso   1.000  Se
  Se59     1.0000 0.83925  0.83925  0.83925  Biso   1.000  Se
  Se60     1.0000 0.33925  0.33925  0.33925  Biso   1.000  Se
  Se61     1.0000 0.16075  0.83925  0.16075  Biso   1.000  Se
  Se62     1.0000 0.66075  0.33925  0.66075  Biso   1.000  Se
  Se63     1.0000 0.83925  0.16075  0.16075  Biso   1.000  Se
  Se64     1.0000 0.33925  0.66075  0.66075  Biso   1.000  Se
  Mn1      1.0000 0.00000  0.34000  0.00000  Biso   1.000  Mn
  Mn2      1.0000 0.50000  0.84000  0.50000  Biso   1.000  Mn
  Mn3      1.0000 0.00000  0.66000  0.00000  Biso   1.000  Mn
  Mn4      1.0000 0.50000  0.16000  0.50000  Biso   1.000  Mn
  Mn5      1.0000 0.00000  0.00000  0.34000  Biso   1.000  Mn
  Mn6      1.0000 0.50000  0.50000  0.84000  Biso   1.000  Mn
  Mn7      1.0000 0.00000  0.00000  0.66000  Biso   1.000  Mn
  Mn8      1.0000 0.50000  0.50000  0.16000  Biso   1.000  Mn
  Mn9      1.0000 0.34000  0.00000  0.00000  Biso   1.000  Mn
  Mn10     1.0000 0.84000  0.50000  0.50000  Biso   1.000  Mn
  Mn11     1.0000 0.66000  0.00000  0.00000  Biso   1.000  Mn
  Mn12     1.0000 0.16000  0.50000  0.50000  Biso   1.000  Mn
