data_image0
_cell_length_a       20.463
_cell_length_b       20.463
_cell_length_c       17.989
_cell_angle_alpha    90
_cell_angle_beta     90
_cell_angle_gamma    120

_symmetry_space_group_name_H-M    "P 1"
_symmetry_int_tables_number       1

loop_
  _symmetry_equiv_pos_as_xyz
  'x, y, z'

loop_
  _atom_site_label
  _atom_site_occupancy
  _atom_site_fract_x
  _atom_site_fract_y
  _atom_site_fract_z
  _atom_site_thermal_displace_type
  _atom_site_B_iso_or_equiv
  _atom_site_type_symbol
  Cu1      1.0000 0.09222  0.34004  0.48494  Biso   1.000  Cu
  N1       1.0000 0.13580  0.33980  0.38200  Biso   1.000  N
  N2       1.0000 0.03770  0.40190  0.48940  Biso   1.000  N
  C1       1.0000 0.09970  0.33260  0.31890  Biso   1.000  C
  C2       1.0000 0.02640  0.33300  0.32080  Biso   1.000  C
  H1       1.0000 0.03650  0.38410  0.32440  Biso   1.000  H
  H2       1.0000 0.99800  0.30600  0.36380  Biso   1.000  H
  C3       1.0000 0.07380  0.47620  0.47750  Biso   1.000  C
  C4       1.0000 0.15400  0.51480  0.45100  Biso   1.000  C
  H3       1.0000 0.15460  0.50930  0.39800  Biso   1.000  H
  H4       1.0000 0.17940  0.49090  0.47300  Biso   1.000  H
  Cu2      1.0000 0.65996  0.75218  0.48494  Biso   1.000  Cu
  N3       1.0000 0.66020  0.79600  0.38200  Biso   1.000  N
  N4       1.0000 0.59810  0.63580  0.48940  Biso   1.000  N
  C5       1.0000 0.66740  0.76710  0.31890  Biso   1.000  C
  C6       1.0000 0.66700  0.69340  0.32080  Biso   1.000  C
  H5       1.0000 0.61590  0.65240  0.32440  Biso   1.000  H
  H6       1.0000 0.69400  0.69200  0.36380  Biso   1.000  H
  C7       1.0000 0.52380  0.59760  0.47750  Biso   1.000  C
  C8       1.0000 0.48520  0.63920  0.45100  Biso   1.000  C
  H7       1.0000 0.49070  0.64530  0.39800  Biso   1.000  H
  H8       1.0000 0.50910  0.68850  0.47300  Biso   1.000  H
  Cu3      1.0000 0.24782  0.90778  0.48494  Biso   1.000  Cu
  N5       1.0000 0.20400  0.86420  0.38200  Biso   1.000  N
  N6       1.0000 0.36420  0.96230  0.48940  Biso   1.000  N
  C9       1.0000 0.23290  0.90030  0.31890  Biso   1.000  C
  C10      1.0000 0.30660  0.97360  0.32080  Biso   1.000  C
  H9       1.0000 0.34760  0.96350  0.32440  Biso   1.000  H
  H10      1.0000 0.30800  0.00200  0.36380  Biso   1.000  H
  C11      1.0000 0.40240  0.92620  0.47750  Biso   1.000  C
  C12      1.0000 0.36080  0.84600  0.45100  Biso   1.000  C
  H11      1.0000 0.35470  0.84540  0.39800  Biso   1.000  H
  H12      1.0000 0.31150  0.82060  0.47300  Biso   1.000  H
  Cu4      1.0000 0.90778  0.65996  0.98494  Biso   1.000  Cu
  N7       1.0000 0.86420  0.66020  0.88200  Biso   1.000  N
  N8       1.0000 0.96230  0.59810  0.98940  Biso   1.000  N
  C13      1.0000 0.90030  0.66740  0.81890  Biso   1.000  C
  C14      1.0000 0.97360  0.66700  0.82080  Biso   1.000  C
  H13      1.0000 0.96350  0.61590  0.82440  Biso   1.000  H
  H14      1.0000 0.00200  0.69400  0.86380  Biso   1.000  H
  C15      1.0000 0.92620  0.52380  0.97750  Biso   1.000  C
  C16      1.0000 0.84600  0.48520  0.95100  Biso   1.000  C
  H15      1.0000 0.84540  0.49070  0.89800  Biso   1.000  H
  H16      1.0000 0.82060  0.50910  0.97300  Biso   1.000  H
  Cu5      1.0000 0.34004  0.24782  0.98494  Biso   1.000  Cu
  N9       1.0000 0.33980  0.20400  0.88200  Biso   1.000  N
  N10      1.0000 0.40190  0.36420  0.98940  Biso   1.000  N
  C17      1.0000 0.33260  0.23290  0.81890  Biso   1.000  C
  C18      1.0000 0.33300  0.30660  0.82080  Biso   1.000  C
  H17      1.0000 0.38410  0.34760  0.82440  Biso   1.000  H
  H18      1.0000 0.30600  0.30800  0.86380  Biso   1.000  H
  C19      1.0000 0.47620  0.40240  0.97750  Biso   1.000  C
  C20      1.0000 0.51480  0.36080  0.95100  Biso   1.000  C
  H19      1.0000 0.50930  0.35470  0.89800  Biso   1.000  H
  H20      1.0000 0.49090  0.31150  0.97300  Biso   1.000  H
  Cu6      1.0000 0.75218  0.09222  0.98494  Biso   1.000  Cu
  N11      1.0000 0.79600  0.13580  0.88200  Biso   1.000  N
  N12      1.0000 0.63580  0.03770  0.98940  Biso   1.000  N
  C21      1.0000 0.76710  0.09970  0.81890  Biso   1.000  C
  C22      1.0000 0.69340  0.02640  0.82080  Biso   1.000  C
  H21      1.0000 0.65240  0.03650  0.82440  Biso   1.000  H
  H22      1.0000 0.69200  0.99800  0.86380  Biso   1.000  H
  C23      1.0000 0.59760  0.07380  0.97750  Biso   1.000  C
  C24      1.0000 0.63920  0.15400  0.95100  Biso   1.000  C
  H23      1.0000 0.64530  0.15460  0.89800  Biso   1.000  H
  H24      1.0000 0.68850  0.17940  0.97300  Biso   1.000  H
  Cu7      1.0000 0.34004  0.09222  0.51506  Biso   1.000  Cu
  N13      1.0000 0.33980  0.13580  0.61800  Biso   1.000  N
  N14      1.0000 0.40190  0.03770  0.51060  Biso   1.000  N
  C25      1.0000 0.33260  0.09970  0.68110  Biso   1.000  C
  C26      1.0000 0.33300  0.02640  0.67920  Biso   1.000  C
  H25      1.0000 0.38410  0.03650  0.67560  Biso   1.000  H
  H26      1.0000 0.30600  0.99800  0.63620  Biso   1.000  H
  C27      1.0000 0.47620  0.07380  0.52250  Biso   1.000  C
  C28      1.0000 0.51480  0.15400  0.54900  Biso   1.000  C
  H27      1.0000 0.50930  0.15460  0.60200  Biso   1.000  H
  H28      1.0000 0.49090  0.17940  0.52700  Biso   1.000  H
  Cu8      1.0000 0.75218  0.65996  0.51506  Biso   1.000  Cu
  N15      1.0000 0.79600  0.66020  0.61800  Biso   1.000  N
  N16      1.0000 0.63580  0.59810  0.51060  Biso   1.000  N
  C29      1.0000 0.76710  0.66740  0.68110  Biso   1.000  C
  C30      1.0000 0.69340  0.66700  0.67920  Biso   1.000  C
  H29      1.0000 0.65240  0.61590  0.67560  Biso   1.000  H
  H30      1.0000 0.69200  0.69400  0.63620  Biso   1.000  H
  C31      1.0000 0.59760  0.52380  0.52250  Biso   1.000  C
  C32      1.0000 0.63920  0.48520  0.54900  Biso   1.000  C
  H31      1.0000 0.64530  0.49070  0.60200  Biso   1.000  H
  H32      1.0000 0.68850  0.50910  0.52700  Biso   1.000  H
  Cu9      1.0000 0.90778  0.24782  0.51506  Biso   1.000  Cu
  N17      1.0000 0.86420  0.20400  0.61800  Biso   1.000  N
  N18      1.0000 0.96230  0.36420  0.51060  Biso   1.000  N
  C33      1.0000 0.90030  0.23290  0.68110  Biso   1.000  C
  C34      1.0000 0.97360  0.30660  0.67920  Biso   1.000  C
  H33      1.0000 0.96350  0.34760  0.67560  Biso   1.000  H
  H34      1.0000 0.00200  0.30800  0.63620  Biso   1.000  H
  C35      1.0000 0.92620  0.40240  0.52250  Biso   1.000  C
  C36      1.0000 0.84600  0.36080  0.54900  Biso   1.000  C
  H35      1.0000 0.84540  0.35470  0.60200  Biso   1.000  H
  H36      1.0000 0.82060  0.31150  0.52700  Biso   1.000  H
  Cu10     1.0000 0.65996  0.90778  0.01506  Biso   1.000  Cu
  N19      1.0000 0.66020  0.86420  0.11800  Biso   1.000  N
  N20      1.0000 0.59810  0.96230  0.01060  Biso   1.000  N
  C37      1.0000 0.66740  0.90030  0.18110  Biso   1.000  C
  C38      1.0000 0.66700  0.97360  0.17920  Biso   1.000  C
  H37      1.0000 0.61590  0.96350  0.17560  Biso   1.000  H
  H38      1.0000 0.69400  0.00200  0.13620  Biso   1.000  H
  C39      1.0000 0.52380  0.92620  0.02250  Biso   1.000  C
  C40      1.0000 0.48520  0.84600  0.04900  Biso   1.000  C
  H39      1.0000 0.49070  0.84540  0.10200  Biso   1.000  H
  H40      1.0000 0.50910  0.82060  0.02700  Biso   1.000  H
  Cu11     1.0000 0.24782  0.34004  0.01506  Biso   1.000  Cu
  N21      1.0000 0.20400  0.33980  0.11800  Biso   1.000  N
  N22      1.0000 0.36420  0.40190  0.01060  Biso   1.000  N
  C41      1.0000 0.23290  0.33260  0.18110  Biso   1.000  C
  C42      1.0000 0.30660  0.33300  0.17920  Biso   1.000  C
  H41      1.0000 0.34760  0.38410  0.17560  Biso   1.000  H
  H42      1.0000 0.30800  0.30600  0.13620  Biso   1.000  H
  C43      1.0000 0.40240  0.47620  0.02250  Biso   1.000  C
  C44      1.0000 0.36080  0.51480  0.04900  Biso   1.000  C
  H43      1.0000 0.35470  0.50930  0.10200  Biso   1.000  H
  H44      1.0000 0.31150  0.49090  0.02700  Biso   1.000  H
  Cu12     1.0000 0.09222  0.75218  0.01506  Biso   1.000  Cu
  N23      1.0000 0.13580  0.79600  0.11800  Biso   1.000  N
  N24      1.0000 0.03770  0.63580  0.01060  Biso   1.000  N
  C45      1.0000 0.09970  0.76710  0.18110  Biso   1.000  C
  C46      1.0000 0.02640  0.69340  0.17920  Biso   1.000  C
  H45      1.0000 0.03650  0.65240  0.17560  Biso   1.000  H
  H46      1.0000 0.99800  0.69200  0.13620  Biso   1.000  H
  C47      1.0000 0.07380  0.59760  0.02250  Biso   1.000  C
  C48      1.0000 0.15400  0.63920  0.04900  Biso   1.000  C
  H47      1.0000 0.15460  0.64530  0.10200  Biso   1.000  H
  H48      1.0000 0.17940  0.68850  0.02700  Biso   1.000  H
  Cu13     1.0000 0.90778  0.65996  0.51506  Biso   1.000  Cu
  N25      1.0000 0.86420  0.66020  0.61800  Biso   1.000  N
  N26      1.0000 0.96230  0.59810  0.51060  Biso   1.000  N
  C49      1.0000 0.90030  0.66740  0.68110  Biso   1.000  C
  C50      1.0000 0.97360  0.66700  0.67920  Biso   1.000  C
  H49      1.0000 0.96350  0.61590  0.67560  Biso   1.000  H
  H50      1.0000 0.00200  0.69400  0.63620  Biso   1.000  H
  C51      1.0000 0.92620  0.52380  0.52250  Biso   1.000  C
  C52      1.0000 0.84600  0.48520  0.54900  Biso   1.000  C
  H51      1.0000 0.84540  0.49070  0.60200  Biso   1.000  H
  H52      1.0000 0.82060  0.50910  0.52700  Biso   1.000  H
  Cu14     1.0000 0.34004  0.24782  0.51506  Biso   1.000  Cu
  N27      1.0000 0.33980  0.20400  0.61800  Biso   1.000  N
  N28      1.0000 0.40190  0.36420  0.51060  Biso   1.000  N
  C53      1.0000 0.33260  0.23290  0.68110  Biso   1.000  C
  C54      1.0000 0.33300  0.30660  0.67920  Biso   1.000  C
  H53      1.0000 0.38410  0.34760  0.67560  Biso   1.000  H
  H54      1.0000 0.30600  0.30800  0.63620  Biso   1.000  H
  C55      1.0000 0.47620  0.40240  0.52250  Biso   1.000  C
  C56      1.0000 0.51480  0.36080  0.54900  Biso   1.000  C
  H55      1.0000 0.50930  0.35470  0.60200  Biso   1.000  H
  H56      1.0000 0.49090  0.31150  0.52700  Biso   1.000  H
  Cu15     1.0000 0.75218  0.09222  0.51506  Biso   1.000  Cu
  N29      1.0000 0.79600  0.13580  0.61800  Biso   1.000  N
  N30      1.0000 0.63580  0.03770  0.51060  Biso   1.000  N
  C57      1.0000 0.76710  0.09970  0.68110  Biso   1.000  C
  C58      1.0000 0.69340  0.02640  0.67920  Biso   1.000  C
  H57      1.0000 0.65240  0.03650  0.67560  Biso   1.000  H
  H58      1.0000 0.69200  0.99800  0.63620  Biso   1.000  H
  C59      1.0000 0.59760  0.07380  0.52250  Biso   1.000  C
  C60      1.0000 0.63920  0.15400  0.54900  Biso   1.000  C
  H59      1.0000 0.64530  0.15460  0.60200  Biso   1.000  H
  H60      1.0000 0.68850  0.17940  0.52700  Biso   1.000  H
  Cu16     1.0000 0.09222  0.34004  0.01506  Biso   1.000  Cu
  N31      1.0000 0.13580  0.33980  0.11800  Biso   1.000  N
  N32      1.0000 0.03770  0.40190  0.01060  Biso   1.000  N
  C61      1.0000 0.09970  0.33260  0.18110  Biso   1.000  C
  C62      1.0000 0.02640  0.33300  0.17920  Biso   1.000  C
  H61      1.0000 0.03650  0.38410  0.17560  Biso   1.000  H
  H62      1.0000 0.99800  0.30600  0.13620  Biso   1.000  H
  C63      1.0000 0.07380  0.47620  0.02250  Biso   1.000  C
  C64      1.0000 0.15400  0.51480  0.04900  Biso   1.000  C
  H63      1.0000 0.15460  0.50930  0.10200  Biso   1.000  H
  H64      1.0000 0.17940  0.49090  0.02700  Biso   1.000  H
  Cu17     1.0000 0.65996  0.75218  0.01506  Biso   1.000  Cu
  N33      1.0000 0.66020  0.79600  0.11800  Biso   1.000  N
  N34      1.0000 0.59810  0.63580  0.01060  Biso   1.000  N
  C65      1.0000 0.66740  0.76710  0.18110  Biso   1.000  C
  C66      1.0000 0.66700  0.69340  0.17920  Biso   1.000  C
  H65      1.0000 0.61590  0.65240  0.17560  Biso   1.000  H
  H66      1.0000 0.69400  0.69200  0.13620  Biso   1.000  H
  C67      1.0000 0.52380  0.59760  0.02250  Biso   1.000  C
  C68      1.0000 0.48520  0.63920  0.04900  Biso   1.000  C
  H67      1.0000 0.49070  0.64530  0.10200  Biso   1.000  H
  H68      1.0000 0.50910  0.68850  0.02700  Biso   1.000  H
  Cu18     1.0000 0.24782  0.90778  0.01506  Biso   1.000  Cu
  N35      1.0000 0.20400  0.86420  0.11800  Biso   1.000  N
  N36      1.0000 0.36420  0.96230  0.01060  Biso   1.000  N
  C69      1.0000 0.23290  0.90030  0.18110  Biso   1.000  C
  C70      1.0000 0.30660  0.97360  0.17920  Biso   1.000  C
  H69      1.0000 0.34760  0.96350  0.17560  Biso   1.000  H
  H70      1.0000 0.30800  0.00200  0.13620  Biso   1.000  H
  C71      1.0000 0.40240  0.92620  0.02250  Biso   1.000  C
  C72      1.0000 0.36080  0.84600  0.04900  Biso   1.000  C
  H71      1.0000 0.35470  0.84540  0.10200  Biso   1.000  H
  H72      1.0000 0.31150  0.82060  0.02700  Biso   1.000  H
  Cu19     1.0000 0.65996  0.90778  0.48494  Biso   1.000  Cu
  N37      1.0000 0.66020  0.86420  0.38200  Biso   1.000  N
  N38      1.0000 0.59810  0.96230  0.48940  Biso   1.000  N
  C73      1.0000 0.66740  0.90030  0.31890  Biso   1.000  C
  C74      1.0000 0.66700  0.97360  0.32080  Biso   1.000  C
  H73      1.0000 0.61590  0.96350  0.32440  Biso   1.000  H
  H74      1.0000 0.69400  0.00200  0.36380  Biso   1.000  H
  C75      1.0000 0.52380  0.92620  0.47750  Biso   1.000  C
  C76      1.0000 0.48520  0.84600  0.45100  Biso   1.000  C
  H75      1.0000 0.49070  0.84540  0.39800  Biso   1.000  H
  H76      1.0000 0.50910  0.82060  0.47300  Biso   1.000  H
  Cu20     1.0000 0.24782  0.34004  0.48494  Biso   1.000  Cu
  N39      1.0000 0.20400  0.33980  0.38200  Biso   1.000  N
  N40      1.0000 0.36420  0.40190  0.48940  Biso   1.000  N
  C77      1.0000 0.23290  0.33260  0.31890  Biso   1.000  C
  C78      1.0000 0.30660  0.33300  0.32080  Biso   1.000  C
  H77      1.0000 0.34760  0.38410  0.32440  Biso   1.000  H
  H78      1.0000 0.30800  0.30600  0.36380  Biso   1.000  H
  C79      1.0000 0.40240  0.47620  0.47750  Biso   1.000  C
  C80      1.0000 0.36080  0.51480  0.45100  Biso   1.000  C
  H79      1.0000 0.35470  0.50930  0.39800  Biso   1.000  H
  H80      1.0000 0.31150  0.49090  0.47300  Biso   1.000  H
  Cu21     1.0000 0.09222  0.75218  0.48494  Biso   1.000  Cu
  N41      1.0000 0.13580  0.79600  0.38200  Biso   1.000  N
  N42      1.0000 0.03770  0.63580  0.48940  Biso   1.000  N
  C81      1.0000 0.09970  0.76710  0.31890  Biso   1.000  C
  C82      1.0000 0.02640  0.69340  0.32080  Biso   1.000  C
  H81      1.0000 0.03650  0.65240  0.32440  Biso   1.000  H
  H82      1.0000 0.99800  0.69200  0.36380  Biso   1.000  H
  C83      1.0000 0.07380  0.59760  0.47750  Biso   1.000  C
  C84      1.0000 0.15400  0.63920  0.45100  Biso   1.000  C
  H83      1.0000 0.15460  0.64530  0.39800  Biso   1.000  H
  H84      1.0000 0.17940  0.68850  0.47300  Biso   1.000  H
  Cu22     1.0000 0.34004  0.09222  0.98494  Biso   1.000  Cu
  N43      1.0000 0.33980  0.13580  0.88200  Biso   1.000  N
  N44      1.0000 0.40190  0.03770  0.98940  Biso   1.000  N
  C85      1.0000 0.33260  0.09970  0.81890  Biso   1.000  C
  C86      1.0000 0.33300  0.02640  0.82080  Biso   1.000  C
  H85      1.0000 0.38410  0.03650  0.82440  Biso   1.000  H
  H86      1.0000 0.30600  0.99800  0.86380  Biso   1.000  H
  C87      1.0000 0.47620  0.07380  0.97750  Biso   1.000  C
  C88      1.0000 0.51480  0.15400  0.95100  Biso   1.000  C
  H87      1.0000 0.50930  0.15460  0.89800  Biso   1.000  H
  H88      1.0000 0.49090  0.17940  0.97300  Biso   1.000  H
  Cu23     1.0000 0.75218  0.65996  0.98494  Biso   1.000  Cu
  N45      1.0000 0.79600  0.66020  0.88200  Biso   1.000  N
  N46      1.0000 0.63580  0.59810  0.98940  Biso   1.000  N
  C89      1.0000 0.76710  0.66740  0.81890  Biso   1.000  C
  C90      1.0000 0.69340  0.66700  0.82080  Biso   1.000  C
  H89      1.0000 0.65240  0.61590  0.82440  Biso   1.000  H
  H90      1.0000 0.69200  0.69400  0.86380  Biso   1.000  H
  C91      1.0000 0.59760  0.52380  0.97750  Biso   1.000  C
  C92      1.0000 0.63920  0.48520  0.95100  Biso   1.000  C
  H91      1.0000 0.64530  0.49070  0.89800  Biso   1.000  H
  H92      1.0000 0.68850  0.50910  0.97300  Biso   1.000  H
  Cu24     1.0000 0.90778  0.24782  0.98494  Biso   1.000  Cu
  N47      1.0000 0.86420  0.20400  0.88200  Biso   1.000  N
  N48      1.0000 0.96230  0.36420  0.98940  Biso   1.000  N
  C93      1.0000 0.90030  0.23290  0.81890  Biso   1.000  C
  C94      1.0000 0.97360  0.30660  0.82080  Biso   1.000  C
  H93      1.0000 0.96350  0.34760  0.82440  Biso   1.000  H
  H94      1.0000 0.00200  0.30800  0.86380  Biso   1.000  H
  C95      1.0000 0.92620  0.40240  0.97750  Biso   1.000  C
  C96      1.0000 0.84600  0.36080  0.95100  Biso   1.000  C
  H95      1.0000 0.84540  0.35470  0.89800  Biso   1.000  H
  H96      1.0000 0.82060  0.31150  0.97300  Biso   1.000  H
  Cu25     1.0000 0.87657  0.12343  0.42372  Biso   1.000  Cu
  I1       1.0000 0.80511  0.19489  0.40782  Biso   1.000  I
  N49      1.0000 0.90240  0.09760  0.32210  Biso   1.000  N
  Cu26     1.0000 0.87657  0.75314  0.42372  Biso   1.000  Cu
  I2       1.0000 0.80511  0.61022  0.40782  Biso   1.000  I
  N50      1.0000 0.90240  0.80480  0.32210  Biso   1.000  N
  Cu27     1.0000 0.24686  0.12343  0.42372  Biso   1.000  Cu
  I3       1.0000 0.38978  0.19489  0.40782  Biso   1.000  I
  N51      1.0000 0.19520  0.09760  0.32210  Biso   1.000  N
  Cu28     1.0000 0.12343  0.87657  0.92372  Biso   1.000  Cu
  I4       1.0000 0.19489  0.80511  0.90782  Biso   1.000  I
  N52      1.0000 0.09760  0.90240  0.82210  Biso   1.000  N
  Cu29     1.0000 0.12343  0.24686  0.92372  Biso   1.000  Cu
  I5       1.0000 0.19489  0.38978  0.90782  Biso   1.000  I
  N53      1.0000 0.09760  0.19520  0.82210  Biso   1.000  N
  Cu30     1.0000 0.75314  0.87657  0.92372  Biso   1.000  Cu
  I6       1.0000 0.61022  0.80511  0.90782  Biso   1.000  I
  N54      1.0000 0.80480  0.90240  0.82210  Biso   1.000  N
  Cu31     1.0000 0.12343  0.87657  0.57628  Biso   1.000  Cu
  I7       1.0000 0.19489  0.80511  0.59218  Biso   1.000  I
  N55      1.0000 0.09760  0.90240  0.67790  Biso   1.000  N
  Cu32     1.0000 0.75314  0.87657  0.57628  Biso   1.000  Cu
  I8       1.0000 0.61022  0.80511  0.59218  Biso   1.000  I
  N56      1.0000 0.80480  0.90240  0.67790  Biso   1.000  N
  Cu33     1.0000 0.12343  0.24686  0.57628  Biso   1.000  Cu
  I9       1.0000 0.19489  0.38978  0.59218  Biso   1.000  I
  N57      1.0000 0.09760  0.19520  0.67790  Biso   1.000  N
  Cu34     1.0000 0.87657  0.12343  0.07628  Biso   1.000  Cu
  I10      1.0000 0.80511  0.19489  0.09218  Biso   1.000  I
  N58      1.0000 0.90240  0.09760  0.17790  Biso   1.000  N
  Cu35     1.0000 0.24686  0.12343  0.07628  Biso   1.000  Cu
  I11      1.0000 0.38978  0.19489  0.09218  Biso   1.000  I
  N59      1.0000 0.19520  0.09760  0.17790  Biso   1.000  N
  Cu36     1.0000 0.87657  0.75314  0.07628  Biso   1.000  Cu
  I12      1.0000 0.80511  0.61022  0.09218  Biso   1.000  I
  N60      1.0000 0.90240  0.80480  0.17790  Biso   1.000  N
  I13      1.0000 0.00000  0.19454  0.50000  Biso   1.000  I
  I14      1.0000 0.80546  0.80546  0.50000  Biso   1.000  I
  I15      1.0000 0.19454  0.00000  0.50000  Biso   1.000  I
  I16      1.0000 0.00000  0.80546  0.00000  Biso   1.000  I
  I17      1.0000 0.19454  0.19454  0.00000  Biso   1.000  I
  I18      1.0000 0.80546  0.00000  0.00000  Biso   1.000  I
  I19      1.0000 0.00000  0.80546  0.50000  Biso   1.000  I
  I20      1.0000 0.19454  0.19454  0.50000  Biso   1.000  I
  I21      1.0000 0.80546  0.00000  0.50000  Biso   1.000  I
  I22      1.0000 0.00000  0.19454  0.00000  Biso   1.000  I
  I23      1.0000 0.80546  0.80546  0.00000  Biso   1.000  I
  I24      1.0000 0.19454  0.00000  0.00000  Biso   1.000  I
  C97      1.0000 0.13110  0.32920  0.25000  Biso   1.000  C
  C98      1.0000 0.98020  0.29620  0.25000  Biso   1.000  C
  H97      1.0000 0.93580  0.30090  0.25000  Biso   1.000  H
  H98      1.0000 0.96440  0.24350  0.25000  Biso   1.000  H
  C99      1.0000 0.67080  0.80190  0.25000  Biso   1.000  C
  C100     1.0000 0.70380  0.68400  0.25000  Biso   1.000  C
  H99      1.0000 0.69910  0.63490  0.25000  Biso   1.000  H
  H100     1.0000 0.75650  0.72090  0.25000  Biso   1.000  H
  C101     1.0000 0.19810  0.86890  0.25000  Biso   1.000  C
  C102     1.0000 0.31600  0.01980  0.25000  Biso   1.000  C
  H101     1.0000 0.36510  0.06420  0.25000  Biso   1.000  H
  H102     1.0000 0.27910  0.03560  0.25000  Biso   1.000  H
  C103     1.0000 0.86890  0.67080  0.75000  Biso   1.000  C
  C104     1.0000 0.01980  0.70380  0.75000  Biso   1.000  C
  H103     1.0000 0.06420  0.69910  0.75000  Biso   1.000  H
  H104     1.0000 0.03560  0.75650  0.75000  Biso   1.000  H
  C105     1.0000 0.32920  0.19810  0.75000  Biso   1.000  C
  C106     1.0000 0.29620  0.31600  0.75000  Biso   1.000  C
  H105     1.0000 0.30090  0.36510  0.75000  Biso   1.000  H
  H106     1.0000 0.24350  0.27910  0.75000  Biso   1.000  H
  C107     1.0000 0.80190  0.13110  0.75000  Biso   1.000  C
  C108     1.0000 0.68400  0.98020  0.75000  Biso   1.000  C
  H107     1.0000 0.63490  0.93580  0.75000  Biso   1.000  H
  H108     1.0000 0.72090  0.96440  0.75000  Biso   1.000  H
  C109     1.0000 0.32920  0.13110  0.75000  Biso   1.000  C
  C110     1.0000 0.29620  0.98020  0.75000  Biso   1.000  C
  H109     1.0000 0.30090  0.93580  0.75000  Biso   1.000  H
  H110     1.0000 0.24350  0.96440  0.75000  Biso   1.000  H
  C111     1.0000 0.80190  0.67080  0.75000  Biso   1.000  C
  C112     1.0000 0.68400  0.70380  0.75000  Biso   1.000  C
  H111     1.0000 0.63490  0.69910  0.75000  Biso   1.000  H
  H112     1.0000 0.72090  0.75650  0.75000  Biso   1.000  H
  C113     1.0000 0.86890  0.19810  0.75000  Biso   1.000  C
  C114     1.0000 0.01980  0.31600  0.75000  Biso   1.000  C
  H113     1.0000 0.06420  0.36510  0.75000  Biso   1.000  H
  H114     1.0000 0.03560  0.27910  0.75000  Biso   1.000  H
  C115     1.0000 0.67080  0.86890  0.25000  Biso   1.000  C
  C116     1.0000 0.70380  0.01980  0.25000  Biso   1.000  C
  H115     1.0000 0.69910  0.06420  0.25000  Biso   1.000  H
  H116     1.0000 0.75650  0.03560  0.25000  Biso   1.000  H
  C117     1.0000 0.19810  0.32920  0.25000  Biso   1.000  C
  C118     1.0000 0.31600  0.29620  0.25000  Biso   1.000  C
  H117     1.0000 0.36510  0.30090  0.25000  Biso   1.000  H
  H118     1.0000 0.27910  0.24350  0.25000  Biso   1.000  H
  C119     1.0000 0.13110  0.80190  0.25000  Biso   1.000  C
  C120     1.0000 0.98020  0.68400  0.25000  Biso   1.000  C
  H119     1.0000 0.93580  0.63490  0.25000  Biso   1.000  H
  H120     1.0000 0.96440  0.72090  0.25000  Biso   1.000  H
  C121     1.0000 0.03720  0.51860  0.48800  Biso   1.000  C
  C122     1.0000 0.19570  0.59785  0.47070  Biso   1.000  C
  H121     1.0000 0.24350  0.62175  0.44560  Biso   1.000  H
  H122     1.0000 0.20550  0.60275  0.52320  Biso   1.000  H
  C123     1.0000 0.48140  0.51860  0.48800  Biso   1.000  C
  C124     1.0000 0.40215  0.59785  0.47070  Biso   1.000  C
  H123     1.0000 0.37825  0.62175  0.44560  Biso   1.000  H
  H124     1.0000 0.39725  0.60275  0.52320  Biso   1.000  H
  C125     1.0000 0.48140  0.96280  0.48800  Biso   1.000  C
  C126     1.0000 0.40215  0.80430  0.47070  Biso   1.000  C
  H125     1.0000 0.37825  0.75650  0.44560  Biso   1.000  H
  H126     1.0000 0.39725  0.79450  0.52320  Biso   1.000  H
  C127     1.0000 0.96280  0.48140  0.98800  Biso   1.000  C
  C128     1.0000 0.80430  0.40215  0.97070  Biso   1.000  C
  H127     1.0000 0.75650  0.37825  0.94560  Biso   1.000  H
  H128     1.0000 0.79450  0.39725  0.02320  Biso   1.000  H
  C129     1.0000 0.51860  0.48140  0.98800  Biso   1.000  C
  C130     1.0000 0.59785  0.40215  0.97070  Biso   1.000  C
  H129     1.0000 0.62175  0.37825  0.94560  Biso   1.000  H
  H130     1.0000 0.60275  0.39725  0.02320  Biso   1.000  H
  C131     1.0000 0.51860  0.03720  0.98800  Biso   1.000  C
  C132     1.0000 0.59785  0.19570  0.97070  Biso   1.000  C
  H131     1.0000 0.62175  0.24350  0.94560  Biso   1.000  H
  H132     1.0000 0.60275  0.20550  0.02320  Biso   1.000  H
  C133     1.0000 0.51860  0.03720  0.51200  Biso   1.000  C
  C134     1.0000 0.59785  0.19570  0.52930  Biso   1.000  C
  H133     1.0000 0.62175  0.24350  0.55440  Biso   1.000  H
  H134     1.0000 0.60275  0.20550  0.47680  Biso   1.000  H
  C135     1.0000 0.51860  0.48140  0.51200  Biso   1.000  C
  C136     1.0000 0.59785  0.40215  0.52930  Biso   1.000  C
  H135     1.0000 0.62175  0.37825  0.55440  Biso   1.000  H
  H136     1.0000 0.60275  0.39725  0.47680  Biso   1.000  H
  C137     1.0000 0.96280  0.48140  0.51200  Biso   1.000  C
  C138     1.0000 0.80430  0.40215  0.52930  Biso   1.000  C
  H137     1.0000 0.75650  0.37825  0.55440  Biso   1.000  H
  H138     1.0000 0.79450  0.39725  0.47680  Biso   1.000  H
  C139     1.0000 0.48140  0.96280  0.01200  Biso   1.000  C
  C140     1.0000 0.40215  0.80430  0.02930  Biso   1.000  C
  H139     1.0000 0.37825  0.75650  0.05440  Biso   1.000  H
  H140     1.0000 0.39725  0.79450  0.97680  Biso   1.000  H
  C141     1.0000 0.48140  0.51860  0.01200  Biso   1.000  C
  C142     1.0000 0.40215  0.59785  0.02930  Biso   1.000  C
  H141     1.0000 0.37825  0.62175  0.05440  Biso   1.000  H
  H142     1.0000 0.39725  0.60275  0.97680  Biso   1.000  H
  C143     1.0000 0.03720  0.51860  0.01200  Biso   1.000  C
  C144     1.0000 0.19570  0.59785  0.02930  Biso   1.000  C
  H143     1.0000 0.24350  0.62175  0.05440  Biso   1.000  H
  H144     1.0000 0.20550  0.60275  0.97680  Biso   1.000  H
  C145     1.0000 0.90960  0.09040  0.25000  Biso   1.000  C
  C146     1.0000 0.90960  0.81920  0.25000  Biso   1.000  C
  C147     1.0000 0.18080  0.09040  0.25000  Biso   1.000  C
  C148     1.0000 0.09040  0.90960  0.75000  Biso   1.000  C
  C149     1.0000 0.09040  0.18080  0.75000  Biso   1.000  C
  C150     1.0000 0.81920  0.90960  0.75000  Biso   1.000  C
