data_IXISOX_clean
_audit_creation_date              2014-07-02
_audit_creation_method            'Materials Studio'
_symmetry_space_group_name_H-M    'P1'
_symmetry_Int_Tables_number       1
_symmetry_cell_setting            triclinic
loop_
_symmetry_equiv_pos_as_xyz
  x,y,z
_cell_length_a                    13.1360
_cell_length_b                    14.0807
_cell_length_c                    14.0807
_cell_angle_alpha                 77.4330
_cell_angle_beta                  62.1955
_cell_angle_gamma                 62.1956
loop_
_atom_site_label
_atom_site_type_symbol
_atom_site_fract_x
_atom_site_fract_y
_atom_site_fract_z
_atom_site_U_iso_or_equiv
_atom_site_adp_type
_atom_site_occupancy
Cu1    Cu    0.38430   0.25000   0.73140   0.01267  Uiso   1.00
Cu2    Cu    0.86570   0.25000   0.76860   0.01267  Uiso   1.00
Cu3    Cu    0.61570   0.26860   0.75000   0.01267  Uiso   1.00
Cu4    Cu    0.13430   0.23140   0.75000   0.01267  Uiso   1.00
Cu5    Cu    0.61570   0.75000   0.26860   0.01267  Uiso   1.00
Cu6    Cu    0.13430   0.75000   0.23140   0.01267  Uiso   1.00
Cu7    Cu    0.38430   0.73140   0.25000   0.01267  Uiso   1.00
Cu8    Cu    0.86570   0.76860   0.25000   0.01267  Uiso   1.00
H1     H     0.35550   0.34200   0.49480   0.01267  Uiso   1.00
H2     H     0.25770   0.38280   0.61080   0.01267  Uiso   1.00
H3     H     0.69230   0.15800   0.00520   0.01267  Uiso   1.00
H4     H     0.75130   0.11720   0.88920   0.01267  Uiso   1.00
H5     H     0.35030   0.50520   0.84200   0.01267  Uiso   1.00
H6     H     0.36850   0.38920   0.88280   0.01267  Uiso   1.00
H7     H     0.19750   0.99480   0.65800   0.01267  Uiso   1.00
H8     H     0.14050   0.11080   0.61720   0.01267  Uiso   1.00
H9     H     0.30770   0.99480   0.84200   0.01267  Uiso   1.00
H10    H     0.24870   0.11080   0.88280   0.01267  Uiso   1.00
H11    H     0.64450   0.50520   0.65800   0.01267  Uiso   1.00
H12    H     0.74230   0.38920   0.61720   0.01267  Uiso   1.00
H13    H     0.80250   0.34200   0.00520   0.01267  Uiso   1.00
H14    H     0.85950   0.38280   0.88920   0.01267  Uiso   1.00
H15    H     0.64970   0.15800   0.49480   0.01267  Uiso   1.00
H16    H     0.63150   0.11720   0.61080   0.01267  Uiso   1.00
H17    H     0.64450   0.65800   0.50520   0.01267  Uiso   1.00
H18    H     0.74230   0.61720   0.38920   0.01267  Uiso   1.00
H19    H     0.30770   0.84200   0.99480   0.01267  Uiso   1.00
H20    H     0.24870   0.88280   0.11080   0.01267  Uiso   1.00
H21    H     0.64970   0.49480   0.15800   0.01267  Uiso   1.00
H22    H     0.63150   0.61080   0.11720   0.01267  Uiso   1.00
H23    H     0.80250   0.00520   0.34200   0.01267  Uiso   1.00
H24    H     0.85950   0.88920   0.38280   0.01267  Uiso   1.00
H25    H     0.69230   0.00520   0.15800   0.01267  Uiso   1.00
H26    H     0.75130   0.88920   0.11720   0.01267  Uiso   1.00
H27    H     0.35550   0.49480   0.34200   0.01267  Uiso   1.00
H28    H     0.25770   0.61080   0.38280   0.01267  Uiso   1.00
H29    H     0.19750   0.65800   0.99480   0.01267  Uiso   1.00
H30    H     0.14050   0.61720   0.11080   0.01267  Uiso   1.00
H31    H     0.35030   0.84200   0.50520   0.01267  Uiso   1.00
H32    H     0.36850   0.88280   0.38920   0.01267  Uiso   1.00
H33    H     0.18430   0.48130   0.48130   0.01267  Uiso   1.00
H34    H     0.18430   0.55180   0.55180   0.01267  Uiso   1.00
H35    H     0.64690   0.01870   0.01870   0.01267  Uiso   1.00
H36    H     0.78790   0.94820   0.94820   0.01267  Uiso   1.00
H37    H     0.16560   0.51870   0.98130   0.01267  Uiso   1.00
H38    H     0.23610   0.44820   0.05180   0.01267  Uiso   1.00
H39    H     0.16560   0.98130   0.51870   0.01267  Uiso   1.00
H40    H     0.23610   0.05180   0.44820   0.01267  Uiso   1.00
H41    H     0.35310   0.98130   0.98130   0.01267  Uiso   1.00
H42    H     0.21210   0.05180   0.05180   0.01267  Uiso   1.00
H43    H     0.81570   0.51870   0.51870   0.01267  Uiso   1.00
H44    H     0.81570   0.44820   0.44820   0.01267  Uiso   1.00
H45    H     0.83440   0.48130   0.01870   0.01267  Uiso   1.00
H46    H     0.76390   0.55180   0.94820   0.01267  Uiso   1.00
H47    H     0.83440   0.01870   0.48130   0.01267  Uiso   1.00
H48    H     0.76390   0.94820   0.55180   0.01267  Uiso   1.00
C1     C     0.41120   0.41560   0.55800   0.01267  Uiso   1.00
C2     C     0.31310   0.40080   0.54320   0.01267  Uiso   1.00
C3     C     0.88480   0.08440   0.94200   0.01267  Uiso   1.00
C4     C     0.75710   0.09920   0.95680   0.01267  Uiso   1.00
C5     C     0.46920   0.44200   0.91560   0.01267  Uiso   1.00
C6     C     0.35630   0.45680   0.90080   0.01267  Uiso   1.00
C7     C     0.32680   0.05800   0.58440   0.01267  Uiso   1.00
C8     C     0.21390   0.04320   0.59920   0.01267  Uiso   1.00
C9     C     0.11520   0.05800   0.91560   0.01267  Uiso   1.00
C10    C     0.24290   0.04320   0.90080   0.01267  Uiso   1.00
C11    C     0.58880   0.44200   0.58440   0.01267  Uiso   1.00
C12    C     0.68690   0.45680   0.59920   0.01267  Uiso   1.00
C13    C     0.67320   0.41560   0.94200   0.01267  Uiso   1.00
C14    C     0.78610   0.40080   0.95680   0.01267  Uiso   1.00
C15    C     0.53080   0.08440   0.55800   0.01267  Uiso   1.00
C16    C     0.64370   0.09920   0.54320   0.01267  Uiso   1.00
C17    C     0.58880   0.58440   0.44200   0.01267  Uiso   1.00
C18    C     0.68690   0.59920   0.45680   0.01267  Uiso   1.00
C19    C     0.11520   0.91560   0.05800   0.01267  Uiso   1.00
C20    C     0.24290   0.90080   0.04320   0.01267  Uiso   1.00
C21    C     0.53080   0.55800   0.08440   0.01267  Uiso   1.00
C22    C     0.64370   0.54320   0.09920   0.01267  Uiso   1.00
C23    C     0.67320   0.94200   0.41560   0.01267  Uiso   1.00
C24    C     0.78610   0.95680   0.40080   0.01267  Uiso   1.00
C25    C     0.88480   0.94200   0.08440   0.01267  Uiso   1.00
C26    C     0.75710   0.95680   0.09920   0.01267  Uiso   1.00
C27    C     0.41120   0.55800   0.41560   0.01267  Uiso   1.00
C28    C     0.31310   0.54320   0.40080   0.01267  Uiso   1.00
C29    C     0.32680   0.58440   0.05800   0.01267  Uiso   1.00
C30    C     0.21390   0.59920   0.04320   0.01267  Uiso   1.00
C31    C     0.46920   0.91560   0.44200   0.01267  Uiso   1.00
C32    C     0.35630   0.90080   0.45680   0.01267  Uiso   1.00
C33    C     0.45590   0.49270   0.49270   0.01267  Uiso   1.00
C34    C     0.23820   0.49730   0.49730   0.01267  Uiso   1.00
C35    C     0.94130   0.00730   0.00730   0.01267  Uiso   1.00
C36    C     0.73280   0.00270   0.00270   0.01267  Uiso   1.00
C37    C     0.44860   0.50730   0.99270   0.01267  Uiso   1.00
C38    C     0.23550   0.50270   0.99730   0.01267  Uiso   1.00
C39    C     0.44860   0.99270   0.50730   0.01267  Uiso   1.00
C40    C     0.23550   0.99730   0.50270   0.01267  Uiso   1.00
C41    C     0.05870   0.99270   0.99270   0.01267  Uiso   1.00
C42    C     0.26720   0.99730   0.99730   0.01267  Uiso   1.00
C43    C     0.54410   0.50730   0.50730   0.01267  Uiso   1.00
C44    C     0.76180   0.50270   0.50270   0.01267  Uiso   1.00
C45    C     0.55140   0.49270   0.00730   0.01267  Uiso   1.00
C46    C     0.76450   0.49730   0.00270   0.01267  Uiso   1.00
C47    C     0.55140   0.00730   0.49270   0.01267  Uiso   1.00
C48    C     0.76450   0.00270   0.49730   0.01267  Uiso   1.00
I1     I     0.50000   0.14406   0.85594   0.01267  Uiso   1.00
I2     I     1.00000   0.35594   0.64406   0.01267  Uiso   1.00
I3     I     0.85594   0.14406   0.64406   0.01267  Uiso   1.00
I4     I     0.14406   0.35594   0.85594   0.01267  Uiso   1.00
I5     I     0.50000   0.85594   0.14406   0.01267  Uiso   1.00
I6     I     1.00000   0.64406   0.35594   0.01267  Uiso   1.00
I7     I     0.14406   0.85594   0.35594   0.01267  Uiso   1.00
I8     I     0.85594   0.64406   0.14406   0.01267  Uiso   1.00
N1     N     0.45420   0.35750   0.62910   0.01267  Uiso   1.00
N2     N     0.94080   0.14250   0.87090   0.01267  Uiso   1.00
N3     N     0.58330   0.37090   0.85750   0.01267  Uiso   1.00
N4     N     0.31170   0.12910   0.64250   0.01267  Uiso   1.00
N5     N     0.05920   0.12910   0.85750   0.01267  Uiso   1.00
N6     N     0.54580   0.37090   0.64250   0.01267  Uiso   1.00
N7     N     0.68830   0.35750   0.87090   0.01267  Uiso   1.00
N8     N     0.41670   0.14250   0.62910   0.01267  Uiso   1.00
N9     N     0.54580   0.64250   0.37090   0.01267  Uiso   1.00
N10    N     0.05920   0.85750   0.12910   0.01267  Uiso   1.00
N11    N     0.41670   0.62910   0.14250   0.01267  Uiso   1.00
N12    N     0.68830   0.87090   0.35750   0.01267  Uiso   1.00
N13    N     0.94080   0.87090   0.14250   0.01267  Uiso   1.00
N14    N     0.45420   0.62910   0.35750   0.01267  Uiso   1.00
N15    N     0.31170   0.64250   0.12910   0.01267  Uiso   1.00
N16    N     0.58330   0.85750   0.37090   0.01267  Uiso   1.00
