data_IXISAJ_clean
_audit_creation_date              2014-07-02
_audit_creation_method            'Materials Studio'
_symmetry_space_group_name_H-M    'P1'
_symmetry_Int_Tables_number       1
_symmetry_cell_setting            triclinic
loop_
_symmetry_equiv_pos_as_xyz
  x,y,z
_cell_length_a                    12.6008
_cell_length_b                    14.0313
_cell_length_c                    14.0313
_cell_angle_alpha                 78.3682
_cell_angle_beta                  63.3190
_cell_angle_gamma                 63.3189
loop_
_atom_site_label
_atom_site_type_symbol
_atom_site_fract_x
_atom_site_fract_y
_atom_site_fract_z
_atom_site_U_iso_or_equiv
_atom_site_adp_type
_atom_site_occupancy
Cu1    Cu    0.17572   0.47638   0.99900   0.01267  Uiso   1.00
Cu2    Cu    0.65110   0.52362   0.00100   0.01267  Uiso   1.00
Cu3    Cu    0.42472   0.50100   0.97638   0.01267  Uiso   1.00
Cu4    Cu    0.90210   0.49900   0.02362   0.01267  Uiso   1.00
Cu5    Cu    0.65110   0.00100   0.52362   0.01267  Uiso   1.00
Cu6    Cu    0.17572   0.99900   0.47638   0.01267  Uiso   1.00
Cu7    Cu    0.90210   0.02362   0.49900   0.01267  Uiso   1.00
Cu8    Cu    0.42472   0.97638   0.50100   0.01267  Uiso   1.00
H1     H     0.72960   0.39200   0.23840   0.01267  Uiso   1.00
H2     H     0.79990   0.34620   0.12380   0.01267  Uiso   1.00
H3     H     0.35870   0.25090   0.07930   0.01267  Uiso   1.00
H4     H     0.29970   0.35680   0.13920   0.01267  Uiso   1.00
H5     H     0.36000   0.60800   0.76160   0.01267  Uiso   1.00
H6     H     0.26990   0.65380   0.87620   0.01267  Uiso   1.00
H7     H     0.68890   0.74910   0.92070   0.01267  Uiso   1.00
H8     H     0.79570   0.64320   0.86080   0.01267  Uiso   1.00
H9     H     0.21800   0.26160   0.89200   0.01267  Uiso   1.00
H10    H     0.17370   0.37620   0.84620   0.01267  Uiso   1.00
H11    H     0.68800   0.42070   0.75090   0.01267  Uiso   1.00
H12    H     0.68890   0.36080   0.85680   0.01267  Uiso   1.00
H13    H     0.37160   0.73840   0.10800   0.01267  Uiso   1.00
H14    H     0.39610   0.62380   0.15380   0.01267  Uiso   1.00
H15    H     0.85960   0.57930   0.24910   0.01267  Uiso   1.00
H16    H     0.90650   0.63920   0.14320   0.01267  Uiso   1.00
H17    H     0.36000   0.76160   0.60800   0.01267  Uiso   1.00
H18    H     0.26990   0.87620   0.65380   0.01267  Uiso   1.00
H19    H     0.68890   0.92070   0.74910   0.01267  Uiso   1.00
H20    H     0.79570   0.86080   0.64320   0.01267  Uiso   1.00
H21    H     0.72960   0.23840   0.39200   0.01267  Uiso   1.00
H22    H     0.79990   0.12380   0.34620   0.01267  Uiso   1.00
H23    H     0.35870   0.07930   0.25090   0.01267  Uiso   1.00
H24    H     0.29970   0.13920   0.35680   0.01267  Uiso   1.00
H25    H     0.37160   0.10800   0.73840   0.01267  Uiso   1.00
H26    H     0.39610   0.15380   0.62380   0.01267  Uiso   1.00
H27    H     0.85960   0.24910   0.57930   0.01267  Uiso   1.00
H28    H     0.90650   0.14320   0.63920   0.01267  Uiso   1.00
H29    H     0.21800   0.89200   0.26160   0.01267  Uiso   1.00
H30    H     0.17370   0.84620   0.37620   0.01267  Uiso   1.00
H31    H     0.68800   0.75090   0.42070   0.01267  Uiso   1.00
H32    H     0.68890   0.85680   0.36080   0.01267  Uiso   1.00
H33    H     0.68860   0.25010   0.25010   0.01267  Uiso   1.00
H34    H     0.83260   0.18070   0.18070   0.01267  Uiso   1.00
H35    H     0.42040   0.20610   0.20610   0.01267  Uiso   1.00
H36    H     0.29420   0.28610   0.28610   0.01267  Uiso   1.00
H37    H     0.18880   0.74990   0.74990   0.01267  Uiso   1.00
H38    H     0.19400   0.81930   0.81930   0.01267  Uiso   1.00
H39    H     0.83260   0.79390   0.79390   0.01267  Uiso   1.00
H40    H     0.86640   0.71390   0.71390   0.01267  Uiso   1.00
H41    H     0.18870   0.24990   0.75010   0.01267  Uiso   1.00
H42    H     0.26330   0.31930   0.68070   0.01267  Uiso   1.00
H43    H     0.87650   0.29390   0.70610   0.01267  Uiso   1.00
H44    H     0.83030   0.21390   0.78610   0.01267  Uiso   1.00
H45    H     0.18870   0.75010   0.24990   0.01267  Uiso   1.00
H46    H     0.26330   0.68070   0.31930   0.01267  Uiso   1.00
H47    H     0.87650   0.70610   0.29390   0.01267  Uiso   1.00
H48    H     0.83030   0.78610   0.21390   0.01267  Uiso   1.00
C1     C     0.92660   0.31990   0.18430   0.01267  Uiso   1.00
C2     C     0.15990   0.30420   0.16240   0.01267  Uiso   1.00
C3     C     0.79950   0.33240   0.19380   0.01267  Uiso   1.00
C4     C     0.29620   0.28880   0.14500   0.01267  Uiso   1.00
C5     C     0.43080   0.68010   0.81570   0.01267  Uiso   1.00
C6     C     0.62650   0.69580   0.83760   0.01267  Uiso   1.00
C7     C     0.32570   0.66760   0.80620   0.01267  Uiso   1.00
C8     C     0.73000   0.71120   0.85500   0.01267  Uiso   1.00
C9     C     0.36090   0.31570   0.81990   0.01267  Uiso   1.00
C10    C     0.57230   0.33760   0.80420   0.01267  Uiso   1.00
C11    C     0.24330   0.30620   0.83240   0.01267  Uiso   1.00
C12    C     0.69120   0.35500   0.78880   0.01267  Uiso   1.00
C13    C     0.49650   0.68430   0.18010   0.01267  Uiso   1.00
C14    C     0.71410   0.66240   0.19580   0.01267  Uiso   1.00
C15    C     0.38190   0.69380   0.16760   0.01267  Uiso   1.00
C16    C     0.83500   0.64500   0.21120   0.01267  Uiso   1.00
C17    C     0.43080   0.81570   0.68010   0.01267  Uiso   1.00
C18    C     0.62650   0.83760   0.69580   0.01267  Uiso   1.00
C19    C     0.32570   0.80620   0.66760   0.01267  Uiso   1.00
C20    C     0.73000   0.85500   0.71120   0.01267  Uiso   1.00
C21    C     0.92660   0.18430   0.31990   0.01267  Uiso   1.00
C22    C     0.15990   0.16240   0.30420   0.01267  Uiso   1.00
C23    C     0.79950   0.19380   0.33240   0.01267  Uiso   1.00
C24    C     0.29620   0.14500   0.28880   0.01267  Uiso   1.00
C25    C     0.49650   0.18010   0.68430   0.01267  Uiso   1.00
C26    C     0.71410   0.19580   0.66240   0.01267  Uiso   1.00
C27    C     0.38190   0.16760   0.69380   0.01267  Uiso   1.00
C28    C     0.83500   0.21120   0.64500   0.01267  Uiso   1.00
C29    C     0.36090   0.81990   0.31570   0.01267  Uiso   1.00
C30    C     0.57230   0.80420   0.33760   0.01267  Uiso   1.00
C31    C     0.24330   0.83240   0.30620   0.01267  Uiso   1.00
C32    C     0.69120   0.78880   0.35500   0.01267  Uiso   1.00
C33    C     0.98650   0.24520   0.24520   0.01267  Uiso   1.00
C34    C     0.10530   0.23630   0.23630   0.01267  Uiso   1.00
C35    C     0.77690   0.23490   0.23490   0.01267  Uiso   1.00
C36    C     0.32700   0.23400   0.23400   0.01267  Uiso   1.00
C37    C     0.47690   0.75480   0.75480   0.01267  Uiso   1.00
C38    C     0.57790   0.76370   0.76370   0.01267  Uiso   1.00
C39    C     0.24670   0.76510   0.76510   0.01267  Uiso   1.00
C40    C     0.79500   0.76600   0.76600   0.01267  Uiso   1.00
C41    C     0.48170   0.25480   0.74520   0.01267  Uiso   1.00
C42    C     0.59160   0.26370   0.73630   0.01267  Uiso   1.00
C43    C     0.26180   0.26510   0.73490   0.01267  Uiso   1.00
C44    C     0.81100   0.26600   0.73400   0.01267  Uiso   1.00
C45    C     0.48170   0.74520   0.25480   0.01267  Uiso   1.00
C46    C     0.59160   0.73630   0.26370   0.01267  Uiso   1.00
C47    C     0.26180   0.73490   0.26510   0.01267  Uiso   1.00
C48    C     0.81100   0.73400   0.26600   0.01267  Uiso   1.00
Br1    Br    0.03014   0.60239   0.91453   0.01267  Uiso   1.00
Br2    Br    0.54706   0.39761   0.08547   0.01267  Uiso   1.00
Br3    Br    0.19467   0.58547   0.10239   0.01267  Uiso   1.00
Br4    Br    0.88253   0.41453   0.89761   0.01267  Uiso   1.00
Br5    Br    0.54706   0.08547   0.39761   0.01267  Uiso   1.00
Br6    Br    0.03014   0.91453   0.60239   0.01267  Uiso   1.00
Br7    Br    0.88253   0.89761   0.41453   0.01267  Uiso   1.00
Br8    Br    0.19467   0.10239   0.58547   0.01267  Uiso   1.00
N1     N     0.10140   0.37320   0.10420   0.01267  Uiso   1.00
N2     N     0.98270   0.38290   0.11510   0.01267  Uiso   1.00
N3     N     0.57880   0.62680   0.89580   0.01267  Uiso   1.00
N4     N     0.48070   0.61710   0.88490   0.01267  Uiso   1.00
N5     N     0.45560   0.39580   0.87320   0.01267  Uiso   1.00
N6     N     0.34780   0.38490   0.88290   0.01267  Uiso   1.00
N7     N     0.72460   0.60420   0.12680   0.01267  Uiso   1.00
N8     N     0.61560   0.61510   0.11710   0.01267  Uiso   1.00
N9     N     0.57880   0.89580   0.62680   0.01267  Uiso   1.00
N10    N     0.48070   0.88490   0.61710   0.01267  Uiso   1.00
N11    N     0.10140   0.10420   0.37320   0.01267  Uiso   1.00
N12    N     0.98270   0.11510   0.38290   0.01267  Uiso   1.00
N13    N     0.72460   0.12680   0.60420   0.01267  Uiso   1.00
N14    N     0.61560   0.11710   0.61510   0.01267  Uiso   1.00
N15    N     0.45560   0.87320   0.39580   0.01267  Uiso   1.00
N16    N     0.34780   0.88290   0.38490   0.01267  Uiso   1.00
