data_image0
_cell_length_a       19.1758
_cell_length_b       10.9867
_cell_length_c       33.4105
_cell_angle_alpha    90
_cell_angle_beta     103.273
_cell_angle_gamma    90

_symmetry_space_group_name_H-M    "P 1"
_symmetry_int_tables_number       1

loop_
  _symmetry_equiv_pos_as_xyz
  'x, y, z'

loop_
  _atom_site_label
  _atom_site_occupancy
  _atom_site_fract_x
  _atom_site_fract_y
  _atom_site_fract_z
  _atom_site_thermal_displace_type
  _atom_site_B_iso_or_equiv
  _atom_site_type_symbol
  Eu1      1.0000 0.01301  0.18479  0.18668  Biso   1.000  Eu
  Eu2      1.0000 0.00349  0.05911  0.05576  Biso   1.000  Eu
  Cl1      1.0000 0.92194  0.08659  0.11528  Biso   1.000  Cl
  O1       1.0000 0.03180  0.33670  0.13901  Biso   1.000  O
  O2       1.0000 0.05630  0.23760  0.08591  Biso   1.000  O
  O3       1.0000 0.01880  0.87080  0.01979  Biso   1.000  O
  O4       1.0000 0.07220  0.76830  0.97866  Biso   1.000  O
  C1       1.0000 0.05410  0.45280  0.08284  Biso   1.000  C
  C2       1.0000 0.03330  0.56090  0.09700  Biso   1.000  C
  H1       1.0000 0.01960  0.56350  0.12190  Biso   1.000  H
  C3       1.0000 0.03290  0.66720  0.07400  Biso   1.000  C
  H2       1.0000 0.01590  0.73930  0.08290  Biso   1.000  H
  C4       1.0000 0.05700  0.66610  0.03870  Biso   1.000  C
  C5       1.0000 0.08080  0.55700  0.02540  Biso   1.000  C
  H3       1.0000 0.09840  0.55560  0.00170  Biso   1.000  H
  C6       1.0000 0.07830  0.45110  0.04710  Biso   1.000  C
  H4       1.0000 0.09310  0.37810  0.03760  Biso   1.000  H
  C7       1.0000 0.04730  0.33370  0.10440  Biso   1.000  C
  C8       1.0000 0.05110  0.77510  0.01110  Biso   1.000  C
  O5       1.0000 0.09600  0.07370  0.16113  Biso   1.000  O
  O6       1.0000 0.07910  0.94780  0.10800  Biso   1.000  O
  O7       1.0000 0.38110  0.72000  0.26413  Biso   1.000  O
  O8       1.0000 0.40140  0.67700  0.20280  Biso   1.000  O
  C9       1.0000 0.17150  0.90270  0.16647  Biso   1.000  C
  C10      1.0000 0.19830  0.80880  0.14630  Biso   1.000  C
  H5       1.0000 0.17430  0.78600  0.12000  Biso   1.000  H
  C11      1.0000 0.26030  0.74970  0.16540  Biso   1.000  C
  H6       1.0000 0.27940  0.68990  0.15140  Biso   1.000  H
  C12      1.0000 0.29400  0.77850  0.20510  Biso   1.000  C
  C13      1.0000 0.26510  0.86800  0.22600  Biso   1.000  C
  H7       1.0000 0.28680  0.88590  0.25320  Biso   1.000  H
  C14      1.0000 0.20450  0.92990  0.20650  Biso   1.000  C
  H8       1.0000 0.18570  0.99040  0.22040  Biso   1.000  H
  C15      1.0000 0.10990  0.98000  0.14394  Biso   1.000  C
  C16      1.0000 0.36390  0.72030  0.22570  Biso   1.000  C
  O9       1.0000 0.99630  0.37340  0.21641  Biso   1.000  O
  O10      1.0000 0.01800  0.00020  0.22042  Biso   1.000  O
  C17      1.0000 0.02830  0.62350  0.22170  Biso   1.000  C
  H9       1.0000 0.04700  0.58100  0.20240  Biso   1.000  H
  C18      1.0000 0.02900  0.75010  0.22180  Biso   1.000  C
  H10      1.0000 0.04890  0.79230  0.20310  Biso   1.000  H
  O11      1.0000 0.89320  0.96970  0.02806  Biso   1.000  O
  O12      1.0000 0.88390  0.92110  0.96224  Biso   1.000  O
  C19      1.0000 0.80490  0.82880  0.99770  Biso   1.000  C
  C20      1.0000 0.77530  0.83110  0.03200  Biso   1.000  C
  H11      1.0000 0.79230  0.88530  0.05340  Biso   1.000  H
  C21      1.0000 0.77960  0.74860  0.96620  Biso   1.000  C
  H12      1.0000 0.79960  0.74800  0.94340  Biso   1.000  H
  C22      1.0000 0.86560  0.91300  0.99600  Biso   1.000  C
  Eu3      1.0000 0.51301  0.68479  0.18668  Biso   1.000  Eu
  Eu4      1.0000 0.50349  0.55911  0.05576  Biso   1.000  Eu
  Cl2      1.0000 0.42194  0.58659  0.11528  Biso   1.000  Cl
  O13      1.0000 0.53180  0.83670  0.13901  Biso   1.000  O
  O14      1.0000 0.55630  0.73760  0.08591  Biso   1.000  O
  O15      1.0000 0.51880  0.37080  0.01979  Biso   1.000  O
  O16      1.0000 0.57220  0.26830  0.97866  Biso   1.000  O
  C23      1.0000 0.55410  0.95280  0.08284  Biso   1.000  C
  C24      1.0000 0.53330  0.06090  0.09700  Biso   1.000  C
  H13      1.0000 0.51960  0.06350  0.12190  Biso   1.000  H
  C25      1.0000 0.53290  0.16720  0.07400  Biso   1.000  C
  H14      1.0000 0.51590  0.23930  0.08290  Biso   1.000  H
  C26      1.0000 0.55700  0.16610  0.03870  Biso   1.000  C
  C27      1.0000 0.58080  0.05700  0.02540  Biso   1.000  C
  H15      1.0000 0.59840  0.05560  0.00170  Biso   1.000  H
  C28      1.0000 0.57830  0.95110  0.04710  Biso   1.000  C
  H16      1.0000 0.59310  0.87810  0.03760  Biso   1.000  H
  C29      1.0000 0.54730  0.83370  0.10440  Biso   1.000  C
  C30      1.0000 0.55110  0.27510  0.01110  Biso   1.000  C
  O17      1.0000 0.59600  0.57370  0.16113  Biso   1.000  O
  O18      1.0000 0.57910  0.44780  0.10800  Biso   1.000  O
  O19      1.0000 0.88110  0.22000  0.26413  Biso   1.000  O
  O20      1.0000 0.90140  0.17700  0.20280  Biso   1.000  O
  C31      1.0000 0.67150  0.40270  0.16647  Biso   1.000  C
  C32      1.0000 0.69830  0.30880  0.14630  Biso   1.000  C
  H17      1.0000 0.67430  0.28600  0.12000  Biso   1.000  H
  C33      1.0000 0.76030  0.24970  0.16540  Biso   1.000  C
  H18      1.0000 0.77940  0.18990  0.15140  Biso   1.000  H
  C34      1.0000 0.79400  0.27850  0.20510  Biso   1.000  C
  C35      1.0000 0.76510  0.36800  0.22600  Biso   1.000  C
  H19      1.0000 0.78680  0.38590  0.25320  Biso   1.000  H
  C36      1.0000 0.70450  0.42990  0.20650  Biso   1.000  C
  H20      1.0000 0.68570  0.49040  0.22040  Biso   1.000  H
  C37      1.0000 0.60990  0.48000  0.14394  Biso   1.000  C
  C38      1.0000 0.86390  0.22030  0.22570  Biso   1.000  C
  O21      1.0000 0.49630  0.87340  0.21641  Biso   1.000  O
  O22      1.0000 0.51800  0.50020  0.22042  Biso   1.000  O
  C39      1.0000 0.52830  0.12350  0.22170  Biso   1.000  C
  H21      1.0000 0.54700  0.08100  0.20240  Biso   1.000  H
  C40      1.0000 0.52900  0.25010  0.22180  Biso   1.000  C
  H22      1.0000 0.54890  0.29230  0.20310  Biso   1.000  H
  O23      1.0000 0.39320  0.46970  0.02806  Biso   1.000  O
  O24      1.0000 0.38390  0.42110  0.96224  Biso   1.000  O
  C41      1.0000 0.30490  0.32880  0.99770  Biso   1.000  C
  C42      1.0000 0.27530  0.33110  0.03200  Biso   1.000  C
  H23      1.0000 0.29230  0.38530  0.05340  Biso   1.000  H
  C43      1.0000 0.27960  0.24860  0.96620  Biso   1.000  C
  H24      1.0000 0.29960  0.24800  0.94340  Biso   1.000  H
  C44      1.0000 0.36560  0.41300  0.99600  Biso   1.000  C
  Eu5      1.0000 0.98699  0.18479  0.31332  Biso   1.000  Eu
  Eu6      1.0000 0.99651  0.05911  0.44424  Biso   1.000  Eu
  Cl3      1.0000 0.07806  0.08659  0.38472  Biso   1.000  Cl
  O25      1.0000 0.96820  0.33670  0.36099  Biso   1.000  O
  O26      1.0000 0.94370  0.23760  0.41409  Biso   1.000  O
  O27      1.0000 0.98120  0.87080  0.48021  Biso   1.000  O
  O28      1.0000 0.92780  0.76830  0.52134  Biso   1.000  O
  C45      1.0000 0.94590  0.45280  0.41716  Biso   1.000  C
  C46      1.0000 0.96670  0.56090  0.40300  Biso   1.000  C
  H25      1.0000 0.98040  0.56350  0.37810  Biso   1.000  H
  C47      1.0000 0.96710  0.66720  0.42600  Biso   1.000  C
  H26      1.0000 0.98410  0.73930  0.41710  Biso   1.000  H
  C48      1.0000 0.94300  0.66610  0.46130  Biso   1.000  C
  C49      1.0000 0.91920  0.55700  0.47460  Biso   1.000  C
  H27      1.0000 0.90160  0.55560  0.49830  Biso   1.000  H
  C50      1.0000 0.92170  0.45110  0.45290  Biso   1.000  C
  H28      1.0000 0.90690  0.37810  0.46240  Biso   1.000  H
  C51      1.0000 0.95270  0.33370  0.39560  Biso   1.000  C
  C52      1.0000 0.94890  0.77510  0.48890  Biso   1.000  C
  O29      1.0000 0.90400  0.07370  0.33887  Biso   1.000  O
  O30      1.0000 0.92090  0.94780  0.39200  Biso   1.000  O
  O31      1.0000 0.61890  0.72000  0.23587  Biso   1.000  O
  O32      1.0000 0.59860  0.67700  0.29720  Biso   1.000  O
  C53      1.0000 0.82850  0.90270  0.33353  Biso   1.000  C
  C54      1.0000 0.80170  0.80880  0.35370  Biso   1.000  C
  H29      1.0000 0.82570  0.78600  0.38000  Biso   1.000  H
  C55      1.0000 0.73970  0.74970  0.33460  Biso   1.000  C
  H30      1.0000 0.72060  0.68990  0.34860  Biso   1.000  H
  C56      1.0000 0.70600  0.77850  0.29490  Biso   1.000  C
  C57      1.0000 0.73490  0.86800  0.27400  Biso   1.000  C
  H31      1.0000 0.71320  0.88590  0.24680  Biso   1.000  H
  C58      1.0000 0.79550  0.92990  0.29350  Biso   1.000  C
  H32      1.0000 0.81430  0.99040  0.27960  Biso   1.000  H
  C59      1.0000 0.89010  0.98000  0.35606  Biso   1.000  C
  C60      1.0000 0.63610  0.72030  0.27430  Biso   1.000  C
  O33      1.0000 0.00370  0.37340  0.28359  Biso   1.000  O
  O34      1.0000 0.98200  0.00020  0.27958  Biso   1.000  O
  C61      1.0000 0.97170  0.62350  0.27830  Biso   1.000  C
  H33      1.0000 0.95300  0.58100  0.29760  Biso   1.000  H
  C62      1.0000 0.97100  0.75010  0.27820  Biso   1.000  C
  H34      1.0000 0.95110  0.79230  0.29690  Biso   1.000  H
  O35      1.0000 0.10680  0.96970  0.47194  Biso   1.000  O
  O36      1.0000 0.11610  0.92110  0.53776  Biso   1.000  O
  C63      1.0000 0.19510  0.82880  0.50230  Biso   1.000  C
  C64      1.0000 0.22470  0.83110  0.46800  Biso   1.000  C
  H35      1.0000 0.20770  0.88530  0.44660  Biso   1.000  H
  C65      1.0000 0.22040  0.74860  0.53380  Biso   1.000  C
  H36      1.0000 0.20040  0.74800  0.55660  Biso   1.000  H
  C66      1.0000 0.13440  0.91300  0.50400  Biso   1.000  C
  Eu7      1.0000 0.48699  0.68479  0.31332  Biso   1.000  Eu
  Eu8      1.0000 0.49651  0.55911  0.44424  Biso   1.000  Eu
  Cl4      1.0000 0.57806  0.58659  0.38472  Biso   1.000  Cl
  O37      1.0000 0.46820  0.83670  0.36099  Biso   1.000  O
  O38      1.0000 0.44370  0.73760  0.41409  Biso   1.000  O
  O39      1.0000 0.48120  0.37080  0.48021  Biso   1.000  O
  O40      1.0000 0.42780  0.26830  0.52134  Biso   1.000  O
  C67      1.0000 0.44590  0.95280  0.41716  Biso   1.000  C
  C68      1.0000 0.46670  0.06090  0.40300  Biso   1.000  C
  H37      1.0000 0.48040  0.06350  0.37810  Biso   1.000  H
  C69      1.0000 0.46710  0.16720  0.42600  Biso   1.000  C
  H38      1.0000 0.48410  0.23930  0.41710  Biso   1.000  H
  C70      1.0000 0.44300  0.16610  0.46130  Biso   1.000  C
  C71      1.0000 0.41920  0.05700  0.47460  Biso   1.000  C
  H39      1.0000 0.40160  0.05560  0.49830  Biso   1.000  H
  C72      1.0000 0.42170  0.95110  0.45290  Biso   1.000  C
  H40      1.0000 0.40690  0.87810  0.46240  Biso   1.000  H
  C73      1.0000 0.45270  0.83370  0.39560  Biso   1.000  C
  C74      1.0000 0.44890  0.27510  0.48890  Biso   1.000  C
  O41      1.0000 0.40400  0.57370  0.33887  Biso   1.000  O
  O42      1.0000 0.42090  0.44780  0.39200  Biso   1.000  O
  O43      1.0000 0.11890  0.22000  0.23587  Biso   1.000  O
  O44      1.0000 0.09860  0.17700  0.29720  Biso   1.000  O
  C75      1.0000 0.32850  0.40270  0.33353  Biso   1.000  C
  C76      1.0000 0.30170  0.30880  0.35370  Biso   1.000  C
  H41      1.0000 0.32570  0.28600  0.38000  Biso   1.000  H
  C77      1.0000 0.23970  0.24970  0.33460  Biso   1.000  C
  H42      1.0000 0.22060  0.18990  0.34860  Biso   1.000  H
  C78      1.0000 0.20600  0.27850  0.29490  Biso   1.000  C
  C79      1.0000 0.23490  0.36800  0.27400  Biso   1.000  C
  H43      1.0000 0.21320  0.38590  0.24680  Biso   1.000  H
  C80      1.0000 0.29550  0.42990  0.29350  Biso   1.000  C
  H44      1.0000 0.31430  0.49040  0.27960  Biso   1.000  H
  C81      1.0000 0.39010  0.48000  0.35606  Biso   1.000  C
  C82      1.0000 0.13610  0.22030  0.27430  Biso   1.000  C
  O45      1.0000 0.50370  0.87340  0.28359  Biso   1.000  O
  O46      1.0000 0.48200  0.50020  0.27958  Biso   1.000  O
  C83      1.0000 0.47170  0.12350  0.27830  Biso   1.000  C
  H45      1.0000 0.45300  0.08100  0.29760  Biso   1.000  H
  C84      1.0000 0.47100  0.25010  0.27820  Biso   1.000  C
  H46      1.0000 0.45110  0.29230  0.29690  Biso   1.000  H
  O47      1.0000 0.60680  0.46970  0.47194  Biso   1.000  O
  O48      1.0000 0.61610  0.42110  0.53776  Biso   1.000  O
  C85      1.0000 0.69510  0.32880  0.50230  Biso   1.000  C
  C86      1.0000 0.72470  0.33110  0.46800  Biso   1.000  C
  H47      1.0000 0.70770  0.38530  0.44660  Biso   1.000  H
  C87      1.0000 0.72040  0.24860  0.53380  Biso   1.000  C
  H48      1.0000 0.70040  0.24800  0.55660  Biso   1.000  H
  C88      1.0000 0.63440  0.41300  0.50400  Biso   1.000  C
  Eu9      1.0000 0.98699  0.81521  0.81332  Biso   1.000  Eu
  Eu10     1.0000 0.99651  0.94089  0.94424  Biso   1.000  Eu
  Cl5      1.0000 0.07806  0.91341  0.88472  Biso   1.000  Cl
  O49      1.0000 0.96820  0.66330  0.86099  Biso   1.000  O
  O50      1.0000 0.94370  0.76240  0.91409  Biso   1.000  O
  O51      1.0000 0.98120  0.12920  0.98021  Biso   1.000  O
  O52      1.0000 0.92780  0.23170  0.02134  Biso   1.000  O
  C89      1.0000 0.94590  0.54720  0.91716  Biso   1.000  C
  C90      1.0000 0.96670  0.43910  0.90300  Biso   1.000  C
  H49      1.0000 0.98040  0.43650  0.87810  Biso   1.000  H
  C91      1.0000 0.96710  0.33280  0.92600  Biso   1.000  C
  H50      1.0000 0.98410  0.26070  0.91710  Biso   1.000  H
  C92      1.0000 0.94300  0.33390  0.96130  Biso   1.000  C
  C93      1.0000 0.91920  0.44300  0.97460  Biso   1.000  C
  H51      1.0000 0.90160  0.44440  0.99830  Biso   1.000  H
  C94      1.0000 0.92170  0.54890  0.95290  Biso   1.000  C
  H52      1.0000 0.90690  0.62190  0.96240  Biso   1.000  H
  C95      1.0000 0.95270  0.66630  0.89560  Biso   1.000  C
  C96      1.0000 0.94890  0.22490  0.98890  Biso   1.000  C
  O53      1.0000 0.90400  0.92630  0.83887  Biso   1.000  O
  O54      1.0000 0.92090  0.05220  0.89200  Biso   1.000  O
  O55      1.0000 0.61890  0.28000  0.73587  Biso   1.000  O
  O56      1.0000 0.59860  0.32300  0.79720  Biso   1.000  O
  C97      1.0000 0.82850  0.09730  0.83353  Biso   1.000  C
  C98      1.0000 0.80170  0.19120  0.85370  Biso   1.000  C
  H53      1.0000 0.82570  0.21400  0.88000  Biso   1.000  H
  C99      1.0000 0.73970  0.25030  0.83460  Biso   1.000  C
  H54      1.0000 0.72060  0.31010  0.84860  Biso   1.000  H
  C100     1.0000 0.70600  0.22150  0.79490  Biso   1.000  C
  C101     1.0000 0.73490  0.13200  0.77400  Biso   1.000  C
  H55      1.0000 0.71320  0.11410  0.74680  Biso   1.000  H
  C102     1.0000 0.79550  0.07010  0.79350  Biso   1.000  C
  H56      1.0000 0.81430  0.00960  0.77960  Biso   1.000  H
  C103     1.0000 0.89010  0.02000  0.85606  Biso   1.000  C
  C104     1.0000 0.63610  0.27970  0.77430  Biso   1.000  C
  O57      1.0000 0.00370  0.62660  0.78359  Biso   1.000  O
  O58      1.0000 0.98200  0.99980  0.77958  Biso   1.000  O
  C105     1.0000 0.97170  0.37650  0.77830  Biso   1.000  C
  H57      1.0000 0.95300  0.41900  0.79760  Biso   1.000  H
  C106     1.0000 0.97100  0.24990  0.77820  Biso   1.000  C
  H58      1.0000 0.95110  0.20770  0.79690  Biso   1.000  H
  O59      1.0000 0.10680  0.03030  0.97194  Biso   1.000  O
  O60      1.0000 0.11610  0.07890  0.03776  Biso   1.000  O
  C107     1.0000 0.19510  0.17120  0.00230  Biso   1.000  C
  C108     1.0000 0.22470  0.16890  0.96800  Biso   1.000  C
  H59      1.0000 0.20770  0.11470  0.94660  Biso   1.000  H
  C109     1.0000 0.22040  0.25140  0.03380  Biso   1.000  C
  H60      1.0000 0.20040  0.25200  0.05660  Biso   1.000  H
  C110     1.0000 0.13440  0.08700  0.00400  Biso   1.000  C
  Eu11     1.0000 0.48699  0.31521  0.81332  Biso   1.000  Eu
  Eu12     1.0000 0.49651  0.44089  0.94424  Biso   1.000  Eu
  Cl6      1.0000 0.57806  0.41341  0.88472  Biso   1.000  Cl
  O61      1.0000 0.46820  0.16330  0.86099  Biso   1.000  O
  O62      1.0000 0.44370  0.26240  0.91409  Biso   1.000  O
  O63      1.0000 0.48120  0.62920  0.98021  Biso   1.000  O
  O64      1.0000 0.42780  0.73170  0.02134  Biso   1.000  O
  C111     1.0000 0.44590  0.04720  0.91716  Biso   1.000  C
  C112     1.0000 0.46670  0.93910  0.90300  Biso   1.000  C
  H61      1.0000 0.48040  0.93650  0.87810  Biso   1.000  H
  C113     1.0000 0.46710  0.83280  0.92600  Biso   1.000  C
  H62      1.0000 0.48410  0.76070  0.91710  Biso   1.000  H
  C114     1.0000 0.44300  0.83390  0.96130  Biso   1.000  C
  C115     1.0000 0.41920  0.94300  0.97460  Biso   1.000  C
  H63      1.0000 0.40160  0.94440  0.99830  Biso   1.000  H
  C116     1.0000 0.42170  0.04890  0.95290  Biso   1.000  C
  H64      1.0000 0.40690  0.12190  0.96240  Biso   1.000  H
  C117     1.0000 0.45270  0.16630  0.89560  Biso   1.000  C
  C118     1.0000 0.44890  0.72490  0.98890  Biso   1.000  C
  O65      1.0000 0.40400  0.42630  0.83887  Biso   1.000  O
  O66      1.0000 0.42090  0.55220  0.89200  Biso   1.000  O
  O67      1.0000 0.11890  0.78000  0.73587  Biso   1.000  O
  O68      1.0000 0.09860  0.82300  0.79720  Biso   1.000  O
  C119     1.0000 0.32850  0.59730  0.83353  Biso   1.000  C
  C120     1.0000 0.30170  0.69120  0.85370  Biso   1.000  C
  H65      1.0000 0.32570  0.71400  0.88000  Biso   1.000  H
  C121     1.0000 0.23970  0.75030  0.83460  Biso   1.000  C
  H66      1.0000 0.22060  0.81010  0.84860  Biso   1.000  H
  C122     1.0000 0.20600  0.72150  0.79490  Biso   1.000  C
  C123     1.0000 0.23490  0.63200  0.77400  Biso   1.000  C
  H67      1.0000 0.21320  0.61410  0.74680  Biso   1.000  H
  C124     1.0000 0.29550  0.57010  0.79350  Biso   1.000  C
  H68      1.0000 0.31430  0.50960  0.77960  Biso   1.000  H
  C125     1.0000 0.39010  0.52000  0.85606  Biso   1.000  C
  C126     1.0000 0.13610  0.77970  0.77430  Biso   1.000  C
  O69      1.0000 0.50370  0.12660  0.78359  Biso   1.000  O
  O70      1.0000 0.48200  0.49980  0.77958  Biso   1.000  O
  C127     1.0000 0.47170  0.87650  0.77830  Biso   1.000  C
  H69      1.0000 0.45300  0.91900  0.79760  Biso   1.000  H
  C128     1.0000 0.47100  0.74990  0.77820  Biso   1.000  C
  H70      1.0000 0.45110  0.70770  0.79690  Biso   1.000  H
  O71      1.0000 0.60680  0.53030  0.97194  Biso   1.000  O
  O72      1.0000 0.61610  0.57890  0.03776  Biso   1.000  O
  C129     1.0000 0.69510  0.67120  0.00230  Biso   1.000  C
  C130     1.0000 0.72470  0.66890  0.96800  Biso   1.000  C
  H71      1.0000 0.70770  0.61470  0.94660  Biso   1.000  H
  C131     1.0000 0.72040  0.75140  0.03380  Biso   1.000  C
  H72      1.0000 0.70040  0.75200  0.05660  Biso   1.000  H
  C132     1.0000 0.63440  0.58700  0.00400  Biso   1.000  C
  Eu13     1.0000 0.01301  0.81521  0.68668  Biso   1.000  Eu
  Eu14     1.0000 0.00349  0.94089  0.55576  Biso   1.000  Eu
  Cl7      1.0000 0.92194  0.91341  0.61528  Biso   1.000  Cl
  O73      1.0000 0.03180  0.66330  0.63901  Biso   1.000  O
  O74      1.0000 0.05630  0.76240  0.58591  Biso   1.000  O
  O75      1.0000 0.01880  0.12920  0.51979  Biso   1.000  O
  O76      1.0000 0.07220  0.23170  0.47866  Biso   1.000  O
  C133     1.0000 0.05410  0.54720  0.58284  Biso   1.000  C
  C134     1.0000 0.03330  0.43910  0.59700  Biso   1.000  C
  H73      1.0000 0.01960  0.43650  0.62190  Biso   1.000  H
  C135     1.0000 0.03290  0.33280  0.57400  Biso   1.000  C
  H74      1.0000 0.01590  0.26070  0.58290  Biso   1.000  H
  C136     1.0000 0.05700  0.33390  0.53870  Biso   1.000  C
  C137     1.0000 0.08080  0.44300  0.52540  Biso   1.000  C
  H75      1.0000 0.09840  0.44440  0.50170  Biso   1.000  H
  C138     1.0000 0.07830  0.54890  0.54710  Biso   1.000  C
  H76      1.0000 0.09310  0.62190  0.53760  Biso   1.000  H
  C139     1.0000 0.04730  0.66630  0.60440  Biso   1.000  C
  C140     1.0000 0.05110  0.22490  0.51110  Biso   1.000  C
  O77      1.0000 0.09600  0.92630  0.66113  Biso   1.000  O
  O78      1.0000 0.07910  0.05220  0.60800  Biso   1.000  O
  O79      1.0000 0.38110  0.28000  0.76413  Biso   1.000  O
  O80      1.0000 0.40140  0.32300  0.70280  Biso   1.000  O
  C141     1.0000 0.17150  0.09730  0.66647  Biso   1.000  C
  C142     1.0000 0.19830  0.19120  0.64630  Biso   1.000  C
  H77      1.0000 0.17430  0.21400  0.62000  Biso   1.000  H
  C143     1.0000 0.26030  0.25030  0.66540  Biso   1.000  C
  H78      1.0000 0.27940  0.31010  0.65140  Biso   1.000  H
  C144     1.0000 0.29400  0.22150  0.70510  Biso   1.000  C
  C145     1.0000 0.26510  0.13200  0.72600  Biso   1.000  C
  H79      1.0000 0.28680  0.11410  0.75320  Biso   1.000  H
  C146     1.0000 0.20450  0.07010  0.70650  Biso   1.000  C
  H80      1.0000 0.18570  0.00960  0.72040  Biso   1.000  H
  C147     1.0000 0.10990  0.02000  0.64394  Biso   1.000  C
  C148     1.0000 0.36390  0.27970  0.72570  Biso   1.000  C
  O81      1.0000 0.99630  0.62660  0.71641  Biso   1.000  O
  O82      1.0000 0.01800  0.99980  0.72042  Biso   1.000  O
  C149     1.0000 0.02830  0.37650  0.72170  Biso   1.000  C
  H81      1.0000 0.04700  0.41900  0.70240  Biso   1.000  H
  C150     1.0000 0.02900  0.24990  0.72180  Biso   1.000  C
  H82      1.0000 0.04890  0.20770  0.70310  Biso   1.000  H
  O83      1.0000 0.89320  0.03030  0.52806  Biso   1.000  O
  O84      1.0000 0.88390  0.07890  0.46224  Biso   1.000  O
  C151     1.0000 0.80490  0.17120  0.49770  Biso   1.000  C
  C152     1.0000 0.77530  0.16890  0.53200  Biso   1.000  C
  H83      1.0000 0.79230  0.11470  0.55340  Biso   1.000  H
  C153     1.0000 0.77960  0.25140  0.46620  Biso   1.000  C
  H84      1.0000 0.79960  0.25200  0.44340  Biso   1.000  H
  C154     1.0000 0.86560  0.08700  0.49600  Biso   1.000  C
  Eu15     1.0000 0.51301  0.31521  0.68668  Biso   1.000  Eu
  Eu16     1.0000 0.50349  0.44089  0.55576  Biso   1.000  Eu
  Cl8      1.0000 0.42194  0.41341  0.61528  Biso   1.000  Cl
  O85      1.0000 0.53180  0.16330  0.63901  Biso   1.000  O
  O86      1.0000 0.55630  0.26240  0.58591  Biso   1.000  O
  O87      1.0000 0.51880  0.62920  0.51979  Biso   1.000  O
  O88      1.0000 0.57220  0.73170  0.47866  Biso   1.000  O
  C155     1.0000 0.55410  0.04720  0.58284  Biso   1.000  C
  C156     1.0000 0.53330  0.93910  0.59700  Biso   1.000  C
  H85      1.0000 0.51960  0.93650  0.62190  Biso   1.000  H
  C157     1.0000 0.53290  0.83280  0.57400  Biso   1.000  C
  H86      1.0000 0.51590  0.76070  0.58290  Biso   1.000  H
  C158     1.0000 0.55700  0.83390  0.53870  Biso   1.000  C
  C159     1.0000 0.58080  0.94300  0.52540  Biso   1.000  C
  H87      1.0000 0.59840  0.94440  0.50170  Biso   1.000  H
  C160     1.0000 0.57830  0.04890  0.54710  Biso   1.000  C
  H88      1.0000 0.59310  0.12190  0.53760  Biso   1.000  H
  C161     1.0000 0.54730  0.16630  0.60440  Biso   1.000  C
  C162     1.0000 0.55110  0.72490  0.51110  Biso   1.000  C
  O89      1.0000 0.59600  0.42630  0.66113  Biso   1.000  O
  O90      1.0000 0.57910  0.55220  0.60800  Biso   1.000  O
  O91      1.0000 0.88110  0.78000  0.76413  Biso   1.000  O
  O92      1.0000 0.90140  0.82300  0.70280  Biso   1.000  O
  C163     1.0000 0.67150  0.59730  0.66647  Biso   1.000  C
  C164     1.0000 0.69830  0.69120  0.64630  Biso   1.000  C
  H89      1.0000 0.67430  0.71400  0.62000  Biso   1.000  H
  C165     1.0000 0.76030  0.75030  0.66540  Biso   1.000  C
  H90      1.0000 0.77940  0.81010  0.65140  Biso   1.000  H
  C166     1.0000 0.79400  0.72150  0.70510  Biso   1.000  C
  C167     1.0000 0.76510  0.63200  0.72600  Biso   1.000  C
  H91      1.0000 0.78680  0.61410  0.75320  Biso   1.000  H
  C168     1.0000 0.70450  0.57010  0.70650  Biso   1.000  C
  H92      1.0000 0.68570  0.50960  0.72040  Biso   1.000  H
  C169     1.0000 0.60990  0.52000  0.64394  Biso   1.000  C
  C170     1.0000 0.86390  0.77970  0.72570  Biso   1.000  C
  O93      1.0000 0.49630  0.12660  0.71641  Biso   1.000  O
  O94      1.0000 0.51800  0.49980  0.72042  Biso   1.000  O
  C171     1.0000 0.52830  0.87650  0.72170  Biso   1.000  C
  H93      1.0000 0.54700  0.91900  0.70240  Biso   1.000  H
  C172     1.0000 0.52900  0.74990  0.72180  Biso   1.000  C
  H94      1.0000 0.54890  0.70770  0.70310  Biso   1.000  H
  O95      1.0000 0.39320  0.53030  0.52806  Biso   1.000  O
  O96      1.0000 0.38390  0.57890  0.46224  Biso   1.000  O
  C173     1.0000 0.30490  0.67120  0.49770  Biso   1.000  C
  C174     1.0000 0.27530  0.66890  0.53200  Biso   1.000  C
  H95      1.0000 0.29230  0.61470  0.55340  Biso   1.000  H
  C175     1.0000 0.27960  0.75140  0.46620  Biso   1.000  C
  H96      1.0000 0.29960  0.75200  0.44340  Biso   1.000  H
  C176     1.0000 0.36560  0.58700  0.49600  Biso   1.000  C
  C177     1.0000 0.00000  0.56110  0.25000  Biso   1.000  C
  C178     1.0000 0.00000  0.81270  0.25000  Biso   1.000  C
  C179     1.0000 0.00000  0.42460  0.25000  Biso   1.000  C
  C180     1.0000 0.00000  0.94910  0.25000  Biso   1.000  C
  C181     1.0000 0.50000  0.06110  0.25000  Biso   1.000  C
  C182     1.0000 0.50000  0.31270  0.25000  Biso   1.000  C
  C183     1.0000 0.50000  0.92460  0.25000  Biso   1.000  C
  C184     1.0000 0.50000  0.44910  0.25000  Biso   1.000  C
  C185     1.0000 0.00000  0.43890  0.75000  Biso   1.000  C
  C186     1.0000 0.00000  0.18730  0.75000  Biso   1.000  C
  C187     1.0000 0.00000  0.57540  0.75000  Biso   1.000  C
  C188     1.0000 0.00000  0.05090  0.75000  Biso   1.000  C
  C189     1.0000 0.50000  0.93890  0.75000  Biso   1.000  C
  C190     1.0000 0.50000  0.68730  0.75000  Biso   1.000  C
  C191     1.0000 0.50000  0.07540  0.75000  Biso   1.000  C
  C192     1.0000 0.50000  0.55090  0.75000  Biso   1.000  C
