data_image0
_cell_length_a       12.0317
_cell_length_b       19.515
_cell_length_c       17.2834
_cell_angle_alpha    90
_cell_angle_beta     122.332
_cell_angle_gamma    90

_symmetry_space_group_name_H-M    "P 1"
_symmetry_int_tables_number       1

loop_
  _symmetry_equiv_pos_as_xyz
  'x, y, z'

loop_
  _atom_site_label
  _atom_site_occupancy
  _atom_site_fract_x
  _atom_site_fract_y
  _atom_site_fract_z
  _atom_site_thermal_displace_type
  _atom_site_B_iso_or_equiv
  _atom_site_type_symbol
  Eu1      1.0000 0.73544  0.73014  0.55654  Biso   1.000  Eu
  Eu2      1.0000 0.68554  0.76747  0.76588  Biso   1.000  Eu
  Cl1      1.0000 0.76445  0.80849  0.42863  Biso   1.000  Cl
  O1       1.0000 0.44590  0.31177  0.57450  Biso   1.000  O
  O2       1.0000 0.45710  0.32708  0.70510  Biso   1.000  O
  O3       1.0000 0.71210  0.65130  0.74390  Biso   1.000  O
  O4       1.0000 0.74880  0.62847  0.63380  Biso   1.000  O
  O5       1.0000 0.96250  0.75100  0.16990  Biso   1.000  O
  O6       1.0000 0.86240  0.73581  0.24340  Biso   1.000  O
  O7       1.0000 0.45790  0.72680  0.65700  Biso   1.000  O
  O8       1.0000 0.56790  0.73933  0.59030  Biso   1.000  O
  O9       1.0000 0.83560  0.65258  0.51030  Biso   1.000  O
  O10      1.0000 0.82430  0.65444  0.37830  Biso   1.000  O
  O11      1.0000 0.64250  0.86825  0.67570  Biso   1.000  O
  O12      1.0000 0.69990  0.84567  0.57530  Biso   1.000  O
  C1       1.0000 0.53610  0.41520  0.65400  Biso   1.000  C
  C2       1.0000 0.53420  0.46340  0.71220  Biso   1.000  C
  H1       1.0000 0.49490  0.45290  0.74460  Biso   1.000  H
  C3       1.0000 0.59020  0.52710  0.72170  Biso   1.000  C
  H2       1.0000 0.58900  0.55930  0.76100  Biso   1.000  H
  C4       1.0000 0.64860  0.54340  0.67350  Biso   1.000  C
  C5       1.0000 0.64930  0.49560  0.61530  Biso   1.000  C
  H3       1.0000 0.68790  0.50640  0.58240  Biso   1.000  H
  C6       1.0000 0.59340  0.43170  0.60500  Biso   1.000  C
  H4       1.0000 0.59430  0.39980  0.56540  Biso   1.000  H
  C7       1.0000 0.47410  0.34660  0.64380  Biso   1.000  C
  C8       1.0000 0.70760  0.61300  0.68420  Biso   1.000  C
  C9       1.0000 0.09530  0.73270  0.32990  Biso   1.000  C
  C10      1.0000 0.10680  0.69830  0.40350  Biso   1.000  C
  H5       1.0000 0.03370  0.67690  0.39780  Biso   1.000  H
  C11      1.0000 0.22640  0.69550  0.48560  Biso   1.000  C
  H6       1.0000 0.23350  0.67220  0.53500  Biso   1.000  H
  C12      1.0000 0.33540  0.72740  0.49460  Biso   1.000  C
  C13      1.0000 0.32500  0.76000  0.42040  Biso   1.000  C
  H7       1.0000 0.39870  0.78040  0.42580  Biso   1.000  H
  C14      1.0000 0.20590  0.76270  0.33850  Biso   1.000  C
  H8       1.0000 0.19960  0.78460  0.28850  Biso   1.000  H
  C15      1.0000 0.96550  0.74010  0.24210  Biso   1.000  C
  C16      1.0000 0.46090  0.73020  0.58640  Biso   1.000  C
  C17      1.0000 0.93150  0.56160  0.47730  Biso   1.000  C
  C18      1.0000 0.94980  0.52860  0.41520  Biso   1.000  C
  H9       1.0000 0.91600  0.54760  0.35740  Biso   1.000  H
  C19      1.0000 0.98230  0.53270  0.56300  Biso   1.000  C
  H10      1.0000 0.97080  0.55460  0.60610  Biso   1.000  H
  C20      1.0000 0.85770  0.62790  0.45350  Biso   1.000  C
  C21      1.0000 0.57160  0.94360  0.55130  Biso   1.000  C
  C22      1.0000 0.52920  0.94760  0.46000  Biso   1.000  C
  H11      1.0000 0.54930  0.91260  0.43300  Biso   1.000  H
  C23      1.0000 0.54360  0.99630  0.59190  Biso   1.000  C
  H12      1.0000 0.57330  0.99410  0.65380  Biso   1.000  H
  C24      1.0000 0.64580  0.88100  0.60610  Biso   1.000  C
  Eu3      1.0000 0.26456  0.23014  0.94346  Biso   1.000  Eu
  Eu4      1.0000 0.31446  0.26747  0.73412  Biso   1.000  Eu
  Cl2      1.0000 0.23555  0.30849  0.07137  Biso   1.000  Cl
  O13      1.0000 0.55410  0.81177  0.92550  Biso   1.000  O
  O14      1.0000 0.54290  0.82708  0.79490  Biso   1.000  O
  O15      1.0000 0.28790  0.15130  0.75610  Biso   1.000  O
  O16      1.0000 0.25120  0.12847  0.86620  Biso   1.000  O
  O17      1.0000 0.03750  0.25100  0.33010  Biso   1.000  O
  O18      1.0000 0.13760  0.23581  0.25660  Biso   1.000  O
  O19      1.0000 0.54210  0.22680  0.84300  Biso   1.000  O
  O20      1.0000 0.43210  0.23933  0.90970  Biso   1.000  O
  O21      1.0000 0.16440  0.15258  0.98970  Biso   1.000  O
  O22      1.0000 0.17570  0.15444  0.12170  Biso   1.000  O
  O23      1.0000 0.35750  0.36825  0.82430  Biso   1.000  O
  O24      1.0000 0.30010  0.34567  0.92470  Biso   1.000  O
  C25      1.0000 0.46390  0.91520  0.84600  Biso   1.000  C
  C26      1.0000 0.46580  0.96340  0.78780  Biso   1.000  C
  H13      1.0000 0.50510  0.95290  0.75540  Biso   1.000  H
  C27      1.0000 0.40980  0.02710  0.77830  Biso   1.000  C
  H14      1.0000 0.41100  0.05930  0.73900  Biso   1.000  H
  C28      1.0000 0.35140  0.04340  0.82650  Biso   1.000  C
  C29      1.0000 0.35070  0.99560  0.88470  Biso   1.000  C
  H15      1.0000 0.31210  0.00640  0.91760  Biso   1.000  H
  C30      1.0000 0.40660  0.93170  0.89500  Biso   1.000  C
  H16      1.0000 0.40570  0.89980  0.93460  Biso   1.000  H
  C31      1.0000 0.52590  0.84660  0.85620  Biso   1.000  C
  C32      1.0000 0.29240  0.11300  0.81580  Biso   1.000  C
  C33      1.0000 0.90470  0.23270  0.17010  Biso   1.000  C
  C34      1.0000 0.89320  0.19830  0.09650  Biso   1.000  C
  H17      1.0000 0.96630  0.17690  0.10220  Biso   1.000  H
  C35      1.0000 0.77360  0.19550  0.01440  Biso   1.000  C
  H18      1.0000 0.76650  0.17220  0.96500  Biso   1.000  H
  C36      1.0000 0.66460  0.22740  0.00540  Biso   1.000  C
  C37      1.0000 0.67500  0.26000  0.07960  Biso   1.000  C
  H19      1.0000 0.60130  0.28040  0.07420  Biso   1.000  H
  C38      1.0000 0.79410  0.26270  0.16150  Biso   1.000  C
  H20      1.0000 0.80040  0.28460  0.21150  Biso   1.000  H
  C39      1.0000 0.03450  0.24010  0.25790  Biso   1.000  C
  C40      1.0000 0.53910  0.23020  0.91360  Biso   1.000  C
  C41      1.0000 0.06850  0.06160  0.02270  Biso   1.000  C
  C42      1.0000 0.05020  0.02860  0.08480  Biso   1.000  C
  H21      1.0000 0.08400  0.04760  0.14260  Biso   1.000  H
  C43      1.0000 0.01770  0.03270  0.93700  Biso   1.000  C
  H22      1.0000 0.02920  0.05460  0.89390  Biso   1.000  H
  C44      1.0000 0.14230  0.12790  0.04650  Biso   1.000  C
  C45      1.0000 0.42840  0.44360  0.94870  Biso   1.000  C
  C46      1.0000 0.47080  0.44760  0.04000  Biso   1.000  C
  H23      1.0000 0.45070  0.41260  0.06700  Biso   1.000  H
  C47      1.0000 0.45640  0.49630  0.90810  Biso   1.000  C
  H24      1.0000 0.42670  0.49410  0.84620  Biso   1.000  H
  C48      1.0000 0.35420  0.38100  0.89390  Biso   1.000  C
  Eu5      1.0000 0.26456  0.26986  0.44346  Biso   1.000  Eu
  Eu6      1.0000 0.31446  0.23253  0.23412  Biso   1.000  Eu
  Cl3      1.0000 0.23555  0.19151  0.57137  Biso   1.000  Cl
  O25      1.0000 0.55410  0.68823  0.42550  Biso   1.000  O
  O26      1.0000 0.54290  0.67292  0.29490  Biso   1.000  O
  O27      1.0000 0.28790  0.34870  0.25610  Biso   1.000  O
  O28      1.0000 0.25120  0.37153  0.36620  Biso   1.000  O
  O29      1.0000 0.03750  0.24900  0.83010  Biso   1.000  O
  O30      1.0000 0.13760  0.26419  0.75660  Biso   1.000  O
  O31      1.0000 0.54210  0.27320  0.34300  Biso   1.000  O
  O32      1.0000 0.43210  0.26067  0.40970  Biso   1.000  O
  O33      1.0000 0.16440  0.34742  0.48970  Biso   1.000  O
  O34      1.0000 0.17570  0.34556  0.62170  Biso   1.000  O
  O35      1.0000 0.35750  0.13175  0.32430  Biso   1.000  O
  O36      1.0000 0.30010  0.15433  0.42470  Biso   1.000  O
  C49      1.0000 0.46390  0.58480  0.34600  Biso   1.000  C
  C50      1.0000 0.46580  0.53660  0.28780  Biso   1.000  C
  H25      1.0000 0.50510  0.54710  0.25540  Biso   1.000  H
  C51      1.0000 0.40980  0.47290  0.27830  Biso   1.000  C
  H26      1.0000 0.41100  0.44070  0.23900  Biso   1.000  H
  C52      1.0000 0.35140  0.45660  0.32650  Biso   1.000  C
  C53      1.0000 0.35070  0.50440  0.38470  Biso   1.000  C
  H27      1.0000 0.31210  0.49360  0.41760  Biso   1.000  H
  C54      1.0000 0.40660  0.56830  0.39500  Biso   1.000  C
  H28      1.0000 0.40570  0.60020  0.43460  Biso   1.000  H
  C55      1.0000 0.52590  0.65340  0.35620  Biso   1.000  C
  C56      1.0000 0.29240  0.38700  0.31580  Biso   1.000  C
  C57      1.0000 0.90470  0.26730  0.67010  Biso   1.000  C
  C58      1.0000 0.89320  0.30170  0.59650  Biso   1.000  C
  H29      1.0000 0.96630  0.32310  0.60220  Biso   1.000  H
  C59      1.0000 0.77360  0.30450  0.51440  Biso   1.000  C
  H30      1.0000 0.76650  0.32780  0.46500  Biso   1.000  H
  C60      1.0000 0.66460  0.27260  0.50540  Biso   1.000  C
  C61      1.0000 0.67500  0.24000  0.57960  Biso   1.000  C
  H31      1.0000 0.60130  0.21960  0.57420  Biso   1.000  H
  C62      1.0000 0.79410  0.23730  0.66150  Biso   1.000  C
  H32      1.0000 0.80040  0.21540  0.71150  Biso   1.000  H
  C63      1.0000 0.03450  0.25990  0.75790  Biso   1.000  C
  C64      1.0000 0.53910  0.26980  0.41360  Biso   1.000  C
  C65      1.0000 0.06850  0.43840  0.52270  Biso   1.000  C
  C66      1.0000 0.05020  0.47140  0.58480  Biso   1.000  C
  H33      1.0000 0.08400  0.45240  0.64260  Biso   1.000  H
  C67      1.0000 0.01770  0.46730  0.43700  Biso   1.000  C
  H34      1.0000 0.02920  0.44540  0.39390  Biso   1.000  H
  C68      1.0000 0.14230  0.37210  0.54650  Biso   1.000  C
  C69      1.0000 0.42840  0.05640  0.44870  Biso   1.000  C
  C70      1.0000 0.47080  0.05240  0.54000  Biso   1.000  C
  H35      1.0000 0.45070  0.08740  0.56700  Biso   1.000  H
  C71      1.0000 0.45640  0.00370  0.40810  Biso   1.000  C
  H36      1.0000 0.42670  0.00590  0.34620  Biso   1.000  H
  C72      1.0000 0.35420  0.11900  0.39390  Biso   1.000  C
  Eu7      1.0000 0.73544  0.76986  0.05654  Biso   1.000  Eu
  Eu8      1.0000 0.68554  0.73253  0.26588  Biso   1.000  Eu
  Cl4      1.0000 0.76445  0.69151  0.92863  Biso   1.000  Cl
  O37      1.0000 0.44590  0.18823  0.07450  Biso   1.000  O
  O38      1.0000 0.45710  0.17292  0.20510  Biso   1.000  O
  O39      1.0000 0.71210  0.84870  0.24390  Biso   1.000  O
  O40      1.0000 0.74880  0.87153  0.13380  Biso   1.000  O
  O41      1.0000 0.96250  0.74900  0.66990  Biso   1.000  O
  O42      1.0000 0.86240  0.76419  0.74340  Biso   1.000  O
  O43      1.0000 0.45790  0.77320  0.15700  Biso   1.000  O
  O44      1.0000 0.56790  0.76067  0.09030  Biso   1.000  O
  O45      1.0000 0.83560  0.84742  0.01030  Biso   1.000  O
  O46      1.0000 0.82430  0.84556  0.87830  Biso   1.000  O
  O47      1.0000 0.64250  0.63175  0.17570  Biso   1.000  O
  O48      1.0000 0.69990  0.65433  0.07530  Biso   1.000  O
  C73      1.0000 0.53610  0.08480  0.15400  Biso   1.000  C
  C74      1.0000 0.53420  0.03660  0.21220  Biso   1.000  C
  H37      1.0000 0.49490  0.04710  0.24460  Biso   1.000  H
  C75      1.0000 0.59020  0.97290  0.22170  Biso   1.000  C
  H38      1.0000 0.58900  0.94070  0.26100  Biso   1.000  H
  C76      1.0000 0.64860  0.95660  0.17350  Biso   1.000  C
  C77      1.0000 0.64930  0.00440  0.11530  Biso   1.000  C
  H39      1.0000 0.68790  0.99360  0.08240  Biso   1.000  H
  C78      1.0000 0.59340  0.06830  0.10500  Biso   1.000  C
  H40      1.0000 0.59430  0.10020  0.06540  Biso   1.000  H
  C79      1.0000 0.47410  0.15340  0.14380  Biso   1.000  C
  C80      1.0000 0.70760  0.88700  0.18420  Biso   1.000  C
  C81      1.0000 0.09530  0.76730  0.82990  Biso   1.000  C
  C82      1.0000 0.10680  0.80170  0.90350  Biso   1.000  C
  H41      1.0000 0.03370  0.82310  0.89780  Biso   1.000  H
  C83      1.0000 0.22640  0.80450  0.98560  Biso   1.000  C
  H42      1.0000 0.23350  0.82780  0.03500  Biso   1.000  H
  C84      1.0000 0.33540  0.77260  0.99460  Biso   1.000  C
  C85      1.0000 0.32500  0.74000  0.92040  Biso   1.000  C
  H43      1.0000 0.39870  0.71960  0.92580  Biso   1.000  H
  C86      1.0000 0.20590  0.73730  0.83850  Biso   1.000  C
  H44      1.0000 0.19960  0.71540  0.78850  Biso   1.000  H
  C87      1.0000 0.96550  0.75990  0.74210  Biso   1.000  C
  C88      1.0000 0.46090  0.76980  0.08640  Biso   1.000  C
  C89      1.0000 0.93150  0.93840  0.97730  Biso   1.000  C
  C90      1.0000 0.94980  0.97140  0.91520  Biso   1.000  C
  H45      1.0000 0.91600  0.95240  0.85740  Biso   1.000  H
  C91      1.0000 0.98230  0.96730  0.06300  Biso   1.000  C
  H46      1.0000 0.97080  0.94540  0.10610  Biso   1.000  H
  C92      1.0000 0.85770  0.87210  0.95350  Biso   1.000  C
  C93      1.0000 0.57160  0.55640  0.05130  Biso   1.000  C
  C94      1.0000 0.52920  0.55240  0.96000  Biso   1.000  C
  H47      1.0000 0.54930  0.58740  0.93300  Biso   1.000  H
  C95      1.0000 0.54360  0.50370  0.09190  Biso   1.000  C
  H48      1.0000 0.57330  0.50590  0.15380  Biso   1.000  H
  C96      1.0000 0.64580  0.61900  0.10610  Biso   1.000  C
