data_IXODUV_clean
_audit_creation_date              2014-07-02
_audit_creation_method            'Materials Studio'
_symmetry_space_group_name_H-M    'P1'
_symmetry_Int_Tables_number       1
_symmetry_cell_setting            triclinic
loop_
_symmetry_equiv_pos_as_xyz
  x,y,z
_cell_length_a                    6.8050
_cell_length_b                    13.9793
_cell_length_c                    15.9447
_cell_angle_alpha                 90.0000
_cell_angle_beta                  90.0000
_cell_angle_gamma                 90.0000
loop_
_atom_site_label
_atom_site_type_symbol
_atom_site_fract_x
_atom_site_fract_y
_atom_site_fract_z
_atom_site_U_iso_or_equiv
_atom_site_adp_type
_atom_site_occupancy
V1     V     0.93497   0.23611   0.49880   0.01267  Uiso   1.00
V2     V     0.56503   0.76389   0.99880   0.01267  Uiso   1.00
V3     V     0.06503   0.73611   0.00120   0.01267  Uiso   1.00
V4     V     0.43497   0.26389   0.50120   0.01267  Uiso   1.00
H1     H     0.96780   0.95320   0.17940   0.01267  Uiso   1.00
H2     H     0.55130   0.98350   0.17670   0.01267  Uiso   1.00
H3     H     0.94690   0.06150   0.28840   0.01267  Uiso   1.00
H4     H     0.53080   0.09240   0.28530   0.01267  Uiso   1.00
H5     H     0.53220   0.04680   0.67940   0.01267  Uiso   1.00
H6     H     0.94870   0.01650   0.67670   0.01267  Uiso   1.00
H7     H     0.55310   0.93850   0.78840   0.01267  Uiso   1.00
H8     H     0.96920   0.90760   0.78530   0.01267  Uiso   1.00
H9     H     0.03220   0.45320   0.32060   0.01267  Uiso   1.00
H10    H     0.44870   0.48350   0.32330   0.01267  Uiso   1.00
H11    H     0.05310   0.56150   0.21160   0.01267  Uiso   1.00
H12    H     0.46920   0.59240   0.21470   0.01267  Uiso   1.00
H13    H     0.46780   0.54680   0.82060   0.01267  Uiso   1.00
H14    H     0.05130   0.51650   0.82330   0.01267  Uiso   1.00
H15    H     0.44690   0.43850   0.71160   0.01267  Uiso   1.00
H16    H     0.03080   0.40760   0.71470   0.01267  Uiso   1.00
C1     C     0.27570   0.88095   0.10191   0.01267  Uiso   1.00
C2     C     0.26190   0.95574   0.16867   0.01267  Uiso   1.00
C3     C     0.08160   0.98030   0.20131   0.01267  Uiso   1.00
C4     C     0.42960   0.99851   0.19966   0.01267  Uiso   1.00
C5     C     0.22450   0.15096   0.37326   0.01267  Uiso   1.00
C6     C     0.23690   0.08589   0.29911   0.01267  Uiso   1.00
C7     C     0.06910   0.04520   0.26647   0.01267  Uiso   1.00
C8     C     0.41740   0.06363   0.26473   0.01267  Uiso   1.00
C9     C     0.22430   0.11905   0.60191   0.01267  Uiso   1.00
C10    C     0.23810   0.04426   0.66867   0.01267  Uiso   1.00
C11    C     0.41840   0.01970   0.70131   0.01267  Uiso   1.00
C12    C     0.07040   0.00149   0.69966   0.01267  Uiso   1.00
C13    C     0.27550   0.84904   0.87326   0.01267  Uiso   1.00
C14    C     0.26310   0.91411   0.79911   0.01267  Uiso   1.00
C15    C     0.43090   0.95480   0.76647   0.01267  Uiso   1.00
C16    C     0.08260   0.93637   0.76473   0.01267  Uiso   1.00
C17    C     0.72430   0.38095   0.39809   0.01267  Uiso   1.00
C18    C     0.73810   0.45574   0.33133   0.01267  Uiso   1.00
C19    C     0.91840   0.48030   0.29869   0.01267  Uiso   1.00
C20    C     0.57040   0.49851   0.30034   0.01267  Uiso   1.00
C21    C     0.77550   0.65096   0.12674   0.01267  Uiso   1.00
C22    C     0.76310   0.58589   0.20089   0.01267  Uiso   1.00
C23    C     0.93090   0.54520   0.23353   0.01267  Uiso   1.00
C24    C     0.58260   0.56363   0.23527   0.01267  Uiso   1.00
C25    C     0.77570   0.61905   0.89809   0.01267  Uiso   1.00
C26    C     0.76190   0.54426   0.83133   0.01267  Uiso   1.00
C27    C     0.58160   0.51970   0.79869   0.01267  Uiso   1.00
C28    C     0.92960   0.50149   0.80034   0.01267  Uiso   1.00
C29    C     0.72450   0.34904   0.62674   0.01267  Uiso   1.00
C30    C     0.73690   0.41411   0.70089   0.01267  Uiso   1.00
C31    C     0.56910   0.45480   0.73353   0.01267  Uiso   1.00
C32    C     0.91740   0.43637   0.73527   0.01267  Uiso   1.00
O1     O     0.71694   0.19130   0.49278   0.01267  Uiso   1.00
O2     O     0.44420   0.85886   0.07608   0.01267  Uiso   1.00
O3     O     0.05630   0.16834   0.40196   0.01267  Uiso   1.00
O4     O     0.11630   0.84507   0.07724   0.01267  Uiso   1.00
O5     O     0.38390   0.18297   0.40193   0.01267  Uiso   1.00
O6     O     0.78306   0.80870   0.99278   0.01267  Uiso   1.00
O7     O     0.05580   0.14114   0.57608   0.01267  Uiso   1.00
O8     O     0.44370   0.83166   0.90196   0.01267  Uiso   1.00
O9     O     0.38370   0.15493   0.57724   0.01267  Uiso   1.00
O10    O     0.11610   0.81703   0.90193   0.01267  Uiso   1.00
O11    O     0.28306   0.69130   0.00722   0.01267  Uiso   1.00
O12    O     0.55580   0.35886   0.42392   0.01267  Uiso   1.00
O13    O     0.94370   0.66834   0.09804   0.01267  Uiso   1.00
O14    O     0.88370   0.34507   0.42276   0.01267  Uiso   1.00
O15    O     0.61610   0.68297   0.09807   0.01267  Uiso   1.00
O16    O     0.21694   0.30870   0.50722   0.01267  Uiso   1.00
O17    O     0.94420   0.64114   0.92392   0.01267  Uiso   1.00
O18    O     0.55630   0.33166   0.59804   0.01267  Uiso   1.00
O19    O     0.61630   0.65493   0.92276   0.01267  Uiso   1.00
O20    O     0.88390   0.31703   0.59807   0.01267  Uiso   1.00
