data_IXOFUX01_clean
_audit_creation_date              2014-07-02
_audit_creation_method            'Materials Studio'
_symmetry_space_group_name_H-M    'P1'
_symmetry_Int_Tables_number       1
_symmetry_cell_setting            triclinic
loop_
_symmetry_equiv_pos_as_xyz
  x,y,z
_cell_length_a                    6.8270
_cell_length_b                    13.9650
_cell_length_c                    16.0740
_cell_angle_alpha                 90.0000
_cell_angle_beta                  90.0000
_cell_angle_gamma                 90.0000
loop_
_atom_site_label
_atom_site_type_symbol
_atom_site_fract_x
_atom_site_fract_y
_atom_site_fract_z
_atom_site_U_iso_or_equiv
_atom_site_adp_type
_atom_site_occupancy
V1     V     0.93487   0.23597   0.49865   0.01267  Uiso   1.00
V2     V     0.56513   0.76403   0.99865   0.01267  Uiso   1.00
V3     V     0.06513   0.73597   0.00135   0.01267  Uiso   1.00
V4     V     0.43487   0.26403   0.50135   0.01267  Uiso   1.00
H1     H     0.55120   0.98950   0.17270   0.01267  Uiso   1.00
H2     H     0.53260   0.09550   0.28230   0.01267  Uiso   1.00
H3     H     0.94450   0.06580   0.28470   0.01267  Uiso   1.00
H4     H     0.96620   0.95780   0.17760   0.01267  Uiso   1.00
H5     H     0.94880   0.01050   0.67270   0.01267  Uiso   1.00
H6     H     0.96740   0.90450   0.78230   0.01267  Uiso   1.00
H7     H     0.55550   0.93420   0.78470   0.01267  Uiso   1.00
H8     H     0.53380   0.04220   0.67760   0.01267  Uiso   1.00
H9     H     0.44880   0.48950   0.32730   0.01267  Uiso   1.00
H10    H     0.46740   0.59550   0.21770   0.01267  Uiso   1.00
H11    H     0.05550   0.56580   0.21530   0.01267  Uiso   1.00
H12    H     0.03380   0.45780   0.32240   0.01267  Uiso   1.00
H13    H     0.05120   0.51050   0.82730   0.01267  Uiso   1.00
H14    H     0.03260   0.40450   0.71770   0.01267  Uiso   1.00
H15    H     0.44450   0.43420   0.71530   0.01267  Uiso   1.00
H16    H     0.46620   0.54220   0.82240   0.01267  Uiso   1.00
C1     C     0.27560   0.88380   0.10150   0.01267  Uiso   1.00
C2     C     0.26280   0.95950   0.16610   0.01267  Uiso   1.00
C3     C     0.43030   0.00320   0.19660   0.01267  Uiso   1.00
C4     C     0.41910   0.06700   0.26200   0.01267  Uiso   1.00
C5     C     0.22490   0.15180   0.37180   0.01267  Uiso   1.00
C6     C     0.23640   0.08920   0.29840   0.01267  Uiso   1.00
C7     C     0.06670   0.04890   0.26380   0.01267  Uiso   1.00
C8     C     0.07970   0.98480   0.19940   0.01267  Uiso   1.00
C9     C     0.22440   0.11620   0.60150   0.01267  Uiso   1.00
C10    C     0.23720   0.04050   0.66610   0.01267  Uiso   1.00
C11    C     0.06970   0.99680   0.69660   0.01267  Uiso   1.00
C12    C     0.08090   0.93300   0.76200   0.01267  Uiso   1.00
C13    C     0.27510   0.84820   0.87180   0.01267  Uiso   1.00
C14    C     0.26360   0.91080   0.79840   0.01267  Uiso   1.00
C15    C     0.43330   0.95110   0.76380   0.01267  Uiso   1.00
C16    C     0.42030   0.01520   0.69940   0.01267  Uiso   1.00
C17    C     0.72440   0.38380   0.39850   0.01267  Uiso   1.00
C18    C     0.73720   0.45950   0.33390   0.01267  Uiso   1.00
C19    C     0.56970   0.50320   0.30340   0.01267  Uiso   1.00
C20    C     0.58090   0.56700   0.23800   0.01267  Uiso   1.00
C21    C     0.77510   0.65180   0.12820   0.01267  Uiso   1.00
C22    C     0.76360   0.58920   0.20160   0.01267  Uiso   1.00
C23    C     0.93330   0.54890   0.23620   0.01267  Uiso   1.00
C24    C     0.92030   0.48480   0.30060   0.01267  Uiso   1.00
C25    C     0.77560   0.61620   0.89850   0.01267  Uiso   1.00
C26    C     0.76280   0.54050   0.83390   0.01267  Uiso   1.00
C27    C     0.93030   0.49680   0.80340   0.01267  Uiso   1.00
C28    C     0.91910   0.43300   0.73800   0.01267  Uiso   1.00
C29    C     0.72490   0.34820   0.62820   0.01267  Uiso   1.00
C30    C     0.73640   0.41080   0.70160   0.01267  Uiso   1.00
C31    C     0.56670   0.45110   0.73620   0.01267  Uiso   1.00
C32    C     0.57970   0.51520   0.80060   0.01267  Uiso   1.00
O1     O     0.71770   0.19270   0.49100   0.01267  Uiso   1.00
O2     O     0.44640   0.86090   0.07400   0.01267  Uiso   1.00
O3     O     0.05540   0.16920   0.40090   0.01267  Uiso   1.00
O4     O     0.11310   0.84630   0.07490   0.01267  Uiso   1.00
O5     O     0.38340   0.18420   0.40180   0.01267  Uiso   1.00
O6     O     0.78230   0.80730   0.99100   0.01267  Uiso   1.00
O7     O     0.05360   0.13910   0.57400   0.01267  Uiso   1.00
O8     O     0.44460   0.83080   0.90090   0.01267  Uiso   1.00
O9     O     0.38690   0.15370   0.57490   0.01267  Uiso   1.00
O10    O     0.11660   0.81580   0.90180   0.01267  Uiso   1.00
O11    O     0.28230   0.69270   0.00900   0.01267  Uiso   1.00
O12    O     0.55360   0.36090   0.42600   0.01267  Uiso   1.00
O13    O     0.94460   0.66920   0.09910   0.01267  Uiso   1.00
O14    O     0.88690   0.34630   0.42510   0.01267  Uiso   1.00
O15    O     0.61660   0.68420   0.09820   0.01267  Uiso   1.00
O16    O     0.21770   0.30730   0.50900   0.01267  Uiso   1.00
O17    O     0.94640   0.63910   0.92600   0.01267  Uiso   1.00
O18    O     0.55540   0.33080   0.59910   0.01267  Uiso   1.00
O19    O     0.61310   0.65370   0.92510   0.01267  Uiso   1.00
O20    O     0.88340   0.31580   0.59820   0.01267  Uiso   1.00
