data_IXOFAD_clean
_audit_creation_date              2014-07-02
_audit_creation_method            'Materials Studio'
_symmetry_space_group_name_H-M    'P1'
_symmetry_Int_Tables_number       1
_symmetry_cell_setting            triclinic
loop_
_symmetry_equiv_pos_as_xyz
  x,y,z
_cell_length_a                    6.8023
_cell_length_b                    13.9120
_cell_length_c                    16.0520
_cell_angle_alpha                 90.0000
_cell_angle_beta                  90.0000
_cell_angle_gamma                 90.0000
loop_
_atom_site_label
_atom_site_type_symbol
_atom_site_fract_x
_atom_site_fract_y
_atom_site_fract_z
_atom_site_U_iso_or_equiv
_atom_site_adp_type
_atom_site_occupancy
V1     V     0.56450   0.23606   0.99921   0.01267  Uiso   1.00
V2     V     0.93550   0.76394   0.49921   0.01267  Uiso   1.00
V3     V     0.43550   0.73606   0.50079   0.01267  Uiso   1.00
V4     V     0.06450   0.26394   0.00079   0.01267  Uiso   1.00
H1     H     0.55400   0.05440   0.79290   0.01267  Uiso   1.00
H2     H     0.53190   0.94770   0.68420   0.01267  Uiso   1.00
H3     H     0.96710   0.08090   0.79470   0.01267  Uiso   1.00
H4     H     0.94860   0.97240   0.68470   0.01267  Uiso   1.00
H5     H     0.94600   0.94560   0.29290   0.01267  Uiso   1.00
H6     H     0.96810   0.05230   0.18420   0.01267  Uiso   1.00
H7     H     0.53290   0.91910   0.29470   0.01267  Uiso   1.00
H8     H     0.55140   0.02760   0.18470   0.01267  Uiso   1.00
H9     H     0.44600   0.55440   0.70710   0.01267  Uiso   1.00
H10    H     0.46810   0.44770   0.81580   0.01267  Uiso   1.00
H11    H     0.03290   0.58090   0.70530   0.01267  Uiso   1.00
H12    H     0.05140   0.47240   0.81530   0.01267  Uiso   1.00
H13    H     0.05400   0.44560   0.20710   0.01267  Uiso   1.00
H14    H     0.03190   0.55230   0.31580   0.01267  Uiso   1.00
H15    H     0.46710   0.41910   0.20530   0.01267  Uiso   1.00
H16    H     0.44860   0.52760   0.31530   0.01267  Uiso   1.00
C1     C     0.27460   0.14320   0.87863   0.01267  Uiso   1.00
C2     C     0.26230   0.07690   0.80643   0.01267  Uiso   1.00
C3     C     0.43130   0.03740   0.77200   0.01267  Uiso   1.00
C4     C     0.41800   0.97350   0.70710   0.01267  Uiso   1.00
C5     C     0.08100   0.05350   0.77330   0.01267  Uiso   1.00
C6     C     0.07020   0.98820   0.70740   0.01267  Uiso   1.00
C7     C     0.23800   0.94730   0.67578   0.01267  Uiso   1.00
C8     C     0.22410   0.87530   0.60710   0.01267  Uiso   1.00
C9     C     0.22540   0.85680   0.37863   0.01267  Uiso   1.00
C10    C     0.23770   0.92310   0.30643   0.01267  Uiso   1.00
C11    C     0.06870   0.96260   0.27200   0.01267  Uiso   1.00
C12    C     0.08200   0.02650   0.20710   0.01267  Uiso   1.00
C13    C     0.41900   0.94650   0.27330   0.01267  Uiso   1.00
C14    C     0.42980   0.01180   0.20740   0.01267  Uiso   1.00
C15    C     0.26200   0.05270   0.17578   0.01267  Uiso   1.00
C16    C     0.27590   0.12470   0.10710   0.01267  Uiso   1.00
C17    C     0.72540   0.64320   0.62137   0.01267  Uiso   1.00
C18    C     0.73770   0.57690   0.69357   0.01267  Uiso   1.00
C19    C     0.56870   0.53740   0.72800   0.01267  Uiso   1.00
C20    C     0.58200   0.47350   0.79290   0.01267  Uiso   1.00
C21    C     0.91900   0.55350   0.72670   0.01267  Uiso   1.00
C22    C     0.92980   0.48820   0.79260   0.01267  Uiso   1.00
C23    C     0.76200   0.44730   0.82422   0.01267  Uiso   1.00
C24    C     0.77590   0.37530   0.89290   0.01267  Uiso   1.00
C25    C     0.77460   0.35680   0.12137   0.01267  Uiso   1.00
C26    C     0.76230   0.42310   0.19357   0.01267  Uiso   1.00
C27    C     0.93130   0.46260   0.22800   0.01267  Uiso   1.00
C28    C     0.91800   0.52650   0.29290   0.01267  Uiso   1.00
C29    C     0.58100   0.44650   0.22670   0.01267  Uiso   1.00
C30    C     0.57020   0.51180   0.29260   0.01267  Uiso   1.00
C31    C     0.73800   0.55270   0.32422   0.01267  Uiso   1.00
C32    C     0.72410   0.62470   0.39290   0.01267  Uiso   1.00
O1     O     0.78224   0.19061   0.99610   0.01267  Uiso   1.00
O2     O     0.44250   0.16221   0.90641   0.01267  Uiso   1.00
O3     O     0.05630   0.85455   0.58015   0.01267  Uiso   1.00
O4     O     0.11670   0.17671   0.90649   0.01267  Uiso   1.00
O5     O     0.38570   0.84035   0.58196   0.01267  Uiso   1.00
O6     O     0.71776   0.80939   0.49610   0.01267  Uiso   1.00
O7     O     0.05750   0.83779   0.40641   0.01267  Uiso   1.00
O8     O     0.44370   0.14545   0.08015   0.01267  Uiso   1.00
O9     O     0.38330   0.82329   0.40649   0.01267  Uiso   1.00
O10    O     0.11430   0.15965   0.08196   0.01267  Uiso   1.00
O11    O     0.21776   0.69061   0.50390   0.01267  Uiso   1.00
O12    O     0.55750   0.66221   0.59359   0.01267  Uiso   1.00
O13    O     0.94370   0.35455   0.91985   0.01267  Uiso   1.00
O14    O     0.88330   0.67671   0.59351   0.01267  Uiso   1.00
O15    O     0.61430   0.34035   0.91804   0.01267  Uiso   1.00
O16    O     0.28224   0.30939   0.00390   0.01267  Uiso   1.00
O17    O     0.94250   0.33779   0.09359   0.01267  Uiso   1.00
O18    O     0.55630   0.64545   0.41985   0.01267  Uiso   1.00
O19    O     0.61670   0.32329   0.09351   0.01267  Uiso   1.00
O20    O     0.88570   0.65965   0.41804   0.01267  Uiso   1.00
