data_IXOFIL_clean
_audit_creation_date              2014-07-02
_audit_creation_method            'Materials Studio'
_symmetry_space_group_name_H-M    'P1'
_symmetry_Int_Tables_number       1
_symmetry_cell_setting            triclinic
loop_
_symmetry_equiv_pos_as_xyz
  x,y,z
_cell_length_a                    6.8018
_cell_length_b                    13.5344
_cell_length_c                    16.4156
_cell_angle_alpha                 90.0000
_cell_angle_beta                  90.0000
_cell_angle_gamma                 90.0000
loop_
_atom_site_label
_atom_site_type_symbol
_atom_site_fract_x
_atom_site_fract_y
_atom_site_fract_z
_atom_site_U_iso_or_equiv
_atom_site_adp_type
_atom_site_occupancy
V1     V     0.93711   0.76440   0.00072   0.01267  Uiso   1.00
V2     V     0.56289   0.23560   0.50072   0.01267  Uiso   1.00
V3     V     0.06289   0.26440   0.49928   0.01267  Uiso   1.00
V4     V     0.43711   0.73560   0.99928   0.01267  Uiso   1.00
H1     H     0.53380   0.94460   0.81140   0.01267  Uiso   1.00
H2     H     0.55470   0.04830   0.70370   0.01267  Uiso   1.00
H3     H     0.96910   0.08490   0.70860   0.01267  Uiso   1.00
H4     H     0.95000   0.97970   0.81760   0.01267  Uiso   1.00
H5     H     0.96620   0.05540   0.31140   0.01267  Uiso   1.00
H6     H     0.94530   0.95170   0.20370   0.01267  Uiso   1.00
H7     H     0.53090   0.91510   0.20860   0.01267  Uiso   1.00
H8     H     0.55000   0.02030   0.31760   0.01267  Uiso   1.00
H9     H     0.46620   0.44460   0.68860   0.01267  Uiso   1.00
H10    H     0.44530   0.54830   0.79630   0.01267  Uiso   1.00
H11    H     0.03090   0.58490   0.79140   0.01267  Uiso   1.00
H12    H     0.05000   0.47970   0.68240   0.01267  Uiso   1.00
H13    H     0.03380   0.55540   0.18860   0.01267  Uiso   1.00
H14    H     0.05470   0.45170   0.29630   0.01267  Uiso   1.00
H15    H     0.46910   0.41510   0.29140   0.01267  Uiso   1.00
H16    H     0.45000   0.52030   0.18240   0.01267  Uiso   1.00
C1     C     0.22590   0.87890   0.89403   0.01267  Uiso   1.00
C2     C     0.23860   0.94910   0.82584   0.01267  Uiso   1.00
C3     C     0.41960   0.97240   0.79030   0.01267  Uiso   1.00
C4     C     0.43230   0.03410   0.72610   0.01267  Uiso   1.00
C5     C     0.26220   0.07720   0.69264   0.01267  Uiso   1.00
C6     C     0.08310   0.05610   0.72890   0.01267  Uiso   1.00
C7     C     0.07170   0.99300   0.79424   0.01267  Uiso   1.00
C8     C     0.27450   0.14160   0.62047   0.01267  Uiso   1.00
C9     C     0.27410   0.12110   0.39403   0.01267  Uiso   1.00
C10    C     0.26140   0.05090   0.32584   0.01267  Uiso   1.00
C11    C     0.08040   0.02760   0.29030   0.01267  Uiso   1.00
C12    C     0.06770   0.96590   0.22610   0.01267  Uiso   1.00
C13    C     0.23780   0.92280   0.19264   0.01267  Uiso   1.00
C14    C     0.41690   0.94390   0.22890   0.01267  Uiso   1.00
C15    C     0.42830   0.00700   0.29424   0.01267  Uiso   1.00
C16    C     0.22550   0.85840   0.12047   0.01267  Uiso   1.00
C17    C     0.77410   0.37890   0.60597   0.01267  Uiso   1.00
C18    C     0.76140   0.44910   0.67416   0.01267  Uiso   1.00
C19    C     0.58040   0.47240   0.70970   0.01267  Uiso   1.00
C20    C     0.56770   0.53410   0.77390   0.01267  Uiso   1.00
C21    C     0.73780   0.57720   0.80736   0.01267  Uiso   1.00
C22    C     0.91690   0.55610   0.77110   0.01267  Uiso   1.00
C23    C     0.92830   0.49300   0.70576   0.01267  Uiso   1.00
C24    C     0.72550   0.64160   0.87953   0.01267  Uiso   1.00
C25    C     0.72590   0.62110   0.10597   0.01267  Uiso   1.00
C26    C     0.73860   0.55090   0.17416   0.01267  Uiso   1.00
C27    C     0.91960   0.52760   0.20970   0.01267  Uiso   1.00
C28    C     0.93230   0.46590   0.27390   0.01267  Uiso   1.00
C29    C     0.76220   0.42280   0.30736   0.01267  Uiso   1.00
C30    C     0.58310   0.44390   0.27110   0.01267  Uiso   1.00
C31    C     0.57170   0.50700   0.20576   0.01267  Uiso   1.00
C32    C     0.77450   0.35840   0.37953   0.01267  Uiso   1.00
O1     O     0.71889   0.81132   0.00422   0.01267  Uiso   1.00
O2     O     0.05700   0.85743   0.92133   0.01267  Uiso   1.00
O3     O     0.44150   0.16017   0.59164   0.01267  Uiso   1.00
O4     O     0.38600   0.84327   0.92055   0.01267  Uiso   1.00
O5     O     0.11410   0.17534   0.59234   0.01267  Uiso   1.00
O6     O     0.78111   0.18868   0.50422   0.01267  Uiso   1.00
O7     O     0.44300   0.14257   0.42133   0.01267  Uiso   1.00
O8     O     0.05850   0.83983   0.09164   0.01267  Uiso   1.00
O9     O     0.11400   0.15673   0.42055   0.01267  Uiso   1.00
O10    O     0.38590   0.82466   0.09234   0.01267  Uiso   1.00
O11    O     0.28111   0.31132   0.49578   0.01267  Uiso   1.00
O12    O     0.94300   0.35743   0.57867   0.01267  Uiso   1.00
O13    O     0.55850   0.66017   0.90836   0.01267  Uiso   1.00
O14    O     0.61400   0.34327   0.57945   0.01267  Uiso   1.00
O15    O     0.88590   0.67534   0.90766   0.01267  Uiso   1.00
O16    O     0.21889   0.68868   0.99578   0.01267  Uiso   1.00
O17    O     0.55700   0.64257   0.07867   0.01267  Uiso   1.00
O18    O     0.94150   0.33983   0.40836   0.01267  Uiso   1.00
O19    O     0.88600   0.65673   0.07945   0.01267  Uiso   1.00
O20    O     0.61410   0.32466   0.40766   0.01267  Uiso   1.00
