data_IXUHUE_clean
_audit_creation_date              2014-07-02
_audit_creation_method            'Materials Studio'
_symmetry_space_group_name_H-M    'P1'
_symmetry_Int_Tables_number       1
_symmetry_cell_setting            triclinic
loop_
_symmetry_equiv_pos_as_xyz
  x,y,z
_cell_length_a                    10.8981
_cell_length_b                    14.4092
_cell_length_c                    23.3902
_cell_angle_alpha                 80.6932
_cell_angle_beta                  76.5284
_cell_angle_gamma                 67.7799
loop_
_atom_site_label
_atom_site_type_symbol
_atom_site_fract_x
_atom_site_fract_y
_atom_site_fract_z
_atom_site_U_iso_or_equiv
_atom_site_adp_type
_atom_site_occupancy
Cu1    Cu    0.64459   0.80756   0.10250   0.01267  Uiso   1.00
Cu2    Cu    0.34480   0.93862   0.13886   0.01267  Uiso   1.00
Cu3    Cu    0.55465   0.69244   0.39750   0.01267  Uiso   1.00
Cu4    Cu    0.42228   0.56138   0.36114   0.01267  Uiso   1.00
Cu5    Cu    0.35541   0.19244   0.89750   0.01267  Uiso   1.00
Cu6    Cu    0.65520   0.06138   0.86114   0.01267  Uiso   1.00
Cu7    Cu    0.44535   0.30756   0.60250   0.01267  Uiso   1.00
Cu8    Cu    0.57772   0.43862   0.63886   0.01267  Uiso   1.00
Mo1    Mo    0.14227   0.53698   0.97814   0.01267  Uiso   1.00
Mo2    Mo    0.10265   0.38615   0.13485   0.01267  Uiso   1.00
Mo3    Mo    0.98235   0.62763   0.10409   0.01267  Uiso   1.00
Mo4    Mo    0.89059   0.74801   0.96441   0.01267  Uiso   1.00
Mo5    Mo    0.65739   0.96302   0.52186   0.01267  Uiso   1.00
Mo6    Mo    0.62365   0.11385   0.36515   0.01267  Uiso   1.00
Mo7    Mo    0.71407   0.87237   0.39591   0.01267  Uiso   1.00
Mo8    Mo    0.60301   0.75199   0.53559   0.01267  Uiso   1.00
Mo9    Mo    0.85773   0.46302   0.02186   0.01267  Uiso   1.00
Mo10   Mo    0.89735   0.61385   0.86515   0.01267  Uiso   1.00
Mo11   Mo    0.01765   0.37237   0.89591   0.01267  Uiso   1.00
Mo12   Mo    0.10941   0.25199   0.03559   0.01267  Uiso   1.00
Mo13   Mo    0.34261   0.03698   0.47814   0.01267  Uiso   1.00
Mo14   Mo    0.37635   0.88615   0.63485   0.01267  Uiso   1.00
Mo15   Mo    0.28593   0.12763   0.60409   0.01267  Uiso   1.00
Mo16   Mo    0.39699   0.24801   0.46441   0.01267  Uiso   1.00
H1     H     0.59340   0.73620   0.00500   0.01267  Uiso   1.00
H2     H     0.47060   0.64370   0.98710   0.01267  Uiso   1.00
H3     H     0.34410   0.58230   0.06350   0.01267  Uiso   1.00
H4     H     0.33600   0.62250   0.15550   0.01267  Uiso   1.00
H5     H     0.67610   0.53180   0.16400   0.01267  Uiso   1.00
H6     H     0.77020   0.36780   0.16580   0.01267  Uiso   1.00
H7     H     0.72010   0.26560   0.24820   0.01267  Uiso   1.00
H8     H     0.56700   0.34800   0.32600   0.01267  Uiso   1.00
H9     H     0.71530   0.87040   0.19900   0.01267  Uiso   1.00
H10    H     0.67000   0.01800   0.24000   0.01267  Uiso   1.00
H11    H     0.55800   0.18200   0.19400   0.01267  Uiso   1.00
H12    H     0.52900   0.16800   0.10200   0.01267  Uiso   1.00
H13    H     0.78400   0.06400   0.04800   0.01267  Uiso   1.00
H14    H     0.95400   0.11900   0.01300   0.01267  Uiso   1.00
H15    H     0.01500   0.15100   0.90700   0.01267  Uiso   1.00
H16    H     0.89410   0.12180   0.84800   0.01267  Uiso   1.00
H17    H     0.33460   0.76380   0.49500   0.01267  Uiso   1.00
H18    H     0.10140   0.85630   0.51290   0.01267  Uiso   1.00
H19    H     0.98990   0.91770   0.43650   0.01267  Uiso   1.00
H20    H     0.11400   0.87750   0.34450   0.01267  Uiso   1.00
H21    H     0.37190   0.96820   0.33600   0.01267  Uiso   1.00
H22    H     0.30380   0.13220   0.33420   0.01267  Uiso   1.00
H23    H     0.23390   0.23440   0.25180   0.01267  Uiso   1.00
H24    H     0.24100   0.15200   0.17400   0.01267  Uiso   1.00
H25    H     0.78470   0.62960   0.30100   0.01267  Uiso   1.00
H26    H     0.92800   0.48200   0.26000   0.01267  Uiso   1.00
H27    H     0.93400   0.31800   0.30600   0.01267  Uiso   1.00
H28    H     0.79900   0.33200   0.39800   0.01267  Uiso   1.00
H29    H     0.89600   0.43600   0.45200   0.01267  Uiso   1.00
H30    H     0.08600   0.38100   0.48700   0.01267  Uiso   1.00
H31    H     0.07300   0.34900   0.59300   0.01267  Uiso   1.00
H32    H     0.86390   0.37820   0.65200   0.01267  Uiso   1.00
H33    H     0.40660   0.26380   0.99500   0.01267  Uiso   1.00
H34    H     0.52940   0.35630   0.01290   0.01267  Uiso   1.00
H35    H     0.65590   0.41770   0.93650   0.01267  Uiso   1.00
H36    H     0.66400   0.37750   0.84450   0.01267  Uiso   1.00
H37    H     0.32390   0.46820   0.83600   0.01267  Uiso   1.00
H38    H     0.22980   0.63220   0.83420   0.01267  Uiso   1.00
H39    H     0.27990   0.73440   0.75180   0.01267  Uiso   1.00
H40    H     0.43300   0.65200   0.67400   0.01267  Uiso   1.00
H41    H     0.28470   0.12960   0.80100   0.01267  Uiso   1.00
H42    H     0.33000   0.98200   0.76000   0.01267  Uiso   1.00
H43    H     0.44200   0.81800   0.80600   0.01267  Uiso   1.00
H44    H     0.47100   0.83200   0.89800   0.01267  Uiso   1.00
H45    H     0.21600   0.93600   0.95200   0.01267  Uiso   1.00
H46    H     0.04600   0.88100   0.98700   0.01267  Uiso   1.00
H47    H     0.98500   0.84900   0.09300   0.01267  Uiso   1.00
H48    H     0.10590   0.87820   0.15200   0.01267  Uiso   1.00
H49    H     0.66540   0.23620   0.50500   0.01267  Uiso   1.00
H50    H     0.89860   0.14370   0.48710   0.01267  Uiso   1.00
H51    H     0.01010   0.08230   0.56350   0.01267  Uiso   1.00
H52    H     0.88600   0.12250   0.65550   0.01267  Uiso   1.00
H53    H     0.62810   0.03180   0.66400   0.01267  Uiso   1.00
H54    H     0.69620   0.86780   0.66580   0.01267  Uiso   1.00
H55    H     0.76610   0.76560   0.74820   0.01267  Uiso   1.00
H56    H     0.75900   0.84800   0.82600   0.01267  Uiso   1.00
H57    H     0.21530   0.37040   0.69900   0.01267  Uiso   1.00
H58    H     0.07200   0.51800   0.74000   0.01267  Uiso   1.00
H59    H     0.06600   0.68200   0.69400   0.01267  Uiso   1.00
H60    H     0.20100   0.66800   0.60200   0.01267  Uiso   1.00
H61    H     0.10400   0.56400   0.54800   0.01267  Uiso   1.00
H62    H     0.91400   0.61900   0.51300   0.01267  Uiso   1.00
H63    H     0.92700   0.65100   0.40700   0.01267  Uiso   1.00
H64    H     0.13610   0.62180   0.34800   0.01267  Uiso   1.00
C1     C     0.53869   0.71224   0.03498   0.01267  Uiso   1.00
C2     C     0.46740   0.65819   0.02341   0.01267  Uiso   1.00
C3     C     0.39225   0.61885   0.07025   0.01267  Uiso   1.00
C4     C     0.39237   0.63565   0.12721   0.01267  Uiso   1.00
C5     C     0.46420   0.69224   0.13496   0.01267  Uiso   1.00
C6     C     0.45407   0.71975   0.19471   0.01267  Uiso   1.00
C7     C     0.47871   0.65019   0.24419   0.01267  Uiso   1.00
C8     C     0.55317   0.54068   0.24118   0.01267  Uiso   1.00
C9     C     0.64944   0.49777   0.19295   0.01267  Uiso   1.00
C10    C     0.71365   0.39437   0.19513   0.01267  Uiso   1.00
C11    C     0.68096   0.33633   0.24535   0.01267  Uiso   1.00
C12    C     0.58872   0.38465   0.29251   0.01267  Uiso   1.00
C13    C     0.67359   0.93546   0.18176   0.01267  Uiso   1.00
C14    C     0.65401   0.02318   0.20500   0.01267  Uiso   1.00
C15    C     0.59295   0.11464   0.17546   0.01267  Uiso   1.00
C16    C     0.55572   0.11476   0.12260   0.01267  Uiso   1.00
C17    C     0.58030   0.02356   0.10224   0.01267  Uiso   1.00
C18    C     0.54169   0.01463   0.04679   0.01267  Uiso   1.00
C19    C     0.60606   0.03388   0.98920   0.01267  Uiso   1.00
C20    C     0.72411   0.06666   0.97132   0.01267  Uiso   1.00
C21    C     0.79710   0.07850   0.00910   0.01267  Uiso   1.00
C22    C     0.90580   0.10930   0.98690   0.01267  Uiso   1.00
C23    C     0.94296   0.12678   0.92710   0.01267  Uiso   1.00
C24    C     0.86735   0.11290   0.89080   0.01267  Uiso   1.00
C25    C     0.28591   0.78776   0.46502   0.01267  Uiso   1.00
C26    C     0.14900   0.84181   0.47659   0.01267  Uiso   1.00
C27    C     0.08135   0.88115   0.42975   0.01267  Uiso   1.00
C28    C     0.15523   0.86435   0.37279   0.01267  Uiso   1.00
C29    C     0.29140   0.80776   0.36504   0.01267  Uiso   1.00
C30    C     0.36853   0.78025   0.30529   0.01267  Uiso   1.00
C31    C     0.37309   0.84981   0.25581   0.01267  Uiso   1.00
C32    C     0.33503   0.95932   0.25882   0.01267  Uiso   1.00
C33    C     0.34016   0.00223   0.30705   0.01267  Uiso   1.00
C34    C     0.30315   0.10563   0.30487   0.01267  Uiso   1.00
C35    C     0.26264   0.16367   0.25465   0.01267  Uiso   1.00
C36    C     0.26588   0.11535   0.20749   0.01267  Uiso   1.00
C37    C     0.79081   0.56454   0.31824   0.01267  Uiso   1.00
C38    C     0.88219   0.47682   0.29500   0.01267  Uiso   1.00
C39    C     0.88305   0.38536   0.32454   0.01267  Uiso   1.00
C40    C     0.79308   0.38524   0.37740   0.01267  Uiso   1.00
C41    C     0.70610   0.47644   0.39776   0.01267  Uiso   1.00
C42    C     0.60311   0.48537   0.45321   0.01267  Uiso   1.00
C43    C     0.62914   0.46612   0.51080   0.01267  Uiso   1.00
C44    C     0.76209   0.43334   0.52868   0.01267  Uiso   1.00
C45    C     0.88470   0.42150   0.49090   0.01267  Uiso   1.00
C46    C     0.00200   0.39070   0.51310   0.01267  Uiso   1.00
C47    C     0.99684   0.37322   0.57290   0.01267  Uiso   1.00
C48    C     0.87105   0.38710   0.60920   0.01267  Uiso   1.00
C49    C     0.46131   0.28776   0.96502   0.01267  Uiso   1.00
C50    C     0.53260   0.34181   0.97659   0.01267  Uiso   1.00
C51    C     0.60775   0.38115   0.92975   0.01267  Uiso   1.00
C52    C     0.60763   0.36435   0.87279   0.01267  Uiso   1.00
C53    C     0.53580   0.30776   0.86504   0.01267  Uiso   1.00
C54    C     0.54593   0.28025   0.80529   0.01267  Uiso   1.00
C55    C     0.52129   0.34981   0.75581   0.01267  Uiso   1.00
C56    C     0.44683   0.45932   0.75882   0.01267  Uiso   1.00
C57    C     0.35056   0.50223   0.80705   0.01267  Uiso   1.00
C58    C     0.28635   0.60563   0.80487   0.01267  Uiso   1.00
C59    C     0.31904   0.66367   0.75465   0.01267  Uiso   1.00
C60    C     0.41128   0.61535   0.70749   0.01267  Uiso   1.00
C61    C     0.32641   0.06454   0.81824   0.01267  Uiso   1.00
C62    C     0.34599   0.97682   0.79500   0.01267  Uiso   1.00
C63    C     0.40705   0.88536   0.82454   0.01267  Uiso   1.00
C64    C     0.44428   0.88524   0.87740   0.01267  Uiso   1.00
C65    C     0.41970   0.97644   0.89776   0.01267  Uiso   1.00
C66    C     0.45831   0.98537   0.95321   0.01267  Uiso   1.00
C67    C     0.39394   0.96612   0.01080   0.01267  Uiso   1.00
C68    C     0.27589   0.93334   0.02868   0.01267  Uiso   1.00
C69    C     0.20290   0.92150   0.99090   0.01267  Uiso   1.00
C70    C     0.09420   0.89070   0.01310   0.01267  Uiso   1.00
C71    C     0.05704   0.87322   0.07290   0.01267  Uiso   1.00
C72    C     0.13265   0.88710   0.10920   0.01267  Uiso   1.00
C73    C     0.71409   0.21224   0.53498   0.01267  Uiso   1.00
C74    C     0.85100   0.15819   0.52341   0.01267  Uiso   1.00
C75    C     0.91865   0.11885   0.57025   0.01267  Uiso   1.00
C76    C     0.84477   0.13565   0.62721   0.01267  Uiso   1.00
C77    C     0.70860   0.19224   0.63496   0.01267  Uiso   1.00
C78    C     0.63147   0.21975   0.69471   0.01267  Uiso   1.00
C79    C     0.62691   0.15019   0.74419   0.01267  Uiso   1.00
C80    C     0.66497   0.04068   0.74118   0.01267  Uiso   1.00
C81    C     0.65984   0.99777   0.69295   0.01267  Uiso   1.00
C82    C     0.69685   0.89437   0.69513   0.01267  Uiso   1.00
C83    C     0.73736   0.83633   0.74535   0.01267  Uiso   1.00
C84    C     0.73412   0.88465   0.79251   0.01267  Uiso   1.00
C85    C     0.20919   0.43546   0.68176   0.01267  Uiso   1.00
C86    C     0.11781   0.52318   0.70500   0.01267  Uiso   1.00
C87    C     0.11695   0.61464   0.67546   0.01267  Uiso   1.00
C88    C     0.20692   0.61476   0.62260   0.01267  Uiso   1.00
C89    C     0.29390   0.52356   0.60224   0.01267  Uiso   1.00
C90    C     0.39689   0.51463   0.54679   0.01267  Uiso   1.00
C91    C     0.37086   0.53388   0.48920   0.01267  Uiso   1.00
C92    C     0.23791   0.56666   0.47132   0.01267  Uiso   1.00
C93    C     0.11530   0.57850   0.50910   0.01267  Uiso   1.00
C94    C     0.99800   0.60930   0.48690   0.01267  Uiso   1.00
C95    C     0.00316   0.62678   0.42710   0.01267  Uiso   1.00
C96    C     0.12895   0.61290   0.39080   0.01267  Uiso   1.00
N1     N     0.53780   0.73089   0.08971   0.01267  Uiso   1.00
N2     N     0.52530   0.48490   0.29150   0.01267  Uiso   1.00
N3     N     0.40939   0.81854   0.20128   0.01267  Uiso   1.00
N4     N     0.63513   0.93443   0.13151   0.01267  Uiso   1.00
N5     N     0.43900   0.98197   0.05643   0.01267  Uiso   1.00
N6     N     0.76164   0.08383   0.91209   0.01267  Uiso   1.00
N7     N     0.35840   0.76911   0.41029   0.01267  Uiso   1.00
N8     N     0.30170   0.01510   0.20850   0.01267  Uiso   1.00
N9     N     0.42921   0.68146   0.29872   0.01267  Uiso   1.00
N10    N     0.70107   0.56557   0.36849   0.01267  Uiso   1.00
N11    N     0.47740   0.51803   0.44357   0.01267  Uiso   1.00
N12    N     0.75756   0.41617   0.58791   0.01267  Uiso   1.00
N13    N     0.46220   0.26911   0.91029   0.01267  Uiso   1.00
N14    N     0.47470   0.51510   0.70850   0.01267  Uiso   1.00
N15    N     0.59061   0.18146   0.79872   0.01267  Uiso   1.00
N16    N     0.36487   0.06557   0.86849   0.01267  Uiso   1.00
N17    N     0.56100   0.01803   0.94357   0.01267  Uiso   1.00
N18    N     0.23836   0.91617   0.08791   0.01267  Uiso   1.00
N19    N     0.64160   0.23089   0.58971   0.01267  Uiso   1.00
N20    N     0.69830   0.98490   0.79150   0.01267  Uiso   1.00
N21    N     0.57079   0.31854   0.70128   0.01267  Uiso   1.00
N22    N     0.29893   0.43443   0.63151   0.01267  Uiso   1.00
N23    N     0.52260   0.48197   0.55643   0.01267  Uiso   1.00
N24    N     0.24244   0.58383   0.41209   0.01267  Uiso   1.00
O1     O     0.13396   0.50433   0.05915   0.01267  Uiso   1.00
O2     O     0.82466   0.71539   0.12629   0.01267  Uiso   1.00
O3     O     0.02068   0.67982   0.01922   0.01267  Uiso   1.00
O4     O     0.75901   0.81398   0.01660   0.01267  Uiso   1.00
O5     O     0.78857   0.71591   0.92115   0.01267  Uiso   1.00
O6     O     0.95996   0.51480   0.15208   0.01267  Uiso   1.00
O7     O     0.02944   0.61892   0.92500   0.01267  Uiso   1.00
O8     O     0.69744   0.99567   0.44085   0.01267  Uiso   1.00
O9     O     0.66634   0.78461   0.37371   0.01267  Uiso   1.00
O10    O     0.71972   0.82018   0.48078   0.01267  Uiso   1.00
O11    O     0.58959   0.68602   0.48340   0.01267  Uiso   1.00
O12    O     0.42563   0.78409   0.57885   0.01267  Uiso   1.00
O13    O     0.62684   0.98520   0.34792   0.01267  Uiso   1.00
O14    O     0.57336   0.88108   0.57500   0.01267  Uiso   1.00
O15    O     0.86604   0.49567   0.94085   0.01267  Uiso   1.00
O16    O     0.17534   0.28461   0.87371   0.01267  Uiso   1.00
O17    O     0.97932   0.32018   0.98078   0.01267  Uiso   1.00
O18    O     0.24099   0.18602   0.98340   0.01267  Uiso   1.00
O19    O     0.21143   0.28409   0.07885   0.01267  Uiso   1.00
O20    O     0.04004   0.48520   0.84792   0.01267  Uiso   1.00
O21    O     0.97056   0.38108   0.07500   0.01267  Uiso   1.00
O22    O     0.30256   0.00433   0.55915   0.01267  Uiso   1.00
O23    O     0.33366   0.21539   0.62629   0.01267  Uiso   1.00
O24    O     0.28028   0.17982   0.51922   0.01267  Uiso   1.00
O25    O     0.41041   0.31398   0.51660   0.01267  Uiso   1.00
O26    O     0.57437   0.21591   0.42115   0.01267  Uiso   1.00
O27    O     0.37316   0.01480   0.65208   0.01267  Uiso   1.00
O28    O     0.42664   0.11892   0.42500   0.01267  Uiso   1.00
