data_image0
_cell_length_a       18.0784
_cell_length_b       18.7538
_cell_length_c       25.8011
_cell_angle_alpha    90
_cell_angle_beta     108.992
_cell_angle_gamma    90

_symmetry_space_group_name_H-M    "P 1"
_symmetry_int_tables_number       1

loop_
  _symmetry_equiv_pos_as_xyz
  'x, y, z'

loop_
  _atom_site_label
  _atom_site_occupancy
  _atom_site_fract_x
  _atom_site_fract_y
  _atom_site_fract_z
  _atom_site_thermal_displace_type
  _atom_site_B_iso_or_equiv
  _atom_site_type_symbol
  C1       1.0000 0.55813  0.87744  0.55292  Biso   1.000  C
  C2       1.0000 0.60722  0.92909  0.53388  Biso   1.000  C
  C3       1.0000 0.59760  0.99951  0.54308  Biso   1.000  C
  H1       1.0000 0.56710  0.01230  0.56450  Biso   1.000  H
  C4       1.0000 0.63230  0.05258  0.52129  Biso   1.000  C
  H2       1.0000 0.62230  0.10030  0.52640  Biso   1.000  H
  C5       1.0000 0.68131  0.03492  0.49209  Biso   1.000  C
  C6       1.0000 0.69644  0.96235  0.48381  Biso   1.000  C
  C7       1.0000 0.65794  0.90787  0.50397  Biso   1.000  C
  C8       1.0000 0.67190  0.83610  0.49305  Biso   1.000  C
  H3       1.0000 0.64800  0.79980  0.50640  Biso   1.000  H
  C9       1.0000 0.71940  0.81890  0.46351  Biso   1.000  C
  H4       1.0000 0.72700  0.77130  0.45660  Biso   1.000  H
  C10      1.0000 0.75700  0.87250  0.44335  Biso   1.000  C
  H5       1.0000 0.78910  0.86020  0.42300  Biso   1.000  H
  C11      1.0000 0.74670  0.94210  0.45359  Biso   1.000  C
  H6       1.0000 0.77270  0.97710  0.44070  Biso   1.000  H
  C12      1.0000 0.55881  0.61880  0.55772  Biso   1.000  C
  C13      1.0000 0.60550  0.56396  0.53942  Biso   1.000  C
  C14      1.0000 0.67570  0.53390  0.57426  Biso   1.000  C
  C15      1.0000 0.71120  0.55530  0.62960  Biso   1.000  C
  H7       1.0000 0.68730  0.59020  0.64430  Biso   1.000  H
  C16      1.0000 0.77870  0.52590  0.66110  Biso   1.000  C
  H8       1.0000 0.80070  0.54080  0.69730  Biso   1.000  H
  C17      1.0000 0.81640  0.47320  0.64044  Biso   1.000  C
  H9       1.0000 0.86280  0.45320  0.66300  Biso   1.000  H
  C18      1.0000 0.78560  0.45140  0.58785  Biso   1.000  C
  H10      1.0000 0.81110  0.41650  0.57450  Biso   1.000  H
  C19      1.0000 0.71480  0.48109  0.55261  Biso   1.000  C
  C20      1.0000 0.67950  0.45862  0.49715  Biso   1.000  C
  C21      1.0000 0.61160  0.48880  0.46592  Biso   1.000  C
  H11      1.0000 0.58850  0.47310  0.43010  Biso   1.000  H
  C22      1.0000 0.57560  0.54220  0.48600  Biso   1.000  C
  H12      1.0000 0.53050  0.56370  0.46290  Biso   1.000  H
  C23      1.0000 0.30723  0.74912  0.45136  Biso   1.000  C
  C24      1.0000 0.25727  0.74977  0.39175  Biso   1.000  C
  C25      1.0000 0.17845  0.75040  0.38155  Biso   1.000  C
  H13      1.0000 0.15930  0.75130  0.41090  Biso   1.000  H
  C26      1.0000 0.12530  0.74980  0.32802  Biso   1.000  C
  H14      1.0000 0.07180  0.75080  0.32240  Biso   1.000  H
  C27      1.0000 0.15177  0.74760  0.28391  Biso   1.000  C
  C28      1.0000 0.23341  0.74890  0.29258  Biso   1.000  C
  C29      1.0000 0.28755  0.75030  0.34646  Biso   1.000  C
  C30      1.0000 0.36860  0.75170  0.35160  Biso   1.000  C
  H15      1.0000 0.40580  0.75220  0.38640  Biso   1.000  H
  C31      1.0000 0.39260  0.75230  0.30674  Biso   1.000  C
  H16      1.0000 0.44580  0.75370  0.31140  Biso   1.000  H
  C32      1.0000 0.33900  0.75070  0.25419  Biso   1.000  C
  H17      1.0000 0.35650  0.75040  0.22400  Biso   1.000  H
  C33      1.0000 0.26090  0.74970  0.24661  Biso   1.000  C
  H18      1.0000 0.22520  0.74950  0.21130  Biso   1.000  H
  C34      1.0000 0.10583  0.10532  0.80743  Biso   1.000  C
  C35      1.0000 0.71090  0.09578  0.46609  Biso   1.000  C
  C36      1.0000 0.09295  0.74750  0.22704  Biso   1.000  C
  C37      1.0000 0.54483  0.75480  0.00687  Biso   1.000  C
  C38      1.0000 0.33230  0.11248  0.82904  Biso   1.000  C
  C39      1.0000 0.39137  0.88849  0.69230  Biso   1.000  C
  C40      1.0000 0.37358  0.94349  0.72925  Biso   1.000  C
  C41      1.0000 0.32640  0.00014  0.70676  Biso   1.000  C
  H19      1.0000 0.30150  0.00210  0.66910  Biso   1.000  H
  C42      1.0000 0.31527  0.05517  0.74006  Biso   1.000  C
  H20      1.0000 0.28220  0.09290  0.72420  Biso   1.000  H
  C43      1.0000 0.35225  0.05456  0.79571  Biso   1.000  C
  C44      1.0000 0.40364  0.99694  0.82073  Biso   1.000  C
  C45      1.0000 0.41306  0.94033  0.78685  Biso   1.000  C
  C46      1.0000 0.46390  0.88337  0.81078  Biso   1.000  C
  H21      1.0000 0.46920  0.84560  0.78890  Biso   1.000  H
  C47      1.0000 0.50480  0.88280  0.86487  Biso   1.000  C
  H22      1.0000 0.53810  0.84490  0.87990  Biso   1.000  H
  C48      1.0000 0.49730  0.93910  0.89850  Biso   1.000  C
  H23      1.0000 0.52630  0.93860  0.93560  Biso   1.000  H
  C49      1.0000 0.44820  0.99430  0.87755  Biso   1.000  C
  H24      1.0000 0.44360  0.03100  0.90060  Biso   1.000  H
  C50      1.0000 0.28701  0.74925  0.80344  Biso   1.000  C
  C51      1.0000 0.34625  0.75122  0.86006  Biso   1.000  C
  C52      1.0000 0.40520  0.70250  0.87130  Biso   1.000  C
  H25      1.0000 0.40490  0.66840  0.84500  Biso   1.000  H
  C53      1.0000 0.46560  0.70230  0.92089  Biso   1.000  C
  H26      1.0000 0.50340  0.66660  0.92810  Biso   1.000  H
  C54      1.0000 0.47068  0.75411  0.95961  Biso   1.000  C
  C55      1.0000 0.40946  0.80602  0.95047  Biso   1.000  C
  C56      1.0000 0.34526  0.80268  0.90079  Biso   1.000  C
  C57      1.0000 0.28350  0.85260  0.89227  Biso   1.000  C
  H27      1.0000 0.24060  0.85060  0.86040  Biso   1.000  H
  C58      1.0000 0.28660  0.90370  0.93073  Biso   1.000  C
  H28      1.0000 0.24610  0.93650  0.92460  Biso   1.000  H
  C59      1.0000 0.35020  0.90700  0.97916  Biso   1.000  C
  H29      1.0000 0.35160  0.94220  0.00490  Biso   1.000  H
  C60      1.0000 0.40970  0.85960  0.98904  Biso   1.000  C
  H30      1.0000 0.45130  0.86240  0.02170  Biso   1.000  H
  C61      1.0000 0.16430  0.88301  0.67035  Biso   1.000  C
  C62      1.0000 0.14295  0.93882  0.70395  Biso   1.000  C
  C63      1.0000 0.18907  0.94469  0.75762  Biso   1.000  C
  H31      1.0000 0.22840  0.91130  0.77210  Biso   1.000  H
  C64      1.0000 0.17860  0.99954  0.79127  Biso   1.000  C
  H32      1.0000 0.21200  0.00340  0.82720  Biso   1.000  H
  C65      1.0000 0.11890  0.04768  0.77098  Biso   1.000  C
  C66      1.0000 0.06660  0.04069  0.71658  Biso   1.000  C
  C67      1.0000 0.07960  0.98704  0.68171  Biso   1.000  C
  C68      1.0000 0.02690  0.98160  0.62738  Biso   1.000  C
  H33      1.0000 0.03600  0.94790  0.60370  Biso   1.000  H
  C69      1.0000 0.96290  0.02520  0.60932  Biso   1.000  C
  H34      1.0000 0.92840  0.02030  0.57380  Biso   1.000  H
  C70      1.0000 0.94910  0.07740  0.64418  Biso   1.000  C
  H35      1.0000 0.90510  0.10640  0.63190  Biso   1.000  H
  C71      1.0000 0.00020  0.08550  0.69616  Biso   1.000  C
  H36      1.0000 0.99130  0.12110  0.71850  Biso   1.000  H
  C72      1.0000 0.71200  0.40219  0.46996  Biso   1.000  C
  O1       1.0000 0.54408  0.89174  0.59594  Biso   1.000  O
  O2       1.0000 0.53124  0.82501  0.52231  Biso   1.000  O
  O3       1.0000 0.52750  0.66583  0.52358  Biso   1.000  O
  O4       1.0000 0.55182  0.61233  0.60419  Biso   1.000  O
  O5       1.0000 0.06610  0.80597  0.20897  Biso   1.000  O
  O6       1.0000 0.07491  0.69050  0.20341  Biso   1.000  O
  O7       1.0000 0.44218  0.75028  0.59838  Biso   1.000  O
  O8       1.0000 0.05418  0.08814  0.82924  Biso   1.000  O
  O9       1.0000 0.14071  0.16295  0.81486  Biso   1.000  O
  O10      1.0000 0.38022  0.75019  0.46214  Biso   1.000  O
  O11      1.0000 0.27404  0.74912  0.48654  Biso   1.000  O
  O12      1.0000 0.66354  0.36142  0.43791  Biso   1.000  O
  O13      1.0000 0.78490  0.39958  0.47839  Biso   1.000  O
  O14      1.0000 0.66119  0.13910  0.43938  Biso   1.000  O
  O15      1.0000 0.78350  0.09935  0.47338  Biso   1.000  O
  O16      1.0000 0.24143  0.74847  0.60170  Biso   1.000  O
  O17      1.0000 0.57594  0.69540  0.02302  Biso   1.000  O
  O18      1.0000 0.57394  0.81405  0.02575  Biso   1.000  O
  O19      1.0000 0.32789  0.09506  0.87501  Biso   1.000  O
  O20      1.0000 0.31805  0.17473  0.80943  Biso   1.000  O
  O21      1.0000 0.18499  0.82198  0.69121  Biso   1.000  O
  O22      1.0000 0.16389  0.90016  0.62318  Biso   1.000  O
  O23      1.0000 0.31546  0.74789  0.76542  Biso   1.000  O
  O24      1.0000 0.21566  0.74787  0.79889  Biso   1.000  O
  O25      1.0000 0.35940  0.82934  0.68341  Biso   1.000  O
  O26      1.0000 0.44330  0.90865  0.67254  Biso   1.000  O
  Zn1      1.0000 0.48641  0.66614  0.63899  Biso   1.000  Zn
  Zn2      1.0000 0.46504  0.74661  0.53021  Biso   1.000  Zn
  Zn3      1.0000 0.48563  0.83723  0.63584  Biso   1.000  Zn
  Zn4      1.0000 0.32723  0.75005  0.57159  Biso   1.000  Zn
  Zn5      1.0000 0.18215  0.66381  0.57089  Biso   1.000  Zn
  Zn6      1.0000 0.18019  0.83186  0.57082  Biso   1.000  Zn
  Zn7      1.0000 0.27644  0.74759  0.68387  Biso   1.000  Zn
  Zn8      1.0000 0.12390  0.75058  0.72922  Biso   1.000  Zn
  C73      1.0000 0.94187  0.37744  0.94708  Biso   1.000  C
  C74      1.0000 0.89278  0.42909  0.96612  Biso   1.000  C
  C75      1.0000 0.90240  0.49951  0.95692  Biso   1.000  C
  H37      1.0000 0.93290  0.51230  0.93550  Biso   1.000  H
  C76      1.0000 0.86770  0.55258  0.97871  Biso   1.000  C
  H38      1.0000 0.87770  0.60030  0.97360  Biso   1.000  H
  C77      1.0000 0.81869  0.53492  0.00791  Biso   1.000  C
  C78      1.0000 0.80356  0.46235  0.01619  Biso   1.000  C
  C79      1.0000 0.84206  0.40787  0.99603  Biso   1.000  C
  C80      1.0000 0.82810  0.33610  0.00695  Biso   1.000  C
  H39      1.0000 0.85200  0.29980  0.99360  Biso   1.000  H
  C81      1.0000 0.78060  0.31890  0.03649  Biso   1.000  C
  H40      1.0000 0.77300  0.27130  0.04340  Biso   1.000  H
  C82      1.0000 0.74300  0.37250  0.05665  Biso   1.000  C
  H41      1.0000 0.71090  0.36020  0.07700  Biso   1.000  H
  C83      1.0000 0.75330  0.44210  0.04641  Biso   1.000  C
  H42      1.0000 0.72730  0.47710  0.05930  Biso   1.000  H
  C84      1.0000 0.94119  0.11880  0.94228  Biso   1.000  C
  C85      1.0000 0.89450  0.06396  0.96058  Biso   1.000  C
  C86      1.0000 0.82430  0.03390  0.92574  Biso   1.000  C
  C87      1.0000 0.78880  0.05530  0.87040  Biso   1.000  C
  H43      1.0000 0.81270  0.09020  0.85570  Biso   1.000  H
  C88      1.0000 0.72130  0.02590  0.83890  Biso   1.000  C
  H44      1.0000 0.69930  0.04080  0.80270  Biso   1.000  H
  C89      1.0000 0.68360  0.97320  0.85956  Biso   1.000  C
  H45      1.0000 0.63720  0.95320  0.83700  Biso   1.000  H
  C90      1.0000 0.71440  0.95140  0.91215  Biso   1.000  C
  H46      1.0000 0.68890  0.91650  0.92550  Biso   1.000  H
  C91      1.0000 0.78520  0.98109  0.94739  Biso   1.000  C
  C92      1.0000 0.82050  0.95862  0.00285  Biso   1.000  C
  C93      1.0000 0.88840  0.98880  0.03408  Biso   1.000  C
  H47      1.0000 0.91150  0.97310  0.06990  Biso   1.000  H
  C94      1.0000 0.92440  0.04220  0.01400  Biso   1.000  C
  H48      1.0000 0.96950  0.06370  0.03710  Biso   1.000  H
  C95      1.0000 0.19277  0.24912  0.04864  Biso   1.000  C
  C96      1.0000 0.24273  0.24977  0.10825  Biso   1.000  C
  C97      1.0000 0.32155  0.25040  0.11845  Biso   1.000  C
  H49      1.0000 0.34070  0.25130  0.08910  Biso   1.000  H
  C98      1.0000 0.37470  0.24980  0.17198  Biso   1.000  C
  H50      1.0000 0.42820  0.25080  0.17760  Biso   1.000  H
  C99      1.0000 0.34823  0.24760  0.21609  Biso   1.000  C
  C100     1.0000 0.26659  0.24890  0.20742  Biso   1.000  C
  C101     1.0000 0.21245  0.25030  0.15354  Biso   1.000  C
  C102     1.0000 0.13140  0.25170  0.14840  Biso   1.000  C
  H51      1.0000 0.09420  0.25220  0.11360  Biso   1.000  H
  C103     1.0000 0.10740  0.25230  0.19326  Biso   1.000  C
  H52      1.0000 0.05420  0.25370  0.18860  Biso   1.000  H
  C104     1.0000 0.16100  0.25070  0.24581  Biso   1.000  C
  H53      1.0000 0.14350  0.25040  0.27600  Biso   1.000  H
  C105     1.0000 0.23910  0.24970  0.25339  Biso   1.000  C
  H54      1.0000 0.27480  0.24950  0.28870  Biso   1.000  H
  C106     1.0000 0.39417  0.60532  0.69257  Biso   1.000  C
  C107     1.0000 0.78910  0.59578  0.03391  Biso   1.000  C
  C108     1.0000 0.40705  0.24750  0.27296  Biso   1.000  C
  C109     1.0000 0.95517  0.25480  0.49313  Biso   1.000  C
  C110     1.0000 0.16770  0.61248  0.67096  Biso   1.000  C
  C111     1.0000 0.10863  0.38849  0.80770  Biso   1.000  C
  C112     1.0000 0.12642  0.44349  0.77075  Biso   1.000  C
  C113     1.0000 0.17360  0.50014  0.79324  Biso   1.000  C
  H55      1.0000 0.19850  0.50210  0.83090  Biso   1.000  H
  C114     1.0000 0.18473  0.55517  0.75994  Biso   1.000  C
  H56      1.0000 0.21780  0.59290  0.77580  Biso   1.000  H
  C115     1.0000 0.14775  0.55456  0.70429  Biso   1.000  C
  C116     1.0000 0.09636  0.49694  0.67927  Biso   1.000  C
  C117     1.0000 0.08694  0.44033  0.71315  Biso   1.000  C
  C118     1.0000 0.03610  0.38337  0.68922  Biso   1.000  C
  H57      1.0000 0.03080  0.34560  0.71110  Biso   1.000  H
  C119     1.0000 0.99520  0.38280  0.63513  Biso   1.000  C
  H58      1.0000 0.96190  0.34490  0.62010  Biso   1.000  H
  C120     1.0000 0.00270  0.43910  0.60150  Biso   1.000  C
  H59      1.0000 0.97370  0.43860  0.56440  Biso   1.000  H
  C121     1.0000 0.05180  0.49430  0.62245  Biso   1.000  C
  H60      1.0000 0.05640  0.53100  0.59940  Biso   1.000  H
  C122     1.0000 0.21299  0.24925  0.69656  Biso   1.000  C
  C123     1.0000 0.15375  0.25122  0.63994  Biso   1.000  C
  C124     1.0000 0.09480  0.20250  0.62870  Biso   1.000  C
  H61      1.0000 0.09510  0.16840  0.65500  Biso   1.000  H
  C125     1.0000 0.03440  0.20230  0.57911  Biso   1.000  C
  H62      1.0000 0.99660  0.16660  0.57190  Biso   1.000  H
  C126     1.0000 0.02932  0.25411  0.54039  Biso   1.000  C
  C127     1.0000 0.09054  0.30602  0.54953  Biso   1.000  C
  C128     1.0000 0.15474  0.30268  0.59921  Biso   1.000  C
  C129     1.0000 0.21650  0.35260  0.60773  Biso   1.000  C
  H63      1.0000 0.25940  0.35060  0.63960  Biso   1.000  H
  C130     1.0000 0.21340  0.40370  0.56927  Biso   1.000  C
  H64      1.0000 0.25390  0.43650  0.57540  Biso   1.000  H
  C131     1.0000 0.14980  0.40700  0.52084  Biso   1.000  C
  H65      1.0000 0.14840  0.44220  0.49510  Biso   1.000  H
  C132     1.0000 0.09030  0.35960  0.51096  Biso   1.000  C
  H66      1.0000 0.04870  0.36240  0.47830  Biso   1.000  H
  C133     1.0000 0.33570  0.38301  0.82965  Biso   1.000  C
  C134     1.0000 0.35705  0.43882  0.79605  Biso   1.000  C
  C135     1.0000 0.31093  0.44469  0.74238  Biso   1.000  C
  H67      1.0000 0.27160  0.41130  0.72790  Biso   1.000  H
  C136     1.0000 0.32140  0.49954  0.70873  Biso   1.000  C
  H68      1.0000 0.28800  0.50340  0.67280  Biso   1.000  H
  C137     1.0000 0.38110  0.54768  0.72902  Biso   1.000  C
  C138     1.0000 0.43340  0.54069  0.78342  Biso   1.000  C
  C139     1.0000 0.42040  0.48704  0.81829  Biso   1.000  C
  C140     1.0000 0.47310  0.48160  0.87262  Biso   1.000  C
  H69      1.0000 0.46400  0.44790  0.89630  Biso   1.000  H
  C141     1.0000 0.53710  0.52520  0.89068  Biso   1.000  C
  H70      1.0000 0.57160  0.52030  0.92620  Biso   1.000  H
  C142     1.0000 0.55090  0.57740  0.85582  Biso   1.000  C
  H71      1.0000 0.59490  0.60640  0.86810  Biso   1.000  H
  C143     1.0000 0.49980  0.58550  0.80384  Biso   1.000  C
  H72      1.0000 0.50870  0.62110  0.78150  Biso   1.000  H
  C144     1.0000 0.78800  0.90219  0.03004  Biso   1.000  C
  O27      1.0000 0.95592  0.39174  0.90406  Biso   1.000  O
  O28      1.0000 0.96876  0.32501  0.97769  Biso   1.000  O
  O29      1.0000 0.97250  0.16583  0.97642  Biso   1.000  O
  O30      1.0000 0.94818  0.11233  0.89581  Biso   1.000  O
  O31      1.0000 0.43390  0.30597  0.29103  Biso   1.000  O
  O32      1.0000 0.42509  0.19050  0.29659  Biso   1.000  O
  O33      1.0000 0.05782  0.25028  0.90162  Biso   1.000  O
  O34      1.0000 0.44582  0.58814  0.67076  Biso   1.000  O
  O35      1.0000 0.35929  0.66295  0.68514  Biso   1.000  O
  O36      1.0000 0.11978  0.25019  0.03786  Biso   1.000  O
  O37      1.0000 0.22596  0.24912  0.01346  Biso   1.000  O
  O38      1.0000 0.83646  0.86142  0.06209  Biso   1.000  O
  O39      1.0000 0.71510  0.89958  0.02161  Biso   1.000  O
  O40      1.0000 0.83881  0.63910  0.06062  Biso   1.000  O
  O41      1.0000 0.71650  0.59935  0.02662  Biso   1.000  O
  O42      1.0000 0.25857  0.24847  0.89830  Biso   1.000  O
  O43      1.0000 0.92406  0.19540  0.47698  Biso   1.000  O
  O44      1.0000 0.92606  0.31405  0.47425  Biso   1.000  O
  O45      1.0000 0.17211  0.59506  0.62499  Biso   1.000  O
  O46      1.0000 0.18195  0.67473  0.69057  Biso   1.000  O
  O47      1.0000 0.31501  0.32198  0.80879  Biso   1.000  O
  O48      1.0000 0.33611  0.40016  0.87682  Biso   1.000  O
  O49      1.0000 0.18454  0.24789  0.73458  Biso   1.000  O
  O50      1.0000 0.28434  0.24787  0.70111  Biso   1.000  O
  O51      1.0000 0.14060  0.32934  0.81659  Biso   1.000  O
  O52      1.0000 0.05670  0.40865  0.82746  Biso   1.000  O
  Zn9      1.0000 0.01359  0.16614  0.86101  Biso   1.000  Zn
  Zn10     1.0000 0.03496  0.24661  0.96979  Biso   1.000  Zn
  Zn11     1.0000 0.01437  0.33723  0.86416  Biso   1.000  Zn
  Zn12     1.0000 0.17277  0.25005  0.92841  Biso   1.000  Zn
  Zn13     1.0000 0.31785  0.16381  0.92911  Biso   1.000  Zn
  Zn14     1.0000 0.31981  0.33186  0.92918  Biso   1.000  Zn
  Zn15     1.0000 0.22356  0.24759  0.81613  Biso   1.000  Zn
  Zn16     1.0000 0.37610  0.25058  0.77078  Biso   1.000  Zn
  C145     1.0000 0.44187  0.12256  0.44708  Biso   1.000  C
  C146     1.0000 0.39278  0.07091  0.46612  Biso   1.000  C
  C147     1.0000 0.40240  0.00049  0.45692  Biso   1.000  C
  H73      1.0000 0.43290  0.98770  0.43550  Biso   1.000  H
  C148     1.0000 0.36770  0.94742  0.47871  Biso   1.000  C
  H74      1.0000 0.37770  0.89970  0.47360  Biso   1.000  H
  C149     1.0000 0.31869  0.96508  0.50791  Biso   1.000  C
  C150     1.0000 0.30356  0.03765  0.51619  Biso   1.000  C
  C151     1.0000 0.34206  0.09213  0.49603  Biso   1.000  C
  C152     1.0000 0.32810  0.16390  0.50695  Biso   1.000  C
  H75      1.0000 0.35200  0.20020  0.49360  Biso   1.000  H
  C153     1.0000 0.28060  0.18110  0.53649  Biso   1.000  C
  H76      1.0000 0.27300  0.22870  0.54340  Biso   1.000  H
  C154     1.0000 0.24300  0.12750  0.55665  Biso   1.000  C
  H77      1.0000 0.21090  0.13980  0.57700  Biso   1.000  H
  C155     1.0000 0.25330  0.05790  0.54641  Biso   1.000  C
  H78      1.0000 0.22730  0.02290  0.55930  Biso   1.000  H
  C156     1.0000 0.44119  0.38120  0.44228  Biso   1.000  C
  C157     1.0000 0.39450  0.43604  0.46058  Biso   1.000  C
  C158     1.0000 0.32430  0.46610  0.42574  Biso   1.000  C
  C159     1.0000 0.28880  0.44470  0.37040  Biso   1.000  C
  H79      1.0000 0.31270  0.40980  0.35570  Biso   1.000  H
  C160     1.0000 0.22130  0.47410  0.33890  Biso   1.000  C
  H80      1.0000 0.19930  0.45920  0.30270  Biso   1.000  H
  C161     1.0000 0.18360  0.52680  0.35956  Biso   1.000  C
  H81      1.0000 0.13720  0.54680  0.33700  Biso   1.000  H
  C162     1.0000 0.21440  0.54860  0.41215  Biso   1.000  C
  H82      1.0000 0.18890  0.58350  0.42550  Biso   1.000  H
  C163     1.0000 0.28520  0.51891  0.44739  Biso   1.000  C
  C164     1.0000 0.32050  0.54138  0.50285  Biso   1.000  C
  C165     1.0000 0.38840  0.51120  0.53408  Biso   1.000  C
  H83      1.0000 0.41150  0.52690  0.56990  Biso   1.000  H
  C166     1.0000 0.42440  0.45780  0.51400  Biso   1.000  C
  H84      1.0000 0.46950  0.43630  0.53710  Biso   1.000  H
  C167     1.0000 0.69277  0.25088  0.54864  Biso   1.000  C
  C168     1.0000 0.74273  0.25023  0.60825  Biso   1.000  C
  C169     1.0000 0.82155  0.24960  0.61845  Biso   1.000  C
  H85      1.0000 0.84070  0.24870  0.58910  Biso   1.000  H
  C170     1.0000 0.87470  0.25020  0.67198  Biso   1.000  C
  H86      1.0000 0.92820  0.24920  0.67760  Biso   1.000  H
  C171     1.0000 0.84823  0.25240  0.71609  Biso   1.000  C
  C172     1.0000 0.76659  0.25110  0.70742  Biso   1.000  C
  C173     1.0000 0.71245  0.24970  0.65354  Biso   1.000  C
  C174     1.0000 0.63140  0.24830  0.64840  Biso   1.000  C
  H87      1.0000 0.59420  0.24780  0.61360  Biso   1.000  H
  C175     1.0000 0.60740  0.24770  0.69326  Biso   1.000  C
  H88      1.0000 0.55420  0.24630  0.68860  Biso   1.000  H
  C176     1.0000 0.66100  0.24930  0.74581  Biso   1.000  C
  H89      1.0000 0.64350  0.24960  0.77600  Biso   1.000  H
  C177     1.0000 0.73910  0.25030  0.75339  Biso   1.000  C
  H90      1.0000 0.77480  0.25050  0.78870  Biso   1.000  H
  C178     1.0000 0.89417  0.89468  0.19257  Biso   1.000  C
  C179     1.0000 0.28910  0.90422  0.53391  Biso   1.000  C
  C180     1.0000 0.90705  0.25250  0.77296  Biso   1.000  C
  C181     1.0000 0.45517  0.24520  0.99313  Biso   1.000  C
  C182     1.0000 0.66770  0.88752  0.17096  Biso   1.000  C
  C183     1.0000 0.60863  0.11151  0.30770  Biso   1.000  C
  C184     1.0000 0.62642  0.05651  0.27075  Biso   1.000  C
  C185     1.0000 0.67360  0.99986  0.29324  Biso   1.000  C
  H91      1.0000 0.69850  0.99790  0.33090  Biso   1.000  H
  C186     1.0000 0.68473  0.94483  0.25994  Biso   1.000  C
  H92      1.0000 0.71780  0.90710  0.27580  Biso   1.000  H
  C187     1.0000 0.64775  0.94544  0.20429  Biso   1.000  C
  C188     1.0000 0.59636  0.00306  0.17927  Biso   1.000  C
  C189     1.0000 0.58694  0.05967  0.21315  Biso   1.000  C
  C190     1.0000 0.53610  0.11663  0.18922  Biso   1.000  C
  H93      1.0000 0.53080  0.15440  0.21110  Biso   1.000  H
  C191     1.0000 0.49520  0.11720  0.13513  Biso   1.000  C
  H94      1.0000 0.46190  0.15510  0.12010  Biso   1.000  H
  C192     1.0000 0.50270  0.06090  0.10150  Biso   1.000  C
  H95      1.0000 0.47370  0.06140  0.06440  Biso   1.000  H
  C193     1.0000 0.55180  0.00570  0.12245  Biso   1.000  C
  H96      1.0000 0.55640  0.96900  0.09940  Biso   1.000  H
  C194     1.0000 0.71299  0.25075  0.19656  Biso   1.000  C
  C195     1.0000 0.65375  0.24878  0.13994  Biso   1.000  C
  C196     1.0000 0.59480  0.29750  0.12870  Biso   1.000  C
  H97      1.0000 0.59510  0.33160  0.15500  Biso   1.000  H
  C197     1.0000 0.53440  0.29770  0.07911  Biso   1.000  C
  H98      1.0000 0.49660  0.33340  0.07190  Biso   1.000  H
  C198     1.0000 0.52932  0.24589  0.04039  Biso   1.000  C
  C199     1.0000 0.59054  0.19398  0.04953  Biso   1.000  C
  C200     1.0000 0.65474  0.19732  0.09921  Biso   1.000  C
  C201     1.0000 0.71650  0.14740  0.10773  Biso   1.000  C
  H99      1.0000 0.75940  0.14940  0.13960  Biso   1.000  H
  C202     1.0000 0.71340  0.09630  0.06927  Biso   1.000  C
  H100     1.0000 0.75390  0.06350  0.07540  Biso   1.000  H
  C203     1.0000 0.64980  0.09300  0.02084  Biso   1.000  C
  H101     1.0000 0.64840  0.05780  0.99510  Biso   1.000  H
  C204     1.0000 0.59030  0.14040  0.01096  Biso   1.000  C
  H102     1.0000 0.54870  0.13760  0.97830  Biso   1.000  H
  C205     1.0000 0.83570  0.11699  0.32965  Biso   1.000  C
  C206     1.0000 0.85705  0.06118  0.29605  Biso   1.000  C
  C207     1.0000 0.81093  0.05531  0.24238  Biso   1.000  C
  H103     1.0000 0.77160  0.08870  0.22790  Biso   1.000  H
  C208     1.0000 0.82140  0.00046  0.20873  Biso   1.000  C
  H104     1.0000 0.78800  0.99660  0.17280  Biso   1.000  H
  C209     1.0000 0.88110  0.95232  0.22902  Biso   1.000  C
  C210     1.0000 0.93340  0.95931  0.28342  Biso   1.000  C
  C211     1.0000 0.92040  0.01296  0.31829  Biso   1.000  C
  C212     1.0000 0.97310  0.01840  0.37262  Biso   1.000  C
  H105     1.0000 0.96400  0.05210  0.39630  Biso   1.000  H
  C213     1.0000 0.03710  0.97480  0.39068  Biso   1.000  C
  H106     1.0000 0.07160  0.97970  0.42620  Biso   1.000  H
  C214     1.0000 0.05090  0.92260  0.35582  Biso   1.000  C
  H107     1.0000 0.09490  0.89360  0.36810  Biso   1.000  H
  C215     1.0000 0.99980  0.91450  0.30384  Biso   1.000  C
  H108     1.0000 0.00870  0.87890  0.28150  Biso   1.000  H
  C216     1.0000 0.28800  0.59781  0.53004  Biso   1.000  C
  O53      1.0000 0.45592  0.10826  0.40406  Biso   1.000  O
  O54      1.0000 0.46876  0.17499  0.47769  Biso   1.000  O
  O55      1.0000 0.47250  0.33417  0.47642  Biso   1.000  O
  O56      1.0000 0.44818  0.38767  0.39581  Biso   1.000  O
  O57      1.0000 0.93390  0.19403  0.79103  Biso   1.000  O
  O58      1.0000 0.92509  0.30950  0.79659  Biso   1.000  O
  O59      1.0000 0.55782  0.24972  0.40162  Biso   1.000  O
  O60      1.0000 0.94582  0.91186  0.17076  Biso   1.000  O
  O61      1.0000 0.85929  0.83705  0.18514  Biso   1.000  O
  O62      1.0000 0.61978  0.24981  0.53786  Biso   1.000  O
  O63      1.0000 0.72596  0.25088  0.51346  Biso   1.000  O
  O64      1.0000 0.33646  0.63858  0.56209  Biso   1.000  O
  O65      1.0000 0.21510  0.60042  0.52161  Biso   1.000  O
  O66      1.0000 0.33881  0.86090  0.56062  Biso   1.000  O
  O67      1.0000 0.21650  0.90065  0.52662  Biso   1.000  O
  O68      1.0000 0.75857  0.25153  0.39830  Biso   1.000  O
  O69      1.0000 0.42406  0.30460  0.97698  Biso   1.000  O
  O70      1.0000 0.42606  0.18595  0.97425  Biso   1.000  O
  O71      1.0000 0.67211  0.90494  0.12499  Biso   1.000  O
  O72      1.0000 0.68195  0.82527  0.19057  Biso   1.000  O
  O73      1.0000 0.81501  0.17802  0.30879  Biso   1.000  O
  O74      1.0000 0.83611  0.09984  0.37682  Biso   1.000  O
  O75      1.0000 0.68454  0.25211  0.23458  Biso   1.000  O
  O76      1.0000 0.78434  0.25213  0.20111  Biso   1.000  O
  O77      1.0000 0.64060  0.17066  0.31659  Biso   1.000  O
  O78      1.0000 0.55670  0.09135  0.32746  Biso   1.000  O
  Zn17     1.0000 0.51359  0.33386  0.36101  Biso   1.000  Zn
  Zn18     1.0000 0.53496  0.25339  0.46979  Biso   1.000  Zn
  Zn19     1.0000 0.51437  0.16277  0.36416  Biso   1.000  Zn
  Zn20     1.0000 0.67277  0.24995  0.42841  Biso   1.000  Zn
  Zn21     1.0000 0.81785  0.33619  0.42911  Biso   1.000  Zn
  Zn22     1.0000 0.81981  0.16814  0.42918  Biso   1.000  Zn
  Zn23     1.0000 0.72357  0.25241  0.31613  Biso   1.000  Zn
  Zn24     1.0000 0.87610  0.24942  0.27078  Biso   1.000  Zn
  C217     1.0000 0.05813  0.62256  0.05292  Biso   1.000  C
  C218     1.0000 0.10722  0.57091  0.03388  Biso   1.000  C
  C219     1.0000 0.09760  0.50049  0.04308  Biso   1.000  C
  H109     1.0000 0.06710  0.48770  0.06450  Biso   1.000  H
  C220     1.0000 0.13230  0.44742  0.02129  Biso   1.000  C
  H110     1.0000 0.12230  0.39970  0.02640  Biso   1.000  H
  C221     1.0000 0.18131  0.46508  0.99209  Biso   1.000  C
  C222     1.0000 0.19644  0.53765  0.98381  Biso   1.000  C
  C223     1.0000 0.15794  0.59213  0.00397  Biso   1.000  C
  C224     1.0000 0.17190  0.66390  0.99305  Biso   1.000  C
  H111     1.0000 0.14800  0.70020  0.00640  Biso   1.000  H
  C225     1.0000 0.21940  0.68110  0.96351  Biso   1.000  C
  H112     1.0000 0.22700  0.72870  0.95660  Biso   1.000  H
  C226     1.0000 0.25700  0.62750  0.94335  Biso   1.000  C
  H113     1.0000 0.28910  0.63980  0.92300  Biso   1.000  H
  C227     1.0000 0.24670  0.55790  0.95359  Biso   1.000  C
  H114     1.0000 0.27270  0.52290  0.94070  Biso   1.000  H
  C228     1.0000 0.05881  0.88120  0.05772  Biso   1.000  C
  C229     1.0000 0.10550  0.93604  0.03942  Biso   1.000  C
  C230     1.0000 0.17570  0.96610  0.07426  Biso   1.000  C
  C231     1.0000 0.21120  0.94470  0.12960  Biso   1.000  C
  H115     1.0000 0.18730  0.90980  0.14430  Biso   1.000  H
  C232     1.0000 0.27870  0.97410  0.16110  Biso   1.000  C
  H116     1.0000 0.30070  0.95920  0.19730  Biso   1.000  H
  C233     1.0000 0.31640  0.02680  0.14044  Biso   1.000  C
  H117     1.0000 0.36280  0.04680  0.16300  Biso   1.000  H
  C234     1.0000 0.28560  0.04860  0.08785  Biso   1.000  C
  H118     1.0000 0.31110  0.08350  0.07450  Biso   1.000  H
  C235     1.0000 0.21480  0.01891  0.05261  Biso   1.000  C
  C236     1.0000 0.17950  0.04138  0.99715  Biso   1.000  C
  C237     1.0000 0.11160  0.01120  0.96592  Biso   1.000  C
  H119     1.0000 0.08850  0.02690  0.93010  Biso   1.000  H
  C238     1.0000 0.07560  0.95780  0.98600  Biso   1.000  C
  H120     1.0000 0.03050  0.93630  0.96290  Biso   1.000  H
  C239     1.0000 0.80723  0.75088  0.95136  Biso   1.000  C
  C240     1.0000 0.75727  0.75023  0.89175  Biso   1.000  C
  C241     1.0000 0.67845  0.74960  0.88155  Biso   1.000  C
  H121     1.0000 0.65930  0.74870  0.91090  Biso   1.000  H
  C242     1.0000 0.62530  0.75020  0.82802  Biso   1.000  C
  H122     1.0000 0.57180  0.74920  0.82240  Biso   1.000  H
  C243     1.0000 0.65177  0.75240  0.78391  Biso   1.000  C
  C244     1.0000 0.73341  0.75110  0.79258  Biso   1.000  C
  C245     1.0000 0.78755  0.74970  0.84646  Biso   1.000  C
  C246     1.0000 0.86860  0.74830  0.85160  Biso   1.000  C
  H123     1.0000 0.90580  0.74780  0.88640  Biso   1.000  H
  C247     1.0000 0.89260  0.74770  0.80674  Biso   1.000  C
  H124     1.0000 0.94580  0.74630  0.81140  Biso   1.000  H
  C248     1.0000 0.83900  0.74930  0.75419  Biso   1.000  C
  H125     1.0000 0.85650  0.74960  0.72400  Biso   1.000  H
  C249     1.0000 0.76090  0.75030  0.74661  Biso   1.000  C
  H126     1.0000 0.72520  0.75050  0.71130  Biso   1.000  H
  C250     1.0000 0.60583  0.39468  0.30743  Biso   1.000  C
  C251     1.0000 0.21090  0.40422  0.96609  Biso   1.000  C
  C252     1.0000 0.59295  0.75250  0.72704  Biso   1.000  C
  C253     1.0000 0.04483  0.74520  0.50687  Biso   1.000  C
  C254     1.0000 0.83230  0.38752  0.32904  Biso   1.000  C
  C255     1.0000 0.89137  0.61151  0.19230  Biso   1.000  C
  C256     1.0000 0.87358  0.55651  0.22925  Biso   1.000  C
  C257     1.0000 0.82640  0.49986  0.20676  Biso   1.000  C
  H127     1.0000 0.80150  0.49790  0.16910  Biso   1.000  H
  C258     1.0000 0.81527  0.44483  0.24006  Biso   1.000  C
  H128     1.0000 0.78220  0.40710  0.22420  Biso   1.000  H
  C259     1.0000 0.85225  0.44544  0.29571  Biso   1.000  C
  C260     1.0000 0.90364  0.50306  0.32073  Biso   1.000  C
  C261     1.0000 0.91306  0.55967  0.28685  Biso   1.000  C
  C262     1.0000 0.96390  0.61663  0.31078  Biso   1.000  C
  H129     1.0000 0.96920  0.65440  0.28890  Biso   1.000  H
  C263     1.0000 0.00480  0.61720  0.36487  Biso   1.000  C
  H130     1.0000 0.03810  0.65510  0.37990  Biso   1.000  H
  C264     1.0000 0.99730  0.56090  0.39850  Biso   1.000  C
  H131     1.0000 0.02630  0.56140  0.43560  Biso   1.000  H
  C265     1.0000 0.94820  0.50570  0.37755  Biso   1.000  C
  H132     1.0000 0.94360  0.46900  0.40060  Biso   1.000  H
  C266     1.0000 0.78701  0.75075  0.30344  Biso   1.000  C
  C267     1.0000 0.84625  0.74878  0.36006  Biso   1.000  C
  C268     1.0000 0.90520  0.79750  0.37130  Biso   1.000  C
  H133     1.0000 0.90490  0.83160  0.34500  Biso   1.000  H
  C269     1.0000 0.96560  0.79770  0.42089  Biso   1.000  C
  H134     1.0000 0.00340  0.83340  0.42810  Biso   1.000  H
  C270     1.0000 0.97068  0.74589  0.45961  Biso   1.000  C
  C271     1.0000 0.90946  0.69398  0.45047  Biso   1.000  C
  C272     1.0000 0.84526  0.69732  0.40079  Biso   1.000  C
  C273     1.0000 0.78350  0.64740  0.39227  Biso   1.000  C
  H135     1.0000 0.74060  0.64940  0.36040  Biso   1.000  H
  C274     1.0000 0.78660  0.59630  0.43073  Biso   1.000  C
  H136     1.0000 0.74610  0.56350  0.42460  Biso   1.000  H
  C275     1.0000 0.85020  0.59300  0.47916  Biso   1.000  C
  H137     1.0000 0.85160  0.55780  0.50490  Biso   1.000  H
  C276     1.0000 0.90970  0.64040  0.48904  Biso   1.000  C
  H138     1.0000 0.95130  0.63760  0.52170  Biso   1.000  H
  C277     1.0000 0.66430  0.61699  0.17035  Biso   1.000  C
  C278     1.0000 0.64295  0.56118  0.20395  Biso   1.000  C
  C279     1.0000 0.68907  0.55531  0.25762  Biso   1.000  C
  H139     1.0000 0.72840  0.58870  0.27210  Biso   1.000  H
  C280     1.0000 0.67860  0.50046  0.29127  Biso   1.000  C
  H140     1.0000 0.71200  0.49660  0.32720  Biso   1.000  H
  C281     1.0000 0.61890  0.45232  0.27098  Biso   1.000  C
  C282     1.0000 0.56660  0.45931  0.21658  Biso   1.000  C
  C283     1.0000 0.57960  0.51296  0.18171  Biso   1.000  C
  C284     1.0000 0.52690  0.51840  0.12738  Biso   1.000  C
  H141     1.0000 0.53600  0.55210  0.10370  Biso   1.000  H
  C285     1.0000 0.46290  0.47480  0.10932  Biso   1.000  C
  H142     1.0000 0.42840  0.47970  0.07380  Biso   1.000  H
  C286     1.0000 0.44910  0.42260  0.14418  Biso   1.000  C
  H143     1.0000 0.40510  0.39360  0.13190  Biso   1.000  H
  C287     1.0000 0.50020  0.41450  0.19616  Biso   1.000  C
  H144     1.0000 0.49130  0.37890  0.21850  Biso   1.000  H
  C288     1.0000 0.21200  0.09781  0.96996  Biso   1.000  C
  O79      1.0000 0.04408  0.60826  0.09594  Biso   1.000  O
  O80      1.0000 0.03124  0.67499  0.02231  Biso   1.000  O
  O81      1.0000 0.02750  0.83417  0.02358  Biso   1.000  O
  O82      1.0000 0.05182  0.88767  0.10419  Biso   1.000  O
  O83      1.0000 0.56610  0.69403  0.70897  Biso   1.000  O
  O84      1.0000 0.57491  0.80950  0.70341  Biso   1.000  O
  O85      1.0000 0.94218  0.74972  0.09838  Biso   1.000  O
  O86      1.0000 0.55418  0.41186  0.32924  Biso   1.000  O
  O87      1.0000 0.64071  0.33705  0.31486  Biso   1.000  O
  O88      1.0000 0.88022  0.74981  0.96214  Biso   1.000  O
  O89      1.0000 0.77404  0.75088  0.98654  Biso   1.000  O
  O90      1.0000 0.16354  0.13858  0.93791  Biso   1.000  O
  O91      1.0000 0.28490  0.10042  0.97839  Biso   1.000  O
  O92      1.0000 0.16119  0.36090  0.93938  Biso   1.000  O
  O93      1.0000 0.28350  0.40065  0.97338  Biso   1.000  O
  O94      1.0000 0.74143  0.75153  0.10170  Biso   1.000  O
  O95      1.0000 0.07594  0.80460  0.52302  Biso   1.000  O
  O96      1.0000 0.07394  0.68595  0.52575  Biso   1.000  O
  O97      1.0000 0.82789  0.40494  0.37501  Biso   1.000  O
  O98      1.0000 0.81805  0.32527  0.30943  Biso   1.000  O
  O99      1.0000 0.68499  0.67802  0.19121  Biso   1.000  O
  O100     1.0000 0.66389  0.59984  0.12318  Biso   1.000  O
  O101     1.0000 0.81546  0.75211  0.26542  Biso   1.000  O
  O102     1.0000 0.71566  0.75213  0.29889  Biso   1.000  O
  O103     1.0000 0.85940  0.67066  0.18341  Biso   1.000  O
  O104     1.0000 0.94330  0.59135  0.17254  Biso   1.000  O
  Zn25     1.0000 0.98641  0.83386  0.13899  Biso   1.000  Zn
  Zn26     1.0000 0.96504  0.75339  0.03021  Biso   1.000  Zn
  Zn27     1.0000 0.98563  0.66277  0.13584  Biso   1.000  Zn
  Zn28     1.0000 0.82723  0.74995  0.07159  Biso   1.000  Zn
  Zn29     1.0000 0.68215  0.83619  0.07089  Biso   1.000  Zn
  Zn30     1.0000 0.68019  0.66814  0.07082  Biso   1.000  Zn
  Zn31     1.0000 0.77643  0.75241  0.18387  Biso   1.000  Zn
  Zn32     1.0000 0.62390  0.74942  0.22922  Biso   1.000  Zn
