data_IXUWII_clean
_audit_creation_date              2014-07-02
_audit_creation_method            'Materials Studio'
_symmetry_space_group_name_H-M    'P1'
_symmetry_Int_Tables_number       1
_symmetry_cell_setting            triclinic
loop_
_symmetry_equiv_pos_as_xyz
  x,y,z
_cell_length_a                    16.1300
_cell_length_b                    16.8787
_cell_length_c                    16.8787
_cell_angle_alpha                 92.3765
_cell_angle_beta                  100.8380
_cell_angle_gamma                 79.1620
loop_
_atom_site_label
_atom_site_type_symbol
_atom_site_fract_x
_atom_site_fract_y
_atom_site_fract_z
_atom_site_U_iso_or_equiv
_atom_site_adp_type
_atom_site_occupancy
Co1    Co    0.23666   0.23746   0.78214   0.01267  Uiso   1.00
Co2    Co    0.26334   0.78214   0.23746   0.01267  Uiso   1.00
Co3    Co    0.76334   0.76254   0.21786   0.01267  Uiso   1.00
Co4    Co    0.73666   0.21786   0.76254   0.01267  Uiso   1.00
H1     H     0.41460   0.48550   0.05490   0.01267  Uiso   1.00
H2     H     0.48810   0.15110   0.67950   0.01267  Uiso   1.00
H3     H     0.52810   0.39660   0.41700   0.01267  Uiso   1.00
H4     H     0.57020   0.07090   0.59730   0.01267  Uiso   1.00
H5     H     0.35980   0.99530   0.47690   0.01267  Uiso   1.00
H6     H     0.27790   0.07000   0.56220   0.01267  Uiso   1.00
H7     H     0.99280   0.16490   0.84390   0.01267  Uiso   1.00
H8     H     0.92080   0.09960   0.91880   0.01267  Uiso   1.00
H9     H     0.34940   0.36090   0.82090   0.01267  Uiso   1.00
H10    H     0.23650   0.26340   0.96480   0.01267  Uiso   1.00
H11    H     0.29110   0.33810   0.07270   0.01267  Uiso   1.00
H12    H     0.41620   0.42960   0.92320   0.01267  Uiso   1.00
H13    H     0.41970   0.58980   0.13300   0.01267  Uiso   1.00
H14    H     0.49210   0.67040   0.22020   0.01267  Uiso   1.00
H15    H     0.57210   0.62340   0.34500   0.01267  Uiso   1.00
H16    H     0.48710   0.41040   0.29680   0.01267  Uiso   1.00
H17    H     0.58980   0.23050   0.62470   0.01267  Uiso   1.00
H18    H     0.52380   0.30270   0.51150   0.01267  Uiso   1.00
H19    H     0.70410   0.43960   0.55780   0.01267  Uiso   1.00
H20    H     0.76190   0.36610   0.67150   0.01267  Uiso   1.00
H21    H     0.13540   0.94520   0.00380   0.01267  Uiso   1.00
H22    H     0.20810   0.01520   0.93240   0.01267  Uiso   1.00
H23    H     0.08540   0.05490   0.48550   0.01267  Uiso   1.00
H24    H     0.01190   0.67950   0.15110   0.01267  Uiso   1.00
H25    H     0.97190   0.41700   0.39660   0.01267  Uiso   1.00
H26    H     0.92980   0.59730   0.07090   0.01267  Uiso   1.00
H27    H     0.14020   0.47690   0.99530   0.01267  Uiso   1.00
H28    H     0.22210   0.56220   0.07000   0.01267  Uiso   1.00
H29    H     0.50720   0.84390   0.16490   0.01267  Uiso   1.00
H30    H     0.57920   0.91880   0.09960   0.01267  Uiso   1.00
H31    H     0.15060   0.82090   0.36090   0.01267  Uiso   1.00
H32    H     0.26350   0.96480   0.26340   0.01267  Uiso   1.00
H33    H     0.20890   0.07270   0.33810   0.01267  Uiso   1.00
H34    H     0.08380   0.92320   0.42960   0.01267  Uiso   1.00
H35    H     0.08030   0.13300   0.58980   0.01267  Uiso   1.00
H36    H     0.00790   0.22020   0.67040   0.01267  Uiso   1.00
H37    H     0.92790   0.34500   0.62340   0.01267  Uiso   1.00
H38    H     0.01290   0.29680   0.41040   0.01267  Uiso   1.00
H39    H     0.91020   0.62470   0.23050   0.01267  Uiso   1.00
H40    H     0.97620   0.51150   0.30270   0.01267  Uiso   1.00
H41    H     0.79590   0.55780   0.43960   0.01267  Uiso   1.00
H42    H     0.73810   0.67150   0.36610   0.01267  Uiso   1.00
H43    H     0.36460   0.00380   0.94520   0.01267  Uiso   1.00
H44    H     0.29190   0.93240   0.01520   0.01267  Uiso   1.00
H45    H     0.58540   0.51450   0.94510   0.01267  Uiso   1.00
H46    H     0.51190   0.84890   0.32050   0.01267  Uiso   1.00
H47    H     0.47190   0.60340   0.58300   0.01267  Uiso   1.00
H48    H     0.42980   0.92910   0.40270   0.01267  Uiso   1.00
H49    H     0.64020   0.00470   0.52310   0.01267  Uiso   1.00
H50    H     0.72210   0.93000   0.43780   0.01267  Uiso   1.00
H51    H     0.00720   0.83510   0.15610   0.01267  Uiso   1.00
H52    H     0.07920   0.90040   0.08120   0.01267  Uiso   1.00
H53    H     0.65060   0.63910   0.17910   0.01267  Uiso   1.00
H54    H     0.76350   0.73660   0.03520   0.01267  Uiso   1.00
H55    H     0.70890   0.66190   0.92730   0.01267  Uiso   1.00
H56    H     0.58380   0.57040   0.07680   0.01267  Uiso   1.00
H57    H     0.58030   0.41020   0.86700   0.01267  Uiso   1.00
H58    H     0.50790   0.32960   0.77980   0.01267  Uiso   1.00
H59    H     0.42790   0.37660   0.65500   0.01267  Uiso   1.00
H60    H     0.51290   0.58960   0.70320   0.01267  Uiso   1.00
H61    H     0.41020   0.76950   0.37530   0.01267  Uiso   1.00
H62    H     0.47620   0.69730   0.48850   0.01267  Uiso   1.00
H63    H     0.29590   0.56040   0.44220   0.01267  Uiso   1.00
H64    H     0.23810   0.63390   0.32850   0.01267  Uiso   1.00
H65    H     0.86460   0.05480   0.99620   0.01267  Uiso   1.00
H66    H     0.79190   0.98480   0.06760   0.01267  Uiso   1.00
H67    H     0.91460   0.94510   0.51450   0.01267  Uiso   1.00
H68    H     0.98810   0.32050   0.84890   0.01267  Uiso   1.00
H69    H     0.02810   0.58300   0.60340   0.01267  Uiso   1.00
H70    H     0.07020   0.40270   0.92910   0.01267  Uiso   1.00
H71    H     0.85980   0.52310   0.00470   0.01267  Uiso   1.00
H72    H     0.77790   0.43780   0.93000   0.01267  Uiso   1.00
H73    H     0.49280   0.15610   0.83510   0.01267  Uiso   1.00
H74    H     0.42080   0.08120   0.90040   0.01267  Uiso   1.00
H75    H     0.84940   0.17910   0.63910   0.01267  Uiso   1.00
H76    H     0.73650   0.03520   0.73660   0.01267  Uiso   1.00
H77    H     0.79110   0.92730   0.66190   0.01267  Uiso   1.00
H78    H     0.91620   0.07680   0.57040   0.01267  Uiso   1.00
H79    H     0.91970   0.86700   0.41020   0.01267  Uiso   1.00
H80    H     0.99210   0.77980   0.32960   0.01267  Uiso   1.00
H81    H     0.07210   0.65500   0.37660   0.01267  Uiso   1.00
H82    H     0.98710   0.70320   0.58960   0.01267  Uiso   1.00
H83    H     0.08980   0.37530   0.76950   0.01267  Uiso   1.00
H84    H     0.02380   0.48850   0.69730   0.01267  Uiso   1.00
H85    H     0.20410   0.44220   0.56040   0.01267  Uiso   1.00
H86    H     0.26190   0.32850   0.63390   0.01267  Uiso   1.00
H87    H     0.63540   0.99620   0.05480   0.01267  Uiso   1.00
H88    H     0.70810   0.06760   0.98480   0.01267  Uiso   1.00
C1     C     0.32144   0.16395   0.68565   0.01267  Uiso   1.00
C2     C     0.37500   0.11704   0.63040   0.01267  Uiso   1.00
C3     C     0.46180   0.11819   0.63909   0.01267  Uiso   1.00
C4     C     0.51013   0.07156   0.58904   0.01267  Uiso   1.00
C5     C     0.47343   0.02547   0.52691   0.01267  Uiso   1.00
C6     C     0.38670   0.02642   0.51882   0.01267  Uiso   1.00
C7     C     0.33760   0.07100   0.56940   0.01267  Uiso   1.00
C8     C     0.16130   0.15822   0.85522   0.01267  Uiso   1.00
C9     C     0.02380   0.12294   0.87956   0.01267  Uiso   1.00
C10    C     0.97990   0.07874   0.91958   0.01267  Uiso   1.00
C11    C     0.33890   0.35440   0.87360   0.01267  Uiso   1.00
C12    C     0.27260   0.29933   0.95603   0.01267  Uiso   1.00
C13    C     0.30510   0.34366   0.02134   0.01267  Uiso   1.00
C14    C     0.35810   0.39589   0.01075   0.01267  Uiso   1.00
C15    C     0.37670   0.39770   0.93350   0.01267  Uiso   1.00
C16    C     0.40570   0.43324   0.15172   0.01267  Uiso   1.00
C17    C     0.45010   0.49088   0.20514   0.01267  Uiso   1.00
C18    C     0.45020   0.56942   0.18398   0.01267  Uiso   1.00
C19    C     0.49320   0.61661   0.23547   0.01267  Uiso   1.00
C20    C     0.53970   0.58963   0.31071   0.01267  Uiso   1.00
C21    C     0.53750   0.51173   0.33477   0.01267  Uiso   1.00
C22    C     0.49070   0.46288   0.28088   0.01267  Uiso   1.00
C23    C     0.61370   0.27443   0.61137   0.01267  Uiso   1.00
C24    C     0.57450   0.31662   0.54298   0.01267  Uiso   1.00
C25    C     0.60800   0.37918   0.51926   0.01267  Uiso   1.00
C26    C     0.67850   0.39633   0.56979   0.01267  Uiso   1.00
C27    C     0.71270   0.35177   0.63787   0.01267  Uiso   1.00
C28    C     0.58730   0.48535   0.41653   0.01267  Uiso   1.00
C29    C     0.10780   0.10660   0.89100   0.01267  Uiso   1.00
C30    C     0.01340   0.00920   0.95920   0.01267  Uiso   1.00
C31    C     0.10500   0.98890   0.97030   0.01267  Uiso   1.00
C32    C     0.14860   0.03370   0.93170   0.01267  Uiso   1.00
C33    C     0.17856   0.68565   0.16395   0.01267  Uiso   1.00
C34    C     0.12500   0.63040   0.11704   0.01267  Uiso   1.00
C35    C     0.03820   0.63909   0.11819   0.01267  Uiso   1.00
C36    C     0.98987   0.58904   0.07156   0.01267  Uiso   1.00
C37    C     0.02657   0.52691   0.02547   0.01267  Uiso   1.00
C38    C     0.11330   0.51882   0.02642   0.01267  Uiso   1.00
C39    C     0.16240   0.56940   0.07100   0.01267  Uiso   1.00
C40    C     0.33870   0.85522   0.15822   0.01267  Uiso   1.00
C41    C     0.47620   0.87956   0.12294   0.01267  Uiso   1.00
C42    C     0.52010   0.91958   0.07874   0.01267  Uiso   1.00
C43    C     0.16110   0.87360   0.35440   0.01267  Uiso   1.00
C44    C     0.22740   0.95603   0.29933   0.01267  Uiso   1.00
C45    C     0.19490   0.02134   0.34366   0.01267  Uiso   1.00
C46    C     0.14190   0.01075   0.39589   0.01267  Uiso   1.00
C47    C     0.12330   0.93350   0.39770   0.01267  Uiso   1.00
C48    C     0.09430   0.15172   0.43324   0.01267  Uiso   1.00
C49    C     0.04990   0.20514   0.49088   0.01267  Uiso   1.00
C50    C     0.04980   0.18398   0.56942   0.01267  Uiso   1.00
C51    C     0.00680   0.23547   0.61661   0.01267  Uiso   1.00
C52    C     0.96030   0.31071   0.58963   0.01267  Uiso   1.00
C53    C     0.96250   0.33477   0.51173   0.01267  Uiso   1.00
C54    C     0.00930   0.28088   0.46288   0.01267  Uiso   1.00
C55    C     0.88630   0.61137   0.27443   0.01267  Uiso   1.00
C56    C     0.92550   0.54298   0.31662   0.01267  Uiso   1.00
C57    C     0.89200   0.51926   0.37918   0.01267  Uiso   1.00
C58    C     0.82150   0.56979   0.39633   0.01267  Uiso   1.00
C59    C     0.78730   0.63787   0.35177   0.01267  Uiso   1.00
C60    C     0.91270   0.41653   0.48535   0.01267  Uiso   1.00
C61    C     0.39220   0.89100   0.10660   0.01267  Uiso   1.00
C62    C     0.48660   0.95920   0.00920   0.01267  Uiso   1.00
C63    C     0.39500   0.97030   0.98890   0.01267  Uiso   1.00
C64    C     0.35140   0.93170   0.03370   0.01267  Uiso   1.00
C65    C     0.67856   0.83605   0.31435   0.01267  Uiso   1.00
C66    C     0.62500   0.88296   0.36960   0.01267  Uiso   1.00
C67    C     0.53820   0.88181   0.36091   0.01267  Uiso   1.00
C68    C     0.48987   0.92844   0.41096   0.01267  Uiso   1.00
C69    C     0.52657   0.97453   0.47309   0.01267  Uiso   1.00
C70    C     0.61330   0.97358   0.48118   0.01267  Uiso   1.00
C71    C     0.66240   0.92900   0.43060   0.01267  Uiso   1.00
C72    C     0.83870   0.84178   0.14478   0.01267  Uiso   1.00
C73    C     0.97620   0.87706   0.12044   0.01267  Uiso   1.00
C74    C     0.02010   0.92126   0.08042   0.01267  Uiso   1.00
C75    C     0.66110   0.64560   0.12640   0.01267  Uiso   1.00
C76    C     0.72740   0.70067   0.04397   0.01267  Uiso   1.00
C77    C     0.69490   0.65634   0.97866   0.01267  Uiso   1.00
C78    C     0.64190   0.60411   0.98925   0.01267  Uiso   1.00
C79    C     0.62330   0.60230   0.06650   0.01267  Uiso   1.00
C80    C     0.59430   0.56676   0.84828   0.01267  Uiso   1.00
C81    C     0.54990   0.50912   0.79486   0.01267  Uiso   1.00
C82    C     0.54980   0.43058   0.81602   0.01267  Uiso   1.00
C83    C     0.50680   0.38339   0.76453   0.01267  Uiso   1.00
C84    C     0.46030   0.41037   0.68929   0.01267  Uiso   1.00
C85    C     0.46250   0.48827   0.66523   0.01267  Uiso   1.00
C86    C     0.50930   0.53712   0.71912   0.01267  Uiso   1.00
C87    C     0.38630   0.72557   0.38863   0.01267  Uiso   1.00
C88    C     0.42550   0.68338   0.45702   0.01267  Uiso   1.00
C89    C     0.39200   0.62082   0.48074   0.01267  Uiso   1.00
C90    C     0.32150   0.60367   0.43021   0.01267  Uiso   1.00
C91    C     0.28730   0.64823   0.36213   0.01267  Uiso   1.00
C92    C     0.41270   0.51465   0.58347   0.01267  Uiso   1.00
C93    C     0.89220   0.89340   0.10900   0.01267  Uiso   1.00
C94    C     0.98660   0.99080   0.04080   0.01267  Uiso   1.00
C95    C     0.89500   0.01110   0.02970   0.01267  Uiso   1.00
C96    C     0.85140   0.96630   0.06830   0.01267  Uiso   1.00
C97    C     0.82144   0.31435   0.83605   0.01267  Uiso   1.00
C98    C     0.87500   0.36960   0.88296   0.01267  Uiso   1.00
C99    C     0.96180   0.36091   0.88181   0.01267  Uiso   1.00
C100   C     0.01013   0.41096   0.92844   0.01267  Uiso   1.00
C101   C     0.97343   0.47309   0.97453   0.01267  Uiso   1.00
C102   C     0.88670   0.48118   0.97358   0.01267  Uiso   1.00
C103   C     0.83760   0.43060   0.92900   0.01267  Uiso   1.00
C104   C     0.66130   0.14478   0.84178   0.01267  Uiso   1.00
C105   C     0.52380   0.12044   0.87706   0.01267  Uiso   1.00
C106   C     0.47990   0.08042   0.92126   0.01267  Uiso   1.00
C107   C     0.83890   0.12640   0.64560   0.01267  Uiso   1.00
C108   C     0.77260   0.04397   0.70067   0.01267  Uiso   1.00
C109   C     0.80510   0.97866   0.65634   0.01267  Uiso   1.00
C110   C     0.85810   0.98925   0.60411   0.01267  Uiso   1.00
C111   C     0.87670   0.06650   0.60230   0.01267  Uiso   1.00
C112   C     0.90570   0.84828   0.56676   0.01267  Uiso   1.00
C113   C     0.95010   0.79486   0.50912   0.01267  Uiso   1.00
C114   C     0.95020   0.81602   0.43058   0.01267  Uiso   1.00
C115   C     0.99320   0.76453   0.38339   0.01267  Uiso   1.00
C116   C     0.03970   0.68929   0.41037   0.01267  Uiso   1.00
C117   C     0.03750   0.66523   0.48827   0.01267  Uiso   1.00
C118   C     0.99070   0.71912   0.53712   0.01267  Uiso   1.00
C119   C     0.11370   0.38863   0.72557   0.01267  Uiso   1.00
C120   C     0.07450   0.45702   0.68338   0.01267  Uiso   1.00
C121   C     0.10800   0.48074   0.62082   0.01267  Uiso   1.00
C122   C     0.17850   0.43021   0.60367   0.01267  Uiso   1.00
C123   C     0.21270   0.36213   0.64823   0.01267  Uiso   1.00
C124   C     0.08730   0.58347   0.51465   0.01267  Uiso   1.00
C125   C     0.60780   0.10900   0.89340   0.01267  Uiso   1.00
C126   C     0.51340   0.04080   0.99080   0.01267  Uiso   1.00
C127   C     0.60500   0.02970   0.01110   0.01267  Uiso   1.00
C128   C     0.64860   0.06830   0.96630   0.01267  Uiso   1.00
N1     N     0.28818   0.30345   0.88187   0.01267  Uiso   1.00
N2     N     0.39570   0.44428   0.07078   0.01267  Uiso   1.00
N3     N     0.68298   0.29079   0.66045   0.01267  Uiso   1.00
N4     N     0.56930   0.41805   0.44691   0.01267  Uiso   1.00
N5     N     0.21182   0.88187   0.30345   0.01267  Uiso   1.00
N6     N     0.10430   0.07078   0.44428   0.01267  Uiso   1.00
N7     N     0.81702   0.66045   0.29079   0.01267  Uiso   1.00
N8     N     0.93070   0.44691   0.41805   0.01267  Uiso   1.00
N9     N     0.71182   0.69655   0.11813   0.01267  Uiso   1.00
N10    N     0.60430   0.55572   0.92922   0.01267  Uiso   1.00
N11    N     0.31702   0.70921   0.33955   0.01267  Uiso   1.00
N12    N     0.43070   0.58195   0.55309   0.01267  Uiso   1.00
N13    N     0.78818   0.11813   0.69655   0.01267  Uiso   1.00
N14    N     0.89570   0.92922   0.55572   0.01267  Uiso   1.00
N15    N     0.18298   0.33955   0.70921   0.01267  Uiso   1.00
N16    N     0.06930   0.55309   0.58195   0.01267  Uiso   1.00
O1     O     0.35398   0.21382   0.73504   0.01267  Uiso   1.00
O2     O     0.24707   0.15275   0.68425   0.01267  Uiso   1.00
O3     O     0.12279   0.21987   0.81583   0.01267  Uiso   1.00
O4     O     0.24113   0.13483   0.86117   0.01267  Uiso   1.00
O5     O     0.38220   0.37891   0.18007   0.01267  Uiso   1.00
O6     O     0.63980   0.52104   0.45270   0.01267  Uiso   1.00
O7     O     0.14602   0.73504   0.21382   0.01267  Uiso   1.00
O8     O     0.25293   0.68425   0.15275   0.01267  Uiso   1.00
O9     O     0.37721   0.81583   0.21987   0.01267  Uiso   1.00
O10    O     0.25887   0.86117   0.13483   0.01267  Uiso   1.00
O11    O     0.11780   0.18007   0.37891   0.01267  Uiso   1.00
O12    O     0.86020   0.45270   0.52104   0.01267  Uiso   1.00
O13    O     0.64602   0.78618   0.26496   0.01267  Uiso   1.00
O14    O     0.75293   0.84725   0.31575   0.01267  Uiso   1.00
O15    O     0.87721   0.78013   0.18417   0.01267  Uiso   1.00
O16    O     0.75887   0.86517   0.13883   0.01267  Uiso   1.00
O17    O     0.61780   0.62109   0.81993   0.01267  Uiso   1.00
O18    O     0.36020   0.47896   0.54730   0.01267  Uiso   1.00
O19    O     0.85398   0.26496   0.78618   0.01267  Uiso   1.00
O20    O     0.74707   0.31575   0.84725   0.01267  Uiso   1.00
O21    O     0.62279   0.18417   0.78013   0.01267  Uiso   1.00
O22    O     0.74113   0.13883   0.86517   0.01267  Uiso   1.00
O23    O     0.88220   0.81993   0.62109   0.01267  Uiso   1.00
O24    O     0.13980   0.54730   0.47896   0.01267  Uiso   1.00
