data_image0
_cell_length_a       9.417
_cell_length_b       15.289
_cell_length_c       16.75
_cell_angle_alpha    68.978
_cell_angle_beta     79.291
_cell_angle_gamma    89.359

_symmetry_space_group_name_H-M    "P 1"
_symmetry_int_tables_number       1

loop_
  _symmetry_equiv_pos_as_xyz
  'x, y, z'

loop_
  _atom_site_label
  _atom_site_occupancy
  _atom_site_fract_x
  _atom_site_fract_y
  _atom_site_fract_z
  _atom_site_thermal_displace_type
  _atom_site_B_iso_or_equiv
  _atom_site_type_symbol
  Pr1      1.0000 0.08383  0.17215  0.89228  Biso   1.000  Pr
  Pr2      1.0000 0.38327  0.23849  0.47817  Biso   1.000  Pr
  Pr3      1.0000 0.50094  0.32236  0.10905  Biso   1.000  Pr
  O1       1.0000 0.25060  0.19560  0.75320  Biso   1.000  O
  O2       1.0000 0.39250  0.23530  0.62360  Biso   1.000  O
  O3       1.0000 0.89130  0.21390  0.79670  Biso   1.000  O
  O4       1.0000 0.80510  0.12880  0.93530  Biso   1.000  O
  O5       1.0000 0.49210  0.84860  0.79570  Biso   1.000  O
  O6       1.0000 0.58980  0.82660  0.90930  Biso   1.000  O
  O7       1.0000 0.67230  0.47050  0.50500  Biso   1.000  O
  H1       1.0000 0.70360  0.51110  0.45720  Biso   1.000  H
  O8       1.0000 0.63300  0.59350  0.54400  Biso   1.000  O
  O9       1.0000 0.57300  0.53830  0.86180  Biso   1.000  O
  O10      1.0000 0.51670  0.39280  0.95690  Biso   1.000  O
  O11      1.0000 0.59910  0.31650  0.36710  Biso   1.000  O
  O12      1.0000 0.58390  0.30140  0.24270  Biso   1.000  O
  O13      1.0000 0.24580  0.27880  0.20770  Biso   1.000  O
  O14      1.0000 0.24780  0.36410  0.07120  Biso   1.000  O
  O15      1.0000 0.03200  0.67530  0.08730  Biso   1.000  O
  O16      1.0000 0.84960  0.65840  0.19500  Biso   1.000  O
  O17      1.0000 0.01370  0.10980  0.04450  Biso   1.000  O
  O18      1.0000 0.96410  0.96550  0.14090  Biso   1.000  O
  O19      1.0000 0.73520  0.90880  0.43900  Biso   1.000  O
  O20      1.0000 0.73470  0.01940  0.49550  Biso   1.000  O
  C1       1.0000 0.36540  0.19340  0.70450  Biso   1.000  C
  C2       1.0000 0.48160  0.13740  0.74990  Biso   1.000  C
  C3       1.0000 0.58330  0.17930  0.77830  Biso   1.000  C
  C4       1.0000 0.67480  0.11980  0.82930  Biso   1.000  C
  C5       1.0000 0.66100  0.02380  0.85130  Biso   1.000  C
  H2       1.0000 0.71730  0.98550  0.88840  Biso   1.000  H
  C6       1.0000 0.56430  0.98290  0.81890  Biso   1.000  C
  C7       1.0000 0.47540  0.04160  0.76740  Biso   1.000  C
  H3       1.0000 0.41110  0.01610  0.74440  Biso   1.000  H
  C8       1.0000 0.79450  0.15830  0.85500  Biso   1.000  C
  C9       1.0000 0.55140  0.87900  0.84320  Biso   1.000  C
  C10      1.0000 0.59030  0.28200  0.75870  Biso   1.000  C
  C11      1.0000 0.61250  0.34630  0.67220  Biso   1.000  C
  H4       1.0000 0.62550  0.32420  0.62650  Biso   1.000  H
  C12      1.0000 0.61530  0.44100  0.65440  Biso   1.000  C
  C13      1.0000 0.59660  0.47510  0.72210  Biso   1.000  C
  H5       1.0000 0.59780  0.53960  0.70940  Biso   1.000  H
  C14      1.0000 0.57630  0.41450  0.80800  Biso   1.000  C
  C15      1.0000 0.57370  0.31860  0.82590  Biso   1.000  C
  H6       1.0000 0.56070  0.27750  0.88360  Biso   1.000  H
  C16      1.0000 0.63950  0.50970  0.56350  Biso   1.000  C
  C17      1.0000 0.55460  0.45030  0.88080  Biso   1.000  C
  C18      1.0000 0.64900  0.32480  0.29120  Biso   1.000  C
  C19      1.0000 0.80120  0.36990  0.25000  Biso   1.000  C
  C20      1.0000 0.91860  0.32200  0.22410  Biso   1.000  C
  C21      1.0000 0.04820  0.37660  0.17540  Biso   1.000  C
  C22      1.0000 0.05370  0.47340  0.14980  Biso   1.000  C
  H7       1.0000 0.13630  0.50810  0.11290  Biso   1.000  H
  C23      1.0000 0.93870  0.52040  0.17790  Biso   1.000  C
  C24      1.0000 0.81220  0.46640  0.22910  Biso   1.000  C
  H8       1.0000 0.73430  0.49570  0.24930  Biso   1.000  H
  C25      1.0000 0.18690  0.33590  0.15020  Biso   1.000  C
  C26      1.0000 0.94280  0.62460  0.15120  Biso   1.000  C
  C27      1.0000 0.90530  0.21920  0.24350  Biso   1.000  C
  C28      1.0000 0.94700  0.18500  0.17720  Biso   1.000  C
  H9       1.0000 0.98630  0.22650  0.12140  Biso   1.000  H
  C29      1.0000 0.93110  0.08850  0.19280  Biso   1.000  C
  C30      1.0000 0.86910  0.02920  0.27600  Biso   1.000  C
  H10      1.0000 0.85670  0.96530  0.28730  Biso   1.000  H
  C31      1.0000 0.82570  0.06180  0.34170  Biso   1.000  C
  C32      1.0000 0.84590  0.15720  0.32620  Biso   1.000  C
  H11      1.0000 0.81930  0.17920  0.37160  Biso   1.000  H
  C33      1.0000 0.97190  0.05050  0.12130  Biso   1.000  C
  C34      1.0000 0.76040  0.99170  0.43330  Biso   1.000  C
  Pr4      1.0000 0.91617  0.82785  0.10772  Biso   1.000  Pr
  Pr5      1.0000 0.61673  0.76151  0.52183  Biso   1.000  Pr
  Pr6      1.0000 0.49906  0.67764  0.89095  Biso   1.000  Pr
  O21      1.0000 0.74940  0.80440  0.24680  Biso   1.000  O
  O22      1.0000 0.60750  0.76470  0.37640  Biso   1.000  O
  O23      1.0000 0.10870  0.78610  0.20330  Biso   1.000  O
  O24      1.0000 0.19490  0.87120  0.06470  Biso   1.000  O
  O25      1.0000 0.50790  0.15140  0.20430  Biso   1.000  O
  O26      1.0000 0.41020  0.17340  0.09070  Biso   1.000  O
  O27      1.0000 0.32770  0.52950  0.49500  Biso   1.000  O
  H12      1.0000 0.29640  0.48890  0.54280  Biso   1.000  H
  O28      1.0000 0.36700  0.40650  0.45600  Biso   1.000  O
  O29      1.0000 0.42700  0.46170  0.13820  Biso   1.000  O
  O30      1.0000 0.48330  0.60720  0.04310  Biso   1.000  O
  O31      1.0000 0.40090  0.68350  0.63290  Biso   1.000  O
  O32      1.0000 0.41610  0.69860  0.75730  Biso   1.000  O
  O33      1.0000 0.75420  0.72120  0.79230  Biso   1.000  O
  O34      1.0000 0.75220  0.63590  0.92880  Biso   1.000  O
  O35      1.0000 0.96800  0.32470  0.91270  Biso   1.000  O
  O36      1.0000 0.15040  0.34160  0.80500  Biso   1.000  O
  O37      1.0000 0.98630  0.89020  0.95550  Biso   1.000  O
  O38      1.0000 0.03590  0.03450  0.85910  Biso   1.000  O
  O39      1.0000 0.26480  0.09120  0.56100  Biso   1.000  O
  O40      1.0000 0.26530  0.98060  0.50450  Biso   1.000  O
  C35      1.0000 0.63460  0.80660  0.29550  Biso   1.000  C
  C36      1.0000 0.51840  0.86260  0.25010  Biso   1.000  C
  C37      1.0000 0.41670  0.82070  0.22170  Biso   1.000  C
  C38      1.0000 0.32520  0.88020  0.17070  Biso   1.000  C
  C39      1.0000 0.33900  0.97620  0.14870  Biso   1.000  C
  H13      1.0000 0.28270  0.01450  0.11160  Biso   1.000  H
  C40      1.0000 0.43570  0.01710  0.18110  Biso   1.000  C
  C41      1.0000 0.52460  0.95840  0.23260  Biso   1.000  C
  H14      1.0000 0.58890  0.98390  0.25560  Biso   1.000  H
  C42      1.0000 0.20550  0.84170  0.14500  Biso   1.000  C
  C43      1.0000 0.44860  0.12100  0.15680  Biso   1.000  C
  C44      1.0000 0.40970  0.71800  0.24130  Biso   1.000  C
  C45      1.0000 0.38750  0.65370  0.32780  Biso   1.000  C
  H15      1.0000 0.37450  0.67580  0.37350  Biso   1.000  H
  C46      1.0000 0.38470  0.55900  0.34560  Biso   1.000  C
  C47      1.0000 0.40340  0.52490  0.27790  Biso   1.000  C
  H16      1.0000 0.40220  0.46040  0.29060  Biso   1.000  H
  C48      1.0000 0.42370  0.58550  0.19200  Biso   1.000  C
  C49      1.0000 0.42630  0.68140  0.17410  Biso   1.000  C
  H17      1.0000 0.43930  0.72250  0.11640  Biso   1.000  H
  C50      1.0000 0.36050  0.49030  0.43650  Biso   1.000  C
  C51      1.0000 0.44540  0.54970  0.11920  Biso   1.000  C
  C52      1.0000 0.35100  0.67520  0.70880  Biso   1.000  C
  C53      1.0000 0.19880  0.63010  0.75000  Biso   1.000  C
  C54      1.0000 0.08140  0.67800  0.77590  Biso   1.000  C
  C55      1.0000 0.95180  0.62340  0.82460  Biso   1.000  C
  C56      1.0000 0.94630  0.52660  0.85020  Biso   1.000  C
  H18      1.0000 0.86370  0.49190  0.88710  Biso   1.000  H
  C57      1.0000 0.06130  0.47960  0.82210  Biso   1.000  C
  C58      1.0000 0.18780  0.53360  0.77090  Biso   1.000  C
  H19      1.0000 0.26570  0.50430  0.75070  Biso   1.000  H
  C59      1.0000 0.81310  0.66410  0.84980  Biso   1.000  C
  C60      1.0000 0.05720  0.37540  0.84880  Biso   1.000  C
  C61      1.0000 0.09470  0.78080  0.75650  Biso   1.000  C
  C62      1.0000 0.05300  0.81500  0.82280  Biso   1.000  C
  H20      1.0000 0.01370  0.77350  0.87860  Biso   1.000  H
  C63      1.0000 0.06890  0.91150  0.80720  Biso   1.000  C
  C64      1.0000 0.13090  0.97080  0.72400  Biso   1.000  C
  H21      1.0000 0.14330  0.03470  0.71270  Biso   1.000  H
  C65      1.0000 0.17430  0.93820  0.65830  Biso   1.000  C
  C66      1.0000 0.15410  0.84280  0.67380  Biso   1.000  C
  H22      1.0000 0.18070  0.82080  0.62840  Biso   1.000  H
  C67      1.0000 0.02810  0.94950  0.87870  Biso   1.000  C
  C68      1.0000 0.23960  0.00830  0.56670  Biso   1.000  C
