data_image0
_cell_length_a       9.398
_cell_length_b       15.307
_cell_length_c       16.751
_cell_angle_alpha    68.756
_cell_angle_beta     79.322
_cell_angle_gamma    89.276

_symmetry_space_group_name_H-M    "P 1"
_symmetry_int_tables_number       1

loop_
  _symmetry_equiv_pos_as_xyz
  'x, y, z'

loop_
  _atom_site_label
  _atom_site_occupancy
  _atom_site_fract_x
  _atom_site_fract_y
  _atom_site_fract_z
  _atom_site_thermal_displace_type
  _atom_site_B_iso_or_equiv
  _atom_site_type_symbol
  Nd1      1.0000 0.00058  0.82258  0.10912  Biso   1.000  Nd
  Nd2      1.0000 0.41556  0.32823  0.10791  Biso   1.000  Nd
  Nd3      1.0000 0.11638  0.26122  0.52165  Biso   1.000  Nd
  O1       1.0000 0.08220  0.80200  0.24240  Biso   1.000  O
  O2       1.0000 0.10020  0.81600  0.36790  Biso   1.000  O
  O3       1.0000 0.74840  0.86440  0.07110  Biso   1.000  O
  O4       1.0000 0.74740  0.77910  0.20850  Biso   1.000  O
  O5       1.0000 0.53280  0.17740  0.08640  Biso   1.000  O
  O6       1.0000 0.35010  0.15970  0.19440  Biso   1.000  O
  O7       1.0000 0.51410  0.60950  0.04550  Biso   1.000  O
  O8       1.0000 0.46300  0.46550  0.13990  Biso   1.000  O
  O9       1.0000 0.23650  0.40840  0.43930  Biso   1.000  O
  O10      1.0000 0.23190  0.51830  0.49530  Biso   1.000  O
  O11      1.0000 0.00920  0.65290  0.20370  Biso   1.000  O
  O12      1.0000 0.90730  0.67610  0.09070  Biso   1.000  O
  O13      1.0000 0.24890  0.30420  0.24710  Biso   1.000  O
  O14      1.0000 0.10620  0.26480  0.37620  Biso   1.000  O
  O15      1.0000 0.69150  0.37060  0.06500  Biso   1.000  O
  O16      1.0000 0.60720  0.28700  0.20290  Biso   1.000  O
  O17      1.0000 0.98430  0.10700  0.04320  Biso   1.000  O
  O18      1.0000 0.92850  0.96150  0.13900  Biso   1.000  O
  O19      1.0000 0.82430  0.02780  0.49560  Biso   1.000  O
  H1       1.0000 0.78720  0.98750  0.54250  Biso   1.000  H
  O20      1.0000 0.86850  0.90610  0.45600  Biso   1.000  O
  C1       1.0000 0.14940  0.82460  0.29110  Biso   1.000  C
  C2       1.0000 0.30050  0.87060  0.25050  Biso   1.000  C
  C3       1.0000 0.42030  0.82350  0.22450  Biso   1.000  C
  C4       1.0000 0.54790  0.87710  0.17530  Biso   1.000  C
  C5       1.0000 0.55460  0.97460  0.15070  Biso   1.000  C
  H2       1.0000 0.63840  0.00950  0.11540  Biso   1.000  H
  C6       1.0000 0.43930  0.01980  0.17790  Biso   1.000  C
  C7       1.0000 0.31130  0.96740  0.22970  Biso   1.000  C
  H3       1.0000 0.23400  0.99720  0.25000  Biso   1.000  H
  C8       1.0000 0.68710  0.83560  0.14960  Biso   1.000  C
  C9       1.0000 0.44380  0.12530  0.15100  Biso   1.000  C
  C10      1.0000 0.40510  0.71930  0.24340  Biso   1.000  C
  C11      1.0000 0.44860  0.68490  0.17660  Biso   1.000  C
  H4       1.0000 0.49000  0.72610  0.12090  Biso   1.000  H
  C12      1.0000 0.43060  0.58990  0.19240  Biso   1.000  C
  C13      1.0000 0.37030  0.52770  0.27680  Biso   1.000  C
  H5       1.0000 0.36020  0.46380  0.28780  Biso   1.000  H
  C14      1.0000 0.32580  0.56030  0.34350  Biso   1.000  C
  C15      1.0000 0.34460  0.65710  0.32720  Biso   1.000  C
  H6       1.0000 0.31670  0.67940  0.37230  Biso   1.000  H
  C16      1.0000 0.47270  0.55090  0.12080  Biso   1.000  C
  C17      1.0000 0.25970  0.49240  0.43350  Biso   1.000  C
  C18      1.0000 0.94850  0.62120  0.15810  Biso   1.000  C
  C19      1.0000 0.93480  0.51780  0.18050  Biso   1.000  C
  C20      1.0000 0.02340  0.45960  0.23240  Biso   1.000  C
  H7       1.0000 0.08750  0.48510  0.25530  Biso   1.000  H
  C21      1.0000 0.01700  0.36280  0.25030  Biso   1.000  C
  C22      1.0000 0.91520  0.32130  0.22160  Biso   1.000  C
  C23      1.0000 0.82440  0.38040  0.17050  Biso   1.000  C
  C24      1.0000 0.83790  0.47750  0.14820  Biso   1.000  C
  H8       1.0000 0.78130  0.51590  0.11110  Biso   1.000  H
  C25      1.0000 0.13310  0.30660  0.29490  Biso   1.000  C
  C26      1.0000 0.70190  0.34150  0.14450  Biso   1.000  C
  C27      1.0000 0.90810  0.21820  0.24140  Biso   1.000  C
  C28      1.0000 0.92450  0.18200  0.17430  Biso   1.000  C
  H9       1.0000 0.93770  0.22340  0.11660  Biso   1.000  H
  C29      1.0000 0.92150  0.08710  0.19210  Biso   1.000  C
  C30      1.0000 0.90160  0.02360  0.27860  Biso   1.000  C
  H10      1.0000 0.90070  0.95930  0.29110  Biso   1.000  H
  C31      1.0000 0.88360  0.05820  0.34470  Biso   1.000  C
  C32      1.0000 0.88630  0.15380  0.32740  Biso   1.000  C
  H11      1.0000 0.87340  0.17540  0.37340  Biso   1.000  H
  C33      1.0000 0.94570  0.04850  0.11890  Biso   1.000  C
  C34      1.0000 0.85900  0.98980  0.43830  Biso   1.000  C
  Nd4      1.0000 0.99942  0.17742  0.89088  Biso   1.000  Nd
  Nd5      1.0000 0.58444  0.67177  0.89209  Biso   1.000  Nd
  Nd6      1.0000 0.88362  0.73878  0.47835  Biso   1.000  Nd
  O21      1.0000 0.91780  0.19800  0.75760  Biso   1.000  O
  O22      1.0000 0.89980  0.18400  0.63210  Biso   1.000  O
  O23      1.0000 0.25160  0.13560  0.92890  Biso   1.000  O
  O24      1.0000 0.25260  0.22090  0.79150  Biso   1.000  O
  O25      1.0000 0.46720  0.82260  0.91360  Biso   1.000  O
  O26      1.0000 0.64990  0.84030  0.80560  Biso   1.000  O
  O27      1.0000 0.48590  0.39050  0.95450  Biso   1.000  O
  O28      1.0000 0.53700  0.53450  0.86010  Biso   1.000  O
  O29      1.0000 0.76350  0.59160  0.56070  Biso   1.000  O
  O30      1.0000 0.76810  0.48170  0.50470  Biso   1.000  O
  O31      1.0000 0.99080  0.34710  0.79630  Biso   1.000  O
  O32      1.0000 0.09270  0.32390  0.90930  Biso   1.000  O
  O33      1.0000 0.75110  0.69580  0.75290  Biso   1.000  O
  O34      1.0000 0.89380  0.73520  0.62380  Biso   1.000  O
  O35      1.0000 0.30850  0.62940  0.93500  Biso   1.000  O
  O36      1.0000 0.39280  0.71300  0.79710  Biso   1.000  O
  O37      1.0000 0.01570  0.89300  0.95680  Biso   1.000  O
  O38      1.0000 0.07150  0.03850  0.86100  Biso   1.000  O
  O39      1.0000 0.17570  0.97220  0.50440  Biso   1.000  O
  H12      1.0000 0.21280  0.01250  0.45750  Biso   1.000  H
  O40      1.0000 0.13150  0.09390  0.54400  Biso   1.000  O
  C35      1.0000 0.85060  0.17540  0.70890  Biso   1.000  C
  C36      1.0000 0.69950  0.12940  0.74950  Biso   1.000  C
  C37      1.0000 0.57970  0.17650  0.77550  Biso   1.000  C
  C38      1.0000 0.45210  0.12290  0.82470  Biso   1.000  C
  C39      1.0000 0.44540  0.02540  0.84930  Biso   1.000  C
  H13      1.0000 0.36160  0.99050  0.88460  Biso   1.000  H
  C40      1.0000 0.56070  0.98020  0.82210  Biso   1.000  C
  C41      1.0000 0.68870  0.03260  0.77030  Biso   1.000  C
  H14      1.0000 0.76600  0.00280  0.75000  Biso   1.000  H
  C42      1.0000 0.31290  0.16440  0.85040  Biso   1.000  C
  C43      1.0000 0.55620  0.87470  0.84900  Biso   1.000  C
  C44      1.0000 0.59490  0.28070  0.75660  Biso   1.000  C
  C45      1.0000 0.55140  0.31510  0.82340  Biso   1.000  C
  H15      1.0000 0.51000  0.27390  0.87910  Biso   1.000  H
  C46      1.0000 0.56940  0.41010  0.80760  Biso   1.000  C
  C47      1.0000 0.62970  0.47230  0.72320  Biso   1.000  C
  H16      1.0000 0.63980  0.53620  0.71220  Biso   1.000  H
  C48      1.0000 0.67420  0.43970  0.65650  Biso   1.000  C
  C49      1.0000 0.65540  0.34290  0.67280  Biso   1.000  C
  H17      1.0000 0.68330  0.32060  0.62770  Biso   1.000  H
  C50      1.0000 0.52730  0.44910  0.87920  Biso   1.000  C
  C51      1.0000 0.74030  0.50760  0.56650  Biso   1.000  C
  C52      1.0000 0.05150  0.37880  0.84190  Biso   1.000  C
  C53      1.0000 0.06520  0.48220  0.81950  Biso   1.000  C
  C54      1.0000 0.97660  0.54040  0.76760  Biso   1.000  C
  H18      1.0000 0.91250  0.51490  0.74470  Biso   1.000  H
  C55      1.0000 0.98300  0.63720  0.74970  Biso   1.000  C
  C56      1.0000 0.08480  0.67870  0.77840  Biso   1.000  C
  C57      1.0000 0.17560  0.61960  0.82950  Biso   1.000  C
  C58      1.0000 0.16210  0.52250  0.85180  Biso   1.000  C
  H19      1.0000 0.21870  0.48410  0.88890  Biso   1.000  H
  C59      1.0000 0.86690  0.69340  0.70510  Biso   1.000  C
  C60      1.0000 0.29810  0.65850  0.85550  Biso   1.000  C
  C61      1.0000 0.09190  0.78180  0.75860  Biso   1.000  C
  C62      1.0000 0.07550  0.81800  0.82570  Biso   1.000  C
  H20      1.0000 0.06230  0.77660  0.88340  Biso   1.000  H
  C63      1.0000 0.07850  0.91290  0.80790  Biso   1.000  C
  C64      1.0000 0.09840  0.97640  0.72140  Biso   1.000  C
  H21      1.0000 0.09930  0.04070  0.70890  Biso   1.000  H
  C65      1.0000 0.11640  0.94180  0.65530  Biso   1.000  C
  C66      1.0000 0.11370  0.84620  0.67260  Biso   1.000  C
  H22      1.0000 0.12660  0.82460  0.62660  Biso   1.000  H
  C67      1.0000 0.05430  0.95150  0.88110  Biso   1.000  C
  C68      1.0000 0.14100  0.01020  0.56170  Biso   1.000  C
