data_image0
_cell_length_a       18.4148
_cell_length_b       29.5574
_cell_length_c       16.3155
_cell_angle_alpha    90
_cell_angle_beta     119.269
_cell_angle_gamma    90

_symmetry_space_group_name_H-M    "P 1"
_symmetry_int_tables_number       1

loop_
  _symmetry_equiv_pos_as_xyz
  'x, y, z'

loop_
  _atom_site_label
  _atom_site_occupancy
  _atom_site_fract_x
  _atom_site_fract_y
  _atom_site_fract_z
  _atom_site_thermal_displace_type
  _atom_site_B_iso_or_equiv
  _atom_site_type_symbol
  Cd1      1.0000 0.09561  0.63063  0.13057  Biso   1.000  Cd
  O1       1.0000 0.09089  0.59639  0.24960  Biso   1.000  O
  O2       1.0000 0.06090  0.43044  0.53270  Biso   1.000  O
  O3       1.0000 0.95888  0.66197  0.08410  Biso   1.000  O
  O4       1.0000 0.70589  0.82704  0.72150  Biso   1.000  O
  O5       1.0000 0.36700  0.66394  0.17690  Biso   1.000  O
  O6       1.0000 0.55610  0.57734  0.36560  Biso   1.000  O
  O7       1.0000 0.21370  0.57013  0.27820  Biso   1.000  O
  O8       1.0000 0.18630  0.40501  0.57330  Biso   1.000  O
  O9       1.0000 0.62010  0.79523  0.76390  Biso   1.000  O
  O10      1.0000 0.45190  0.69354  0.13340  Biso   1.000  O
  O11      1.0000 0.02590  0.68179  0.00950  Biso   1.000  O
  C1       1.0000 0.20960  0.50320  0.39890  Biso   1.000  C
  H1       1.0000 0.25550  0.50360  0.38950  Biso   1.000  H
  O12      1.0000 0.42720  0.59182  0.32740  Biso   1.000  O
  C2       1.0000 0.33030  0.75673  0.01690  Biso   1.000  C
  H2       1.0000 0.38440  0.76140  0.02840  Biso   1.000  H
  C3       1.0000 0.75160  0.73994  0.89530  Biso   1.000  C
  H3       1.0000 0.70170  0.73920  0.89670  Biso   1.000  H
  C4       1.0000 0.20400  0.47028  0.45660  Biso   1.000  C
  H4       1.0000 0.24610  0.44890  0.48560  Biso   1.000  H
  C5       1.0000 0.81720  0.71284  0.95630  Biso   1.000  C
  H5       1.0000 0.81110  0.69410  0.99840  Biso   1.000  H
  C6       1.0000 0.68930  0.79872  0.76810  Biso   1.000  C
  C7       1.0000 0.89170  0.71338  0.95510  Biso   1.000  C
  C8       1.0000 0.07500  0.50120  0.42810  Biso   1.000  C
  H6       1.0000 0.02920  0.50060  0.43760  Biso   1.000  H
  C9       1.0000 0.43090  0.52751  0.45710  Biso   1.000  C
  H7       1.0000 0.38430  0.54610  0.42860  Biso   1.000  H
  C10      1.0000 0.14780  0.53542  0.35540  Biso   1.000  C
  C11      1.0000 0.13640  0.46928  0.47080  Biso   1.000  C
  C12      1.0000 0.15240  0.56989  0.29070  Biso   1.000  C
  C13      1.0000 0.49590  0.53374  0.43870  Biso   1.000  C
  C14      1.0000 0.89910  0.74086  0.89230  Biso   1.000  C
  H8       1.0000 0.94890  0.74120  0.89060  Biso   1.000  H
  C15      1.0000 0.23250  0.71572  0.04510  Biso   1.000  C
  H9       1.0000 0.22080  0.69270  0.07570  Biso   1.000  H
  C16      1.0000 0.31400  0.72205  0.06260  Biso   1.000  C
  C17      1.0000 0.56510  0.50590  0.48270  Biso   1.000  C
  H10      1.0000 0.60940  0.50990  0.47120  Biso   1.000  H
  C18      1.0000 0.75940  0.76793  0.83280  Biso   1.000  C
  C19      1.0000 0.83430  0.76811  0.83140  Biso   1.000  C
  H11      1.0000 0.84070  0.78670  0.78930  Biso   1.000  H
  C20      1.0000 0.38240  0.69154  0.12870  Biso   1.000  C
  C21      1.0000 0.08030  0.53405  0.37150  Biso   1.000  C
  H12      1.0000 0.03830  0.55550  0.34370  Biso   1.000  H
  C22      1.0000 0.96330  0.68374  0.02110  Biso   1.000  C
  C23      1.0000 0.12810  0.43241  0.53050  Biso   1.000  C
  C24      1.0000 0.49220  0.57014  0.37250  Biso   1.000  C
  Na1      1.0000 0.29578  0.61398  0.22518  Biso   1.000  Na
  Cd2      1.0000 0.59561  0.13063  0.13057  Biso   1.000  Cd
  O13      1.0000 0.59089  0.09639  0.24960  Biso   1.000  O
  O14      1.0000 0.56090  0.93044  0.53270  Biso   1.000  O
  O15      1.0000 0.45888  0.16197  0.08410  Biso   1.000  O
  O16      1.0000 0.20589  0.32704  0.72150  Biso   1.000  O
  O17      1.0000 0.86700  0.16394  0.17690  Biso   1.000  O
  O18      1.0000 0.05610  0.07734  0.36560  Biso   1.000  O
  O19      1.0000 0.71370  0.07013  0.27820  Biso   1.000  O
  O20      1.0000 0.68630  0.90501  0.57330  Biso   1.000  O
  O21      1.0000 0.12010  0.29523  0.76390  Biso   1.000  O
  O22      1.0000 0.95190  0.19354  0.13340  Biso   1.000  O
  O23      1.0000 0.52590  0.18179  0.00950  Biso   1.000  O
  C25      1.0000 0.70960  0.00320  0.39890  Biso   1.000  C
  H13      1.0000 0.75550  0.00360  0.38950  Biso   1.000  H
  O24      1.0000 0.92720  0.09182  0.32740  Biso   1.000  O
  C26      1.0000 0.83030  0.25673  0.01690  Biso   1.000  C
  H14      1.0000 0.88440  0.26140  0.02840  Biso   1.000  H
  C27      1.0000 0.25160  0.23994  0.89530  Biso   1.000  C
  H15      1.0000 0.20170  0.23920  0.89670  Biso   1.000  H
  C28      1.0000 0.70400  0.97028  0.45660  Biso   1.000  C
  H16      1.0000 0.74610  0.94890  0.48560  Biso   1.000  H
  C29      1.0000 0.31720  0.21284  0.95630  Biso   1.000  C
  H17      1.0000 0.31110  0.19410  0.99840  Biso   1.000  H
  C30      1.0000 0.18930  0.29872  0.76810  Biso   1.000  C
  C31      1.0000 0.39170  0.21338  0.95510  Biso   1.000  C
  C32      1.0000 0.57500  0.00120  0.42810  Biso   1.000  C
  H18      1.0000 0.52920  0.00060  0.43760  Biso   1.000  H
  C33      1.0000 0.93090  0.02751  0.45710  Biso   1.000  C
  H19      1.0000 0.88430  0.04610  0.42860  Biso   1.000  H
  C34      1.0000 0.64780  0.03542  0.35540  Biso   1.000  C
  C35      1.0000 0.63640  0.96928  0.47080  Biso   1.000  C
  C36      1.0000 0.65240  0.06989  0.29070  Biso   1.000  C
  C37      1.0000 0.99590  0.03374  0.43870  Biso   1.000  C
  C38      1.0000 0.39910  0.24086  0.89230  Biso   1.000  C
  H20      1.0000 0.44890  0.24120  0.89060  Biso   1.000  H
  C39      1.0000 0.73250  0.21572  0.04510  Biso   1.000  C
  H21      1.0000 0.72080  0.19270  0.07570  Biso   1.000  H
  C40      1.0000 0.81400  0.22205  0.06260  Biso   1.000  C
  C41      1.0000 0.06510  0.00590  0.48270  Biso   1.000  C
  H22      1.0000 0.10940  0.00990  0.47120  Biso   1.000  H
  C42      1.0000 0.25940  0.26793  0.83280  Biso   1.000  C
  C43      1.0000 0.33430  0.26811  0.83140  Biso   1.000  C
  H23      1.0000 0.34070  0.28670  0.78930  Biso   1.000  H
  C44      1.0000 0.88240  0.19154  0.12870  Biso   1.000  C
  C45      1.0000 0.58030  0.03405  0.37150  Biso   1.000  C
  H24      1.0000 0.53830  0.05550  0.34370  Biso   1.000  H
  C46      1.0000 0.46330  0.18374  0.02110  Biso   1.000  C
  C47      1.0000 0.62810  0.93241  0.53050  Biso   1.000  C
  C48      1.0000 0.99220  0.07014  0.37250  Biso   1.000  C
  Na2      1.0000 0.79578  0.11398  0.22518  Biso   1.000  Na
  Cd3      1.0000 0.90439  0.63063  0.36943  Biso   1.000  Cd
  O25      1.0000 0.90911  0.59639  0.25040  Biso   1.000  O
  O26      1.0000 0.93910  0.43044  0.96730  Biso   1.000  O
  O27      1.0000 0.04112  0.66197  0.41590  Biso   1.000  O
  O28      1.0000 0.29411  0.82704  0.77850  Biso   1.000  O
  O29      1.0000 0.63300  0.66394  0.32310  Biso   1.000  O
  O30      1.0000 0.44390  0.57734  0.13440  Biso   1.000  O
  O31      1.0000 0.78630  0.57013  0.22180  Biso   1.000  O
  O32      1.0000 0.81370  0.40501  0.92670  Biso   1.000  O
  O33      1.0000 0.37990  0.79523  0.73610  Biso   1.000  O
  O34      1.0000 0.54810  0.69354  0.36660  Biso   1.000  O
  O35      1.0000 0.97410  0.68179  0.49050  Biso   1.000  O
  C49      1.0000 0.79040  0.50320  0.10110  Biso   1.000  C
  H25      1.0000 0.74450  0.50360  0.11050  Biso   1.000  H
  O36      1.0000 0.57280  0.59182  0.17260  Biso   1.000  O
  C50      1.0000 0.66970  0.75673  0.48310  Biso   1.000  C
  H26      1.0000 0.61560  0.76140  0.47160  Biso   1.000  H
  C51      1.0000 0.24840  0.73994  0.60470  Biso   1.000  C
  H27      1.0000 0.29830  0.73920  0.60330  Biso   1.000  H
  C52      1.0000 0.79600  0.47028  0.04340  Biso   1.000  C
  H28      1.0000 0.75390  0.44890  0.01440  Biso   1.000  H
  C53      1.0000 0.18280  0.71284  0.54370  Biso   1.000  C
  H29      1.0000 0.18890  0.69410  0.50160  Biso   1.000  H
  C54      1.0000 0.31070  0.79872  0.73190  Biso   1.000  C
  C55      1.0000 0.10830  0.71338  0.54490  Biso   1.000  C
  C56      1.0000 0.92500  0.50120  0.07190  Biso   1.000  C
  H30      1.0000 0.97080  0.50060  0.06240  Biso   1.000  H
  C57      1.0000 0.56910  0.52751  0.04290  Biso   1.000  C
  H31      1.0000 0.61570  0.54610  0.07140  Biso   1.000  H
  C58      1.0000 0.85220  0.53542  0.14460  Biso   1.000  C
  C59      1.0000 0.86360  0.46928  0.02920  Biso   1.000  C
  C60      1.0000 0.84760  0.56989  0.20930  Biso   1.000  C
  C61      1.0000 0.50410  0.53374  0.06130  Biso   1.000  C
  C62      1.0000 0.10090  0.74086  0.60770  Biso   1.000  C
  H32      1.0000 0.05110  0.74120  0.60940  Biso   1.000  H
  C63      1.0000 0.76750  0.71572  0.45490  Biso   1.000  C
  H33      1.0000 0.77920  0.69270  0.42430  Biso   1.000  H
  C64      1.0000 0.68600  0.72205  0.43740  Biso   1.000  C
  C65      1.0000 0.43490  0.50590  0.01730  Biso   1.000  C
  H34      1.0000 0.39060  0.50990  0.02880  Biso   1.000  H
  C66      1.0000 0.24060  0.76793  0.66720  Biso   1.000  C
  C67      1.0000 0.16570  0.76811  0.66860  Biso   1.000  C
  H35      1.0000 0.15930  0.78670  0.71070  Biso   1.000  H
  C68      1.0000 0.61760  0.69154  0.37130  Biso   1.000  C
  C69      1.0000 0.91970  0.53405  0.12850  Biso   1.000  C
  H36      1.0000 0.96170  0.55550  0.15630  Biso   1.000  H
  C70      1.0000 0.03670  0.68374  0.47890  Biso   1.000  C
  C71      1.0000 0.87190  0.43241  0.96950  Biso   1.000  C
  C72      1.0000 0.50780  0.57014  0.12750  Biso   1.000  C
  Na3      1.0000 0.70422  0.61398  0.27482  Biso   1.000  Na
  Cd4      1.0000 0.40439  0.13063  0.36943  Biso   1.000  Cd
  O37      1.0000 0.40911  0.09639  0.25040  Biso   1.000  O
  O38      1.0000 0.43910  0.93044  0.96730  Biso   1.000  O
  O39      1.0000 0.54112  0.16197  0.41590  Biso   1.000  O
  O40      1.0000 0.79411  0.32704  0.77850  Biso   1.000  O
  O41      1.0000 0.13300  0.16394  0.32310  Biso   1.000  O
  O42      1.0000 0.94390  0.07734  0.13440  Biso   1.000  O
  O43      1.0000 0.28630  0.07013  0.22180  Biso   1.000  O
  O44      1.0000 0.31370  0.90501  0.92670  Biso   1.000  O
  O45      1.0000 0.87990  0.29523  0.73610  Biso   1.000  O
  O46      1.0000 0.04810  0.19354  0.36660  Biso   1.000  O
  O47      1.0000 0.47410  0.18179  0.49050  Biso   1.000  O
  C73      1.0000 0.29040  0.00320  0.10110  Biso   1.000  C
  H37      1.0000 0.24450  0.00360  0.11050  Biso   1.000  H
  O48      1.0000 0.07280  0.09182  0.17260  Biso   1.000  O
  C74      1.0000 0.16970  0.25673  0.48310  Biso   1.000  C
  H38      1.0000 0.11560  0.26140  0.47160  Biso   1.000  H
  C75      1.0000 0.74840  0.23994  0.60470  Biso   1.000  C
  H39      1.0000 0.79830  0.23920  0.60330  Biso   1.000  H
  C76      1.0000 0.29600  0.97028  0.04340  Biso   1.000  C
  H40      1.0000 0.25390  0.94890  0.01440  Biso   1.000  H
  C77      1.0000 0.68280  0.21284  0.54370  Biso   1.000  C
  H41      1.0000 0.68890  0.19410  0.50160  Biso   1.000  H
  C78      1.0000 0.81070  0.29872  0.73190  Biso   1.000  C
  C79      1.0000 0.60830  0.21338  0.54490  Biso   1.000  C
  C80      1.0000 0.42500  0.00120  0.07190  Biso   1.000  C
  H42      1.0000 0.47080  0.00060  0.06240  Biso   1.000  H
  C81      1.0000 0.06910  0.02751  0.04290  Biso   1.000  C
  H43      1.0000 0.11570  0.04610  0.07140  Biso   1.000  H
  C82      1.0000 0.35220  0.03542  0.14460  Biso   1.000  C
  C83      1.0000 0.36360  0.96928  0.02920  Biso   1.000  C
  C84      1.0000 0.34760  0.06989  0.20930  Biso   1.000  C
  C85      1.0000 0.00410  0.03374  0.06130  Biso   1.000  C
  C86      1.0000 0.60090  0.24086  0.60770  Biso   1.000  C
  H44      1.0000 0.55110  0.24120  0.60940  Biso   1.000  H
  C87      1.0000 0.26750  0.21572  0.45490  Biso   1.000  C
  H45      1.0000 0.27920  0.19270  0.42430  Biso   1.000  H
  C88      1.0000 0.18600  0.22205  0.43740  Biso   1.000  C
  C89      1.0000 0.93490  0.00590  0.01730  Biso   1.000  C
  H46      1.0000 0.89060  0.00990  0.02880  Biso   1.000  H
  C90      1.0000 0.74060  0.26793  0.66720  Biso   1.000  C
  C91      1.0000 0.66570  0.26811  0.66860  Biso   1.000  C
  H47      1.0000 0.65930  0.28670  0.71070  Biso   1.000  H
  C92      1.0000 0.11760  0.19154  0.37130  Biso   1.000  C
  C93      1.0000 0.41970  0.03405  0.12850  Biso   1.000  C
  H48      1.0000 0.46170  0.05550  0.15630  Biso   1.000  H
  C94      1.0000 0.53670  0.18374  0.47890  Biso   1.000  C
  C95      1.0000 0.37190  0.93241  0.96950  Biso   1.000  C
  C96      1.0000 0.00780  0.07014  0.12750  Biso   1.000  C
  Na4      1.0000 0.20422  0.11398  0.27482  Biso   1.000  Na
  Cd5      1.0000 0.90439  0.36937  0.86943  Biso   1.000  Cd
  O49      1.0000 0.90911  0.40361  0.75040  Biso   1.000  O
  O50      1.0000 0.93910  0.56956  0.46730  Biso   1.000  O
  O51      1.0000 0.04112  0.33803  0.91590  Biso   1.000  O
  O52      1.0000 0.29411  0.17296  0.27850  Biso   1.000  O
  O53      1.0000 0.63300  0.33606  0.82310  Biso   1.000  O
  O54      1.0000 0.44390  0.42266  0.63440  Biso   1.000  O
  O55      1.0000 0.78630  0.42987  0.72180  Biso   1.000  O
  O56      1.0000 0.81370  0.59499  0.42670  Biso   1.000  O
  O57      1.0000 0.37990  0.20477  0.23610  Biso   1.000  O
  O58      1.0000 0.54810  0.30646  0.86660  Biso   1.000  O
  O59      1.0000 0.97410  0.31821  0.99050  Biso   1.000  O
  C97      1.0000 0.79040  0.49680  0.60110  Biso   1.000  C
  H49      1.0000 0.74450  0.49640  0.61050  Biso   1.000  H
  O60      1.0000 0.57280  0.40818  0.67260  Biso   1.000  O
  C98      1.0000 0.66970  0.24327  0.98310  Biso   1.000  C
  H50      1.0000 0.61560  0.23860  0.97160  Biso   1.000  H
  C99      1.0000 0.24840  0.26006  0.10470  Biso   1.000  C
  H51      1.0000 0.29830  0.26080  0.10330  Biso   1.000  H
  C100     1.0000 0.79600  0.52972  0.54340  Biso   1.000  C
  H52      1.0000 0.75390  0.55110  0.51440  Biso   1.000  H
  C101     1.0000 0.18280  0.28716  0.04370  Biso   1.000  C
  H53      1.0000 0.18890  0.30590  0.00160  Biso   1.000  H
  C102     1.0000 0.31070  0.20128  0.23190  Biso   1.000  C
  C103     1.0000 0.10830  0.28662  0.04490  Biso   1.000  C
  C104     1.0000 0.92500  0.49880  0.57190  Biso   1.000  C
  H54      1.0000 0.97080  0.49940  0.56240  Biso   1.000  H
  C105     1.0000 0.56910  0.47249  0.54290  Biso   1.000  C
  H55      1.0000 0.61570  0.45390  0.57140  Biso   1.000  H
  C106     1.0000 0.85220  0.46458  0.64460  Biso   1.000  C
  C107     1.0000 0.86360  0.53072  0.52920  Biso   1.000  C
  C108     1.0000 0.84760  0.43011  0.70930  Biso   1.000  C
  C109     1.0000 0.50410  0.46626  0.56130  Biso   1.000  C
  C110     1.0000 0.10090  0.25914  0.10770  Biso   1.000  C
  H56      1.0000 0.05110  0.25880  0.10940  Biso   1.000  H
  C111     1.0000 0.76750  0.28428  0.95490  Biso   1.000  C
  H57      1.0000 0.77920  0.30730  0.92430  Biso   1.000  H
  C112     1.0000 0.68600  0.27795  0.93740  Biso   1.000  C
  C113     1.0000 0.43490  0.49410  0.51730  Biso   1.000  C
  H58      1.0000 0.39060  0.49010  0.52880  Biso   1.000  H
  C114     1.0000 0.24060  0.23207  0.16720  Biso   1.000  C
  C115     1.0000 0.16570  0.23189  0.16860  Biso   1.000  C
  H59      1.0000 0.15930  0.21330  0.21070  Biso   1.000  H
  C116     1.0000 0.61760  0.30846  0.87130  Biso   1.000  C
  C117     1.0000 0.91970  0.46595  0.62850  Biso   1.000  C
  H60      1.0000 0.96170  0.44450  0.65630  Biso   1.000  H
  C118     1.0000 0.03670  0.31626  0.97890  Biso   1.000  C
  C119     1.0000 0.87190  0.56759  0.46950  Biso   1.000  C
  C120     1.0000 0.50780  0.42986  0.62750  Biso   1.000  C
  Na5      1.0000 0.70422  0.38602  0.77482  Biso   1.000  Na
  Cd6      1.0000 0.40439  0.86937  0.86943  Biso   1.000  Cd
  O61      1.0000 0.40911  0.90361  0.75040  Biso   1.000  O
  O62      1.0000 0.43910  0.06956  0.46730  Biso   1.000  O
  O63      1.0000 0.54112  0.83803  0.91590  Biso   1.000  O
  O64      1.0000 0.79411  0.67296  0.27850  Biso   1.000  O
  O65      1.0000 0.13300  0.83606  0.82310  Biso   1.000  O
  O66      1.0000 0.94390  0.92266  0.63440  Biso   1.000  O
  O67      1.0000 0.28630  0.92987  0.72180  Biso   1.000  O
  O68      1.0000 0.31370  0.09499  0.42670  Biso   1.000  O
  O69      1.0000 0.87990  0.70477  0.23610  Biso   1.000  O
  O70      1.0000 0.04810  0.80646  0.86660  Biso   1.000  O
  O71      1.0000 0.47410  0.81821  0.99050  Biso   1.000  O
  C121     1.0000 0.29040  0.99680  0.60110  Biso   1.000  C
  H61      1.0000 0.24450  0.99640  0.61050  Biso   1.000  H
  O72      1.0000 0.07280  0.90818  0.67260  Biso   1.000  O
  C122     1.0000 0.16970  0.74327  0.98310  Biso   1.000  C
  H62      1.0000 0.11560  0.73860  0.97160  Biso   1.000  H
  C123     1.0000 0.74840  0.76006  0.10470  Biso   1.000  C
  H63      1.0000 0.79830  0.76080  0.10330  Biso   1.000  H
  C124     1.0000 0.29600  0.02972  0.54340  Biso   1.000  C
  H64      1.0000 0.25390  0.05110  0.51440  Biso   1.000  H
  C125     1.0000 0.68280  0.78716  0.04370  Biso   1.000  C
  H65      1.0000 0.68890  0.80590  0.00160  Biso   1.000  H
  C126     1.0000 0.81070  0.70128  0.23190  Biso   1.000  C
  C127     1.0000 0.60830  0.78662  0.04490  Biso   1.000  C
  C128     1.0000 0.42500  0.99880  0.57190  Biso   1.000  C
  H66      1.0000 0.47080  0.99940  0.56240  Biso   1.000  H
  C129     1.0000 0.06910  0.97249  0.54290  Biso   1.000  C
  H67      1.0000 0.11570  0.95390  0.57140  Biso   1.000  H
  C130     1.0000 0.35220  0.96458  0.64460  Biso   1.000  C
  C131     1.0000 0.36360  0.03072  0.52920  Biso   1.000  C
  C132     1.0000 0.34760  0.93011  0.70930  Biso   1.000  C
  C133     1.0000 0.00410  0.96626  0.56130  Biso   1.000  C
  C134     1.0000 0.60090  0.75914  0.10770  Biso   1.000  C
  H68      1.0000 0.55110  0.75880  0.10940  Biso   1.000  H
  C135     1.0000 0.26750  0.78428  0.95490  Biso   1.000  C
  H69      1.0000 0.27920  0.80730  0.92430  Biso   1.000  H
  C136     1.0000 0.18600  0.77795  0.93740  Biso   1.000  C
  C137     1.0000 0.93490  0.99410  0.51730  Biso   1.000  C
  H70      1.0000 0.89060  0.99010  0.52880  Biso   1.000  H
  C138     1.0000 0.74060  0.73207  0.16720  Biso   1.000  C
  C139     1.0000 0.66570  0.73189  0.16860  Biso   1.000  C
  H71      1.0000 0.65930  0.71330  0.21070  Biso   1.000  H
  C140     1.0000 0.11760  0.80846  0.87130  Biso   1.000  C
  C141     1.0000 0.41970  0.96595  0.62850  Biso   1.000  C
  H72      1.0000 0.46170  0.94450  0.65630  Biso   1.000  H
  C142     1.0000 0.53670  0.81626  0.97890  Biso   1.000  C
  C143     1.0000 0.37190  0.06759  0.46950  Biso   1.000  C
  C144     1.0000 0.00780  0.92986  0.62750  Biso   1.000  C
  Na6      1.0000 0.20422  0.88602  0.77482  Biso   1.000  Na
  Cd7      1.0000 0.09561  0.36937  0.63057  Biso   1.000  Cd
  O73      1.0000 0.09089  0.40361  0.74960  Biso   1.000  O
  O74      1.0000 0.06090  0.56956  0.03270  Biso   1.000  O
  O75      1.0000 0.95888  0.33803  0.58410  Biso   1.000  O
  O76      1.0000 0.70589  0.17296  0.22150  Biso   1.000  O
  O77      1.0000 0.36700  0.33606  0.67690  Biso   1.000  O
  O78      1.0000 0.55610  0.42266  0.86560  Biso   1.000  O
  O79      1.0000 0.21370  0.42987  0.77820  Biso   1.000  O
  O80      1.0000 0.18630  0.59499  0.07330  Biso   1.000  O
  O81      1.0000 0.62010  0.20477  0.26390  Biso   1.000  O
  O82      1.0000 0.45190  0.30646  0.63340  Biso   1.000  O
  O83      1.0000 0.02590  0.31821  0.50950  Biso   1.000  O
  C145     1.0000 0.20960  0.49680  0.89890  Biso   1.000  C
  H73      1.0000 0.25550  0.49640  0.88950  Biso   1.000  H
  O84      1.0000 0.42720  0.40818  0.82740  Biso   1.000  O
  C146     1.0000 0.33030  0.24327  0.51690  Biso   1.000  C
  H74      1.0000 0.38440  0.23860  0.52840  Biso   1.000  H
  C147     1.0000 0.75160  0.26006  0.39530  Biso   1.000  C
  H75      1.0000 0.70170  0.26080  0.39670  Biso   1.000  H
  C148     1.0000 0.20400  0.52972  0.95660  Biso   1.000  C
  H76      1.0000 0.24610  0.55110  0.98560  Biso   1.000  H
  C149     1.0000 0.81720  0.28716  0.45630  Biso   1.000  C
  H77      1.0000 0.81110  0.30590  0.49840  Biso   1.000  H
  C150     1.0000 0.68930  0.20128  0.26810  Biso   1.000  C
  C151     1.0000 0.89170  0.28662  0.45510  Biso   1.000  C
  C152     1.0000 0.07500  0.49880  0.92810  Biso   1.000  C
  H78      1.0000 0.02920  0.49940  0.93760  Biso   1.000  H
  C153     1.0000 0.43090  0.47249  0.95710  Biso   1.000  C
  H79      1.0000 0.38430  0.45390  0.92860  Biso   1.000  H
  C154     1.0000 0.14780  0.46458  0.85540  Biso   1.000  C
  C155     1.0000 0.13640  0.53072  0.97080  Biso   1.000  C
  C156     1.0000 0.15240  0.43011  0.79070  Biso   1.000  C
  C157     1.0000 0.49590  0.46626  0.93870  Biso   1.000  C
  C158     1.0000 0.89910  0.25914  0.39230  Biso   1.000  C
  H80      1.0000 0.94890  0.25880  0.39060  Biso   1.000  H
  C159     1.0000 0.23250  0.28428  0.54510  Biso   1.000  C
  H81      1.0000 0.22080  0.30730  0.57570  Biso   1.000  H
  C160     1.0000 0.31400  0.27795  0.56260  Biso   1.000  C
  C161     1.0000 0.56510  0.49410  0.98270  Biso   1.000  C
  H82      1.0000 0.60940  0.49010  0.97120  Biso   1.000  H
  C162     1.0000 0.75940  0.23207  0.33280  Biso   1.000  C
  C163     1.0000 0.83430  0.23189  0.33140  Biso   1.000  C
  H83      1.0000 0.84070  0.21330  0.28930  Biso   1.000  H
  C164     1.0000 0.38240  0.30846  0.62870  Biso   1.000  C
  C165     1.0000 0.08030  0.46595  0.87150  Biso   1.000  C
  H84      1.0000 0.03830  0.44450  0.84370  Biso   1.000  H
  C166     1.0000 0.96330  0.31626  0.52110  Biso   1.000  C
  C167     1.0000 0.12810  0.56759  0.03050  Biso   1.000  C
  C168     1.0000 0.49220  0.42986  0.87250  Biso   1.000  C
  Na7      1.0000 0.29578  0.38602  0.72518  Biso   1.000  Na
  Cd8      1.0000 0.59561  0.86937  0.63057  Biso   1.000  Cd
  O85      1.0000 0.59089  0.90361  0.74960  Biso   1.000  O
  O86      1.0000 0.56090  0.06956  0.03270  Biso   1.000  O
  O87      1.0000 0.45888  0.83803  0.58410  Biso   1.000  O
  O88      1.0000 0.20589  0.67296  0.22150  Biso   1.000  O
  O89      1.0000 0.86700  0.83606  0.67690  Biso   1.000  O
  O90      1.0000 0.05610  0.92266  0.86560  Biso   1.000  O
  O91      1.0000 0.71370  0.92987  0.77820  Biso   1.000  O
  O92      1.0000 0.68630  0.09499  0.07330  Biso   1.000  O
  O93      1.0000 0.12010  0.70477  0.26390  Biso   1.000  O
  O94      1.0000 0.95190  0.80646  0.63340  Biso   1.000  O
  O95      1.0000 0.52590  0.81821  0.50950  Biso   1.000  O
  C169     1.0000 0.70960  0.99680  0.89890  Biso   1.000  C
  H85      1.0000 0.75550  0.99640  0.88950  Biso   1.000  H
  O96      1.0000 0.92720  0.90818  0.82740  Biso   1.000  O
  C170     1.0000 0.83030  0.74327  0.51690  Biso   1.000  C
  H86      1.0000 0.88440  0.73860  0.52840  Biso   1.000  H
  C171     1.0000 0.25160  0.76006  0.39530  Biso   1.000  C
  H87      1.0000 0.20170  0.76080  0.39670  Biso   1.000  H
  C172     1.0000 0.70400  0.02972  0.95660  Biso   1.000  C
  H88      1.0000 0.74610  0.05110  0.98560  Biso   1.000  H
  C173     1.0000 0.31720  0.78716  0.45630  Biso   1.000  C
  H89      1.0000 0.31110  0.80590  0.49840  Biso   1.000  H
  C174     1.0000 0.18930  0.70128  0.26810  Biso   1.000  C
  C175     1.0000 0.39170  0.78662  0.45510  Biso   1.000  C
  C176     1.0000 0.57500  0.99880  0.92810  Biso   1.000  C
  H90      1.0000 0.52920  0.99940  0.93760  Biso   1.000  H
  C177     1.0000 0.93090  0.97249  0.95710  Biso   1.000  C
  H91      1.0000 0.88430  0.95390  0.92860  Biso   1.000  H
  C178     1.0000 0.64780  0.96458  0.85540  Biso   1.000  C
  C179     1.0000 0.63640  0.03072  0.97080  Biso   1.000  C
  C180     1.0000 0.65240  0.93011  0.79070  Biso   1.000  C
  C181     1.0000 0.99590  0.96626  0.93870  Biso   1.000  C
  C182     1.0000 0.39910  0.75914  0.39230  Biso   1.000  C
  H92      1.0000 0.44890  0.75880  0.39060  Biso   1.000  H
  C183     1.0000 0.73250  0.78428  0.54510  Biso   1.000  C
  H93      1.0000 0.72080  0.80730  0.57570  Biso   1.000  H
  C184     1.0000 0.81400  0.77795  0.56260  Biso   1.000  C
  C185     1.0000 0.06510  0.99410  0.98270  Biso   1.000  C
  H94      1.0000 0.10940  0.99010  0.97120  Biso   1.000  H
  C186     1.0000 0.25940  0.73207  0.33280  Biso   1.000  C
  C187     1.0000 0.33430  0.73189  0.33140  Biso   1.000  C
  H95      1.0000 0.34070  0.71330  0.28930  Biso   1.000  H
  C188     1.0000 0.88240  0.80846  0.62870  Biso   1.000  C
  C189     1.0000 0.58030  0.96595  0.87150  Biso   1.000  C
  H96      1.0000 0.53830  0.94450  0.84370  Biso   1.000  H
  C190     1.0000 0.46330  0.81626  0.52110  Biso   1.000  C
  C191     1.0000 0.62810  0.06759  0.03050  Biso   1.000  C
  C192     1.0000 0.99220  0.92986  0.87250  Biso   1.000  C
  Na8      1.0000 0.79578  0.88602  0.72518  Biso   1.000  Na
  Cd9      1.0000 0.50000  0.63254  0.25000  Biso   1.000  Cd
  Cd10     1.0000 0.00000  0.13254  0.25000  Biso   1.000  Cd
  Cd11     1.0000 0.50000  0.36746  0.75000  Biso   1.000  Cd
  Cd12     1.0000 0.00000  0.86746  0.75000  Biso   1.000  Cd
  Na9      1.0000 0.00000  0.65814  0.25000  Biso   1.000  Na
  Na10     1.0000 0.50000  0.15814  0.25000  Biso   1.000  Na
  Na11     1.0000 0.00000  0.34186  0.75000  Biso   1.000  Na
  Na12     1.0000 0.50000  0.84186  0.75000  Biso   1.000  Na
