data_image0
_cell_length_a       19.999
_cell_length_b       18.6284
_cell_length_c       35.123
_cell_angle_alpha    90
_cell_angle_beta     90
_cell_angle_gamma    90

_symmetry_space_group_name_H-M    "P 1"
_symmetry_int_tables_number       1

loop_
  _symmetry_equiv_pos_as_xyz
  'x, y, z'

loop_
  _atom_site_label
  _atom_site_occupancy
  _atom_site_fract_x
  _atom_site_fract_y
  _atom_site_fract_z
  _atom_site_thermal_displace_type
  _atom_site_B_iso_or_equiv
  _atom_site_type_symbol
  C1       1.0000 0.72090  0.34110  0.67700  Biso   1.000  C
  C2       1.0000 0.68300  0.41120  0.67800  Biso   1.000  C
  C3       1.0000 0.97330  0.26850  0.62890  Biso   1.000  C
  C4       1.0000 0.67900  0.44920  0.71160  Biso   1.000  C
  H1       1.0000 0.69980  0.43100  0.73320  Biso   1.000  H
  C5       1.0000 0.64480  0.51400  0.71420  Biso   1.000  C
  H2       1.0000 0.64230  0.53890  0.73710  Biso   1.000  H
  C6       1.0000 0.61370  0.54100  0.68080  Biso   1.000  C
  C7       1.0000 0.61950  0.50420  0.64700  Biso   1.000  C
  H3       1.0000 0.60070  0.52310  0.62500  Biso   1.000  H
  C8       1.0000 0.65270  0.43980  0.64560  Biso   1.000  C
  H4       1.0000 0.65500  0.41490  0.62270  Biso   1.000  H
  C9       1.0000 0.57220  0.60870  0.68300  Biso   1.000  C
  C10      1.0000 0.73540  0.10900  0.66670  Biso   1.000  C
  C11      1.0000 0.69880  0.03740  0.67030  Biso   1.000  C
  C12      1.0000 0.69150  0.99120  0.63950  Biso   1.000  C
  H5       1.0000 0.71120  0.00240  0.61630  Biso   1.000  H
  C13      1.0000 0.65530  0.92900  0.64350  Biso   1.000  C
  H6       1.0000 0.64860  0.89920  0.62260  Biso   1.000  H
  C14      1.0000 0.62860  0.91040  0.67870  Biso   1.000  C
  C15      1.0000 0.63550  0.95540  0.70970  Biso   1.000  C
  H7       1.0000 0.61640  0.94340  0.73300  Biso   1.000  H
  C16      1.0000 0.67070  0.01750  0.70570  Biso   1.000  C
  H8       1.0000 0.67630  0.04750  0.72660  Biso   1.000  H
  C17      1.0000 0.59080  0.84040  0.68280  Biso   1.000  C
  C18      1.0000 0.83340  0.14020  0.52710  Biso   1.000  C
  C19      1.0000 0.86650  0.06670  0.53000  Biso   1.000  C
  C20      1.0000 0.88820  0.03300  0.49700  Biso   1.000  C
  H9       1.0000 0.87950  0.05290  0.47330  Biso   1.000  H
  C21      1.0000 0.92360  0.96850  0.50020  Biso   1.000  C
  H10      1.0000 0.94120  0.94700  0.47850  Biso   1.000  H
  C22      1.0000 0.93230  0.93670  0.53490  Biso   1.000  C
  C23      1.0000 0.90870  0.96680  0.56600  Biso   1.000  C
  H11      1.0000 0.91330  0.94370  0.58940  Biso   1.000  H
  C24      1.0000 0.87580  0.03520  0.56410  Biso   1.000  C
  H12      1.0000 0.86100  0.05760  0.58620  Biso   1.000  H
  C25      1.0000 0.96940  0.86670  0.53880  Biso   1.000  C
  C26      1.0000 0.68530  0.25620  0.43640  Biso   1.000  C
  C27      1.0000 0.65370  0.25700  0.39660  Biso   1.000  C
  C28      1.0000 0.59650  0.21900  0.39170  Biso   1.000  C
  H13      1.0000 0.57680  0.19440  0.41190  Biso   1.000  H
  C29      1.0000 0.56770  0.21790  0.35480  Biso   1.000  C
  H14      1.0000 0.53240  0.18720  0.34920  Biso   1.000  H
  C30      1.0000 0.59360  0.26450  0.32630  Biso   1.000  C
  C31      1.0000 0.64600  0.30540  0.33450  Biso   1.000  C
  H15      1.0000 0.66140  0.33810  0.31650  Biso   1.000  H
  C32      1.0000 0.67810  0.30020  0.36910  Biso   1.000  C
  H16      1.0000 0.71670  0.32670  0.37350  Biso   1.000  H
  C33      1.0000 0.55670  0.26530  0.28840  Biso   1.000  C
  C34      1.0000 0.82580  0.36850  0.54870  Biso   1.000  C
  C35      1.0000 0.86000  0.43940  0.55230  Biso   1.000  C
  C36      1.0000 0.87400  0.47210  0.58910  Biso   1.000  C
  H17      1.0000 0.86030  0.44930  0.61140  Biso   1.000  H
  C37      1.0000 0.90780  0.53730  0.59110  Biso   1.000  C
  H18      1.0000 0.91770  0.55780  0.61460  Biso   1.000  H
  C38      1.0000 0.92550  0.56950  0.55940  Biso   1.000  C
  C39      1.0000 0.91260  0.54170  0.52340  Biso   1.000  C
  H19      1.0000 0.92530  0.56770  0.50190  Biso   1.000  H
  C40      1.0000 0.88140  0.47670  0.51900  Biso   1.000  C
  H20      1.0000 0.87430  0.45740  0.49490  Biso   1.000  H
  C41      1.0000 0.96340  0.64190  0.56170  Biso   1.000  C
  C42      1.0000 0.91770  0.27310  0.65710  Biso   1.000  C
  C43      1.0000 0.03050  0.31250  0.63170  Biso   1.000  C
  H21      1.0000 0.03190  0.34820  0.65020  Biso   1.000  H
  C44      1.0000 0.08340  0.30390  0.60790  Biso   1.000  C
  H22      1.0000 0.11930  0.33560  0.60930  Biso   1.000  H
  C45      1.0000 0.02650  0.20010  0.57710  Biso   1.000  C
  H23      1.0000 0.02600  0.16410  0.55880  Biso   1.000  H
  C46      1.0000 0.97180  0.20970  0.60110  Biso   1.000  C
  H24      1.0000 0.93500  0.17940  0.59950  Biso   1.000  H
  C47      1.0000 0.08450  0.24670  0.58090  Biso   1.000  C
  C48      1.0000 0.14310  0.23570  0.55530  Biso   1.000  C
  C49      1.0000 0.16070  0.73570  0.57150  Biso   1.000  C
  C50      1.0000 0.21890  0.74930  0.59730  Biso   1.000  C
  C51      1.0000 0.22060  0.79930  0.62240  Biso   1.000  C
  H25      1.0000 0.18350  0.82880  0.62550  Biso   1.000  H
  C52      1.0000 0.27830  0.81070  0.64570  Biso   1.000  C
  H26      1.0000 0.28050  0.85050  0.66160  Biso   1.000  H
  C53      1.0000 0.32860  0.76440  0.64460  Biso   1.000  C
  C54      1.0000 0.32880  0.70680  0.61820  Biso   1.000  C
  H27      1.0000 0.36540  0.67620  0.61660  Biso   1.000  H
  C55      1.0000 0.27420  0.69680  0.59520  Biso   1.000  C
  H28      1.0000 0.27210  0.65800  0.57860  Biso   1.000  H
  C56      1.0000 0.38780  0.77070  0.67120  Biso   1.000  C
  C57      1.0000 0.11210  0.73870  0.44890  Biso   1.000  C
  C58      1.0000 0.13590  0.74120  0.40710  Biso   1.000  C
  C59      1.0000 0.18460  0.78460  0.39550  Biso   1.000  C
  H29      1.0000 0.20780  0.81160  0.41340  Biso   1.000  H
  C60      1.0000 0.20190  0.79070  0.35650  Biso   1.000  C
  H30      1.0000 0.23540  0.82170  0.34850  Biso   1.000  H
  C61      1.0000 0.16750  0.74930  0.33140  Biso   1.000  C
  C62      1.0000 0.11730  0.69920  0.34460  Biso   1.000  C
  H31      1.0000 0.09540  0.66880  0.32770  Biso   1.000  H
  C63      1.0000 0.10340  0.69780  0.38160  Biso   1.000  C
  H32      1.0000 0.07080  0.66640  0.39050  Biso   1.000  H
  C64      1.0000 0.18070  0.75830  0.28940  Biso   1.000  C
  Ca1      1.0000 0.77774  0.23396  0.60644  Biso   1.000  Ca
  Cd1      1.0000 0.81886  0.22973  0.71112  Biso   1.000  Cd
  O1       1.0000 0.75200  0.32390  0.70580  Biso   1.000  O
  Ca2      1.0000 0.01954  0.77118  0.61684  Biso   1.000  Ca
  Cd2      1.0000 0.74735  0.25795  0.50412  Biso   1.000  Cd
  O2       1.0000 0.71630  0.30410  0.64730  Biso   1.000  O
  Cd3      1.0000 0.06044  0.74530  0.51810  Biso   1.000  Cd
  O3       1.0000 0.56440  0.63850  0.71540  Biso   1.000  O
  Cd4      1.0000 0.49941  0.73430  0.71908  Biso   1.000  Cd
  O4       1.0000 0.55090  0.63270  0.65220  Biso   1.000  O
  O5       1.0000 0.74620  0.14350  0.69740  Biso   1.000  O
  O6       1.0000 0.75130  0.12620  0.63360  Biso   1.000  O
  O7       1.0000 0.56500  0.82800  0.71510  Biso   1.000  O
  O8       1.0000 0.58370  0.79840  0.65380  Biso   1.000  O
  O9       1.0000 0.82950  0.17650  0.55710  Biso   1.000  O
  O10      1.0000 0.81060  0.15830  0.49630  Biso   1.000  O
  O11      1.0000 0.97090  0.83730  0.57010  Biso   1.000  O
  O12      1.0000 0.00080  0.84390  0.50860  Biso   1.000  O
  O13      1.0000 0.73240  0.30020  0.44280  Biso   1.000  O
  O14      1.0000 0.66950  0.20820  0.45960  Biso   1.000  O
  O15      1.0000 0.57610  0.31240  0.26490  Biso   1.000  O
  O16      1.0000 0.51160  0.22260  0.28070  Biso   1.000  O
  O17      1.0000 0.81380  0.34680  0.51550  Biso   1.000  O
  O18      1.0000 0.80780  0.33790  0.57880  Biso   1.000  O
  O19      1.0000 0.97390  0.66850  0.59190  Biso   1.000  O
  O20      1.0000 0.98600  0.66400  0.53020  Biso   1.000  O
  O21      1.0000 0.86420  0.23910  0.65010  Biso   1.000  O
  O22      1.0000 0.92620  0.30780  0.68520  Biso   1.000  O
  O23      1.0000 0.14080  0.18910  0.53100  Biso   1.000  O
  O24      1.0000 0.19300  0.27530  0.55930  Biso   1.000  O
  O25      1.0000 0.15970  0.68650  0.54720  Biso   1.000  O
  O26      1.0000 0.11160  0.78240  0.57430  Biso   1.000  O
  O27      1.0000 0.43660  0.72830  0.66520  Biso   1.000  O
  O28      1.0000 0.38430  0.81160  0.69920  Biso   1.000  O
  O29      1.0000 0.07130  0.69140  0.45850  Biso   1.000  O
  O30      1.0000 0.13700  0.78340  0.47110  Biso   1.000  O
  O31      1.0000 0.14340  0.72400  0.26640  Biso   1.000  O
  O32      1.0000 0.22660  0.79840  0.27760  Biso   1.000  O
  C65      1.0000 0.27910  0.65890  0.17700  Biso   1.000  C
  C66      1.0000 0.31700  0.58880  0.17800  Biso   1.000  C
  C67      1.0000 0.02670  0.73150  0.12890  Biso   1.000  C
  C68      1.0000 0.32100  0.55080  0.21160  Biso   1.000  C
  H33      1.0000 0.30020  0.56900  0.23320  Biso   1.000  H
  C69      1.0000 0.35520  0.48600  0.21420  Biso   1.000  C
  H34      1.0000 0.35770  0.46110  0.23710  Biso   1.000  H
  C70      1.0000 0.38630  0.45900  0.18080  Biso   1.000  C
  C71      1.0000 0.38050  0.49580  0.14700  Biso   1.000  C
  H35      1.0000 0.39930  0.47690  0.12500  Biso   1.000  H
  C72      1.0000 0.34730  0.56020  0.14560  Biso   1.000  C
  H36      1.0000 0.34500  0.58510  0.12270  Biso   1.000  H
  C73      1.0000 0.42780  0.39130  0.18300  Biso   1.000  C
  C74      1.0000 0.26460  0.89100  0.16670  Biso   1.000  C
  C75      1.0000 0.30120  0.96260  0.17030  Biso   1.000  C
  C76      1.0000 0.30850  0.00880  0.13950  Biso   1.000  C
  H37      1.0000 0.28880  0.99760  0.11630  Biso   1.000  H
  C77      1.0000 0.34470  0.07100  0.14350  Biso   1.000  C
  H38      1.0000 0.35140  0.10080  0.12260  Biso   1.000  H
  C78      1.0000 0.37140  0.08960  0.17870  Biso   1.000  C
  C79      1.0000 0.36450  0.04460  0.20970  Biso   1.000  C
  H39      1.0000 0.38360  0.05660  0.23300  Biso   1.000  H
  C80      1.0000 0.32930  0.98250  0.20570  Biso   1.000  C
  H40      1.0000 0.32370  0.95250  0.22660  Biso   1.000  H
  C81      1.0000 0.40920  0.15960  0.18280  Biso   1.000  C
  C82      1.0000 0.16660  0.85980  0.02710  Biso   1.000  C
  C83      1.0000 0.13350  0.93330  0.03000  Biso   1.000  C
  C84      1.0000 0.11180  0.96700  0.99700  Biso   1.000  C
  H41      1.0000 0.12050  0.94710  0.97330  Biso   1.000  H
  C85      1.0000 0.07640  0.03150  0.00020  Biso   1.000  C
  H42      1.0000 0.05880  0.05300  0.97850  Biso   1.000  H
  C86      1.0000 0.06770  0.06330  0.03490  Biso   1.000  C
  C87      1.0000 0.09130  0.03320  0.06600  Biso   1.000  C
  H43      1.0000 0.08670  0.05630  0.08940  Biso   1.000  H
  C88      1.0000 0.12420  0.96480  0.06410  Biso   1.000  C
  H44      1.0000 0.13900  0.94240  0.08620  Biso   1.000  H
  C89      1.0000 0.03060  0.13330  0.03880  Biso   1.000  C
  C90      1.0000 0.31470  0.74380  0.93640  Biso   1.000  C
  C91      1.0000 0.34630  0.74300  0.89660  Biso   1.000  C
  C92      1.0000 0.40350  0.78100  0.89170  Biso   1.000  C
  H45      1.0000 0.42320  0.80560  0.91190  Biso   1.000  H
  C93      1.0000 0.43230  0.78210  0.85480  Biso   1.000  C
  H46      1.0000 0.46760  0.81280  0.84920  Biso   1.000  H
  C94      1.0000 0.40640  0.73550  0.82630  Biso   1.000  C
  C95      1.0000 0.35400  0.69460  0.83450  Biso   1.000  C
  H47      1.0000 0.33860  0.66190  0.81650  Biso   1.000  H
  C96      1.0000 0.32190  0.69980  0.86910  Biso   1.000  C
  H48      1.0000 0.28330  0.67330  0.87350  Biso   1.000  H
  C97      1.0000 0.44330  0.73470  0.78840  Biso   1.000  C
  C98      1.0000 0.17420  0.63150  0.04870  Biso   1.000  C
  C99      1.0000 0.14000  0.56060  0.05230  Biso   1.000  C
  C100     1.0000 0.12600  0.52790  0.08910  Biso   1.000  C
  H49      1.0000 0.13970  0.55070  0.11140  Biso   1.000  H
  C101     1.0000 0.09220  0.46270  0.09110  Biso   1.000  C
  H50      1.0000 0.08230  0.44220  0.11460  Biso   1.000  H
  C102     1.0000 0.07450  0.43050  0.05940  Biso   1.000  C
  C103     1.0000 0.08740  0.45830  0.02340  Biso   1.000  C
  H51      1.0000 0.07470  0.43230  0.00190  Biso   1.000  H
  C104     1.0000 0.11860  0.52330  0.01900  Biso   1.000  C
  H52      1.0000 0.12570  0.54260  0.99490  Biso   1.000  H
  C105     1.0000 0.03660  0.35810  0.06170  Biso   1.000  C
  C106     1.0000 0.08230  0.72690  0.15710  Biso   1.000  C
  C107     1.0000 0.96950  0.68750  0.13170  Biso   1.000  C
  H53      1.0000 0.96810  0.65180  0.15020  Biso   1.000  H
  C108     1.0000 0.91660  0.69610  0.10790  Biso   1.000  C
  H54      1.0000 0.88070  0.66440  0.10930  Biso   1.000  H
  C109     1.0000 0.97350  0.79990  0.07710  Biso   1.000  C
  H55      1.0000 0.97400  0.83590  0.05880  Biso   1.000  H
  C110     1.0000 0.02820  0.79030  0.10110  Biso   1.000  C
  H56      1.0000 0.06500  0.82060  0.09950  Biso   1.000  H
  C111     1.0000 0.91550  0.75330  0.08090  Biso   1.000  C
  C112     1.0000 0.85690  0.76430  0.05530  Biso   1.000  C
  C113     1.0000 0.83930  0.26430  0.07150  Biso   1.000  C
  C114     1.0000 0.78110  0.25070  0.09730  Biso   1.000  C
  C115     1.0000 0.77940  0.20070  0.12240  Biso   1.000  C
  H57      1.0000 0.81650  0.17120  0.12550  Biso   1.000  H
  C116     1.0000 0.72170  0.18930  0.14570  Biso   1.000  C
  H58      1.0000 0.71950  0.14950  0.16160  Biso   1.000  H
  C117     1.0000 0.67140  0.23560  0.14460  Biso   1.000  C
  C118     1.0000 0.67120  0.29320  0.11820  Biso   1.000  C
  H59      1.0000 0.63460  0.32380  0.11660  Biso   1.000  H
  C119     1.0000 0.72580  0.30320  0.09520  Biso   1.000  C
  H60      1.0000 0.72790  0.34200  0.07860  Biso   1.000  H
  C120     1.0000 0.61220  0.22930  0.17120  Biso   1.000  C
  C121     1.0000 0.88790  0.26130  0.94890  Biso   1.000  C
  C122     1.0000 0.86410  0.25880  0.90710  Biso   1.000  C
  C123     1.0000 0.81540  0.21540  0.89550  Biso   1.000  C
  H61      1.0000 0.79220  0.18840  0.91340  Biso   1.000  H
  C124     1.0000 0.79810  0.20930  0.85650  Biso   1.000  C
  H62      1.0000 0.76460  0.17830  0.84850  Biso   1.000  H
  C125     1.0000 0.83250  0.25070  0.83140  Biso   1.000  C
  C126     1.0000 0.88270  0.30080  0.84460  Biso   1.000  C
  H63      1.0000 0.90460  0.33120  0.82770  Biso   1.000  H
  C127     1.0000 0.89660  0.30220  0.88160  Biso   1.000  C
  H64      1.0000 0.92920  0.33360  0.89050  Biso   1.000  H
  C128     1.0000 0.81930  0.24170  0.78940  Biso   1.000  C
  Ca3      1.0000 0.22226  0.76604  0.10644  Biso   1.000  Ca
  Cd5      1.0000 0.18114  0.77027  0.21112  Biso   1.000  Cd
  O33      1.0000 0.24800  0.67610  0.20580  Biso   1.000  O
  Ca4      1.0000 0.98046  0.22882  0.11684  Biso   1.000  Ca
  Cd6      1.0000 0.25265  0.74205  0.00412  Biso   1.000  Cd
  O34      1.0000 0.28370  0.69590  0.14730  Biso   1.000  O
  Cd7      1.0000 0.93956  0.25470  0.01810  Biso   1.000  Cd
  O35      1.0000 0.43560  0.36150  0.21540  Biso   1.000  O
  Cd8      1.0000 0.50059  0.26570  0.21908  Biso   1.000  Cd
  O36      1.0000 0.44910  0.36730  0.15220  Biso   1.000  O
  O37      1.0000 0.25380  0.85650  0.19740  Biso   1.000  O
  O38      1.0000 0.24870  0.87380  0.13360  Biso   1.000  O
  O39      1.0000 0.43500  0.17200  0.21510  Biso   1.000  O
  O40      1.0000 0.41630  0.20160  0.15380  Biso   1.000  O
  O41      1.0000 0.17050  0.82350  0.05710  Biso   1.000  O
  O42      1.0000 0.18940  0.84170  0.99630  Biso   1.000  O
  O43      1.0000 0.02910  0.16270  0.07010  Biso   1.000  O
  O44      1.0000 0.99920  0.15610  0.00860  Biso   1.000  O
  O45      1.0000 0.26760  0.69980  0.94280  Biso   1.000  O
  O46      1.0000 0.33050  0.79180  0.95960  Biso   1.000  O
  O47      1.0000 0.42390  0.68760  0.76490  Biso   1.000  O
  O48      1.0000 0.48840  0.77740  0.78070  Biso   1.000  O
  O49      1.0000 0.18620  0.65320  0.01550  Biso   1.000  O
  O50      1.0000 0.19220  0.66210  0.07880  Biso   1.000  O
  O51      1.0000 0.02610  0.33150  0.09190  Biso   1.000  O
  O52      1.0000 0.01400  0.33600  0.03020  Biso   1.000  O
  O53      1.0000 0.13580  0.76090  0.15010  Biso   1.000  O
  O54      1.0000 0.07380  0.69220  0.18520  Biso   1.000  O
  O55      1.0000 0.85920  0.81090  0.03100  Biso   1.000  O
  O56      1.0000 0.80700  0.72470  0.05930  Biso   1.000  O
  O57      1.0000 0.84030  0.31350  0.04720  Biso   1.000  O
  O58      1.0000 0.88840  0.21760  0.07430  Biso   1.000  O
  O59      1.0000 0.56340  0.27170  0.16520  Biso   1.000  O
  O60      1.0000 0.61570  0.18840  0.19920  Biso   1.000  O
  O61      1.0000 0.92870  0.30860  0.95850  Biso   1.000  O
  O62      1.0000 0.86300  0.21660  0.97110  Biso   1.000  O
  O63      1.0000 0.85660  0.27600  0.76640  Biso   1.000  O
  O64      1.0000 0.77340  0.20160  0.77760  Biso   1.000  O
  C129     1.0000 0.22090  0.15890  0.67700  Biso   1.000  C
  C130     1.0000 0.18300  0.08880  0.67800  Biso   1.000  C
  C131     1.0000 0.47330  0.23150  0.62890  Biso   1.000  C
  C132     1.0000 0.17900  0.05080  0.71160  Biso   1.000  C
  H65      1.0000 0.19980  0.06900  0.73320  Biso   1.000  H
  C133     1.0000 0.14480  0.98600  0.71420  Biso   1.000  C
  H66      1.0000 0.14230  0.96110  0.73710  Biso   1.000  H
  C134     1.0000 0.11370  0.95900  0.68080  Biso   1.000  C
  C135     1.0000 0.11950  0.99580  0.64700  Biso   1.000  C
  H67      1.0000 0.10070  0.97690  0.62500  Biso   1.000  H
  C136     1.0000 0.15270  0.06020  0.64560  Biso   1.000  C
  H68      1.0000 0.15500  0.08510  0.62270  Biso   1.000  H
  C137     1.0000 0.07220  0.89130  0.68300  Biso   1.000  C
  C138     1.0000 0.23540  0.39100  0.66670  Biso   1.000  C
  C139     1.0000 0.19880  0.46260  0.67030  Biso   1.000  C
  C140     1.0000 0.19150  0.50880  0.63950  Biso   1.000  C
  H69      1.0000 0.21120  0.49760  0.61630  Biso   1.000  H
  C141     1.0000 0.15530  0.57100  0.64350  Biso   1.000  C
  H70      1.0000 0.14860  0.60080  0.62260  Biso   1.000  H
  C142     1.0000 0.12860  0.58960  0.67870  Biso   1.000  C
  C143     1.0000 0.13550  0.54460  0.70970  Biso   1.000  C
  H71      1.0000 0.11640  0.55660  0.73300  Biso   1.000  H
  C144     1.0000 0.17070  0.48250  0.70570  Biso   1.000  C
  H72      1.0000 0.17630  0.45250  0.72660  Biso   1.000  H
  C145     1.0000 0.09080  0.65960  0.68280  Biso   1.000  C
  C146     1.0000 0.33340  0.35980  0.52710  Biso   1.000  C
  C147     1.0000 0.36650  0.43330  0.53000  Biso   1.000  C
  C148     1.0000 0.38820  0.46700  0.49700  Biso   1.000  C
  H73      1.0000 0.37950  0.44710  0.47330  Biso   1.000  H
  C149     1.0000 0.42360  0.53150  0.50020  Biso   1.000  C
  H74      1.0000 0.44120  0.55300  0.47850  Biso   1.000  H
  C150     1.0000 0.43230  0.56330  0.53490  Biso   1.000  C
  C151     1.0000 0.40870  0.53320  0.56600  Biso   1.000  C
  H75      1.0000 0.41330  0.55630  0.58940  Biso   1.000  H
  C152     1.0000 0.37580  0.46480  0.56410  Biso   1.000  C
  H76      1.0000 0.36100  0.44240  0.58620  Biso   1.000  H
  C153     1.0000 0.46940  0.63330  0.53880  Biso   1.000  C
  C154     1.0000 0.18530  0.24380  0.43640  Biso   1.000  C
  C155     1.0000 0.15370  0.24300  0.39660  Biso   1.000  C
  C156     1.0000 0.09650  0.28100  0.39170  Biso   1.000  C
  H77      1.0000 0.07680  0.30560  0.41190  Biso   1.000  H
  C157     1.0000 0.06770  0.28210  0.35480  Biso   1.000  C
  H78      1.0000 0.03240  0.31280  0.34920  Biso   1.000  H
  C158     1.0000 0.09360  0.23550  0.32630  Biso   1.000  C
  C159     1.0000 0.14600  0.19460  0.33450  Biso   1.000  C
  H79      1.0000 0.16140  0.16190  0.31650  Biso   1.000  H
  C160     1.0000 0.17810  0.19980  0.36910  Biso   1.000  C
  H80      1.0000 0.21670  0.17330  0.37350  Biso   1.000  H
  C161     1.0000 0.05670  0.23470  0.28840  Biso   1.000  C
  C162     1.0000 0.32580  0.13150  0.54870  Biso   1.000  C
  C163     1.0000 0.36000  0.06060  0.55230  Biso   1.000  C
  C164     1.0000 0.37400  0.02790  0.58910  Biso   1.000  C
  H81      1.0000 0.36030  0.05070  0.61140  Biso   1.000  H
  C165     1.0000 0.40780  0.96270  0.59110  Biso   1.000  C
  H82      1.0000 0.41770  0.94220  0.61460  Biso   1.000  H
  C166     1.0000 0.42550  0.93050  0.55940  Biso   1.000  C
  C167     1.0000 0.41260  0.95830  0.52340  Biso   1.000  C
  H83      1.0000 0.42530  0.93230  0.50190  Biso   1.000  H
  C168     1.0000 0.38140  0.02330  0.51900  Biso   1.000  C
  H84      1.0000 0.37430  0.04260  0.49490  Biso   1.000  H
  C169     1.0000 0.46340  0.85810  0.56170  Biso   1.000  C
  C170     1.0000 0.41770  0.22690  0.65710  Biso   1.000  C
  C171     1.0000 0.53050  0.18750  0.63170  Biso   1.000  C
  H85      1.0000 0.53190  0.15180  0.65020  Biso   1.000  H
  C172     1.0000 0.58340  0.19610  0.60790  Biso   1.000  C
  H86      1.0000 0.61930  0.16440  0.60930  Biso   1.000  H
  C173     1.0000 0.52650  0.29990  0.57710  Biso   1.000  C
  H87      1.0000 0.52600  0.33590  0.55880  Biso   1.000  H
  C174     1.0000 0.47180  0.29030  0.60110  Biso   1.000  C
  H88      1.0000 0.43500  0.32060  0.59950  Biso   1.000  H
  C175     1.0000 0.58450  0.25330  0.58090  Biso   1.000  C
  C176     1.0000 0.64310  0.26430  0.55530  Biso   1.000  C
  C177     1.0000 0.66070  0.76430  0.57150  Biso   1.000  C
  C178     1.0000 0.71890  0.75070  0.59730  Biso   1.000  C
  C179     1.0000 0.72060  0.70070  0.62240  Biso   1.000  C
  H89      1.0000 0.68350  0.67120  0.62550  Biso   1.000  H
  C180     1.0000 0.77830  0.68930  0.64570  Biso   1.000  C
  H90      1.0000 0.78050  0.64950  0.66160  Biso   1.000  H
  C181     1.0000 0.82860  0.73560  0.64460  Biso   1.000  C
  C182     1.0000 0.82880  0.79320  0.61820  Biso   1.000  C
  H91      1.0000 0.86540  0.82380  0.61660  Biso   1.000  H
  C183     1.0000 0.77420  0.80320  0.59520  Biso   1.000  C
  H92      1.0000 0.77210  0.84200  0.57860  Biso   1.000  H
  C184     1.0000 0.88780  0.72930  0.67120  Biso   1.000  C
  C185     1.0000 0.61210  0.76130  0.44890  Biso   1.000  C
  C186     1.0000 0.63590  0.75880  0.40710  Biso   1.000  C
  C187     1.0000 0.68460  0.71540  0.39550  Biso   1.000  C
  H93      1.0000 0.70780  0.68840  0.41340  Biso   1.000  H
  C188     1.0000 0.70190  0.70930  0.35650  Biso   1.000  C
  H94      1.0000 0.73540  0.67830  0.34850  Biso   1.000  H
  C189     1.0000 0.66750  0.75070  0.33140  Biso   1.000  C
  C190     1.0000 0.61730  0.80080  0.34460  Biso   1.000  C
  H95      1.0000 0.59540  0.83120  0.32770  Biso   1.000  H
  C191     1.0000 0.60340  0.80220  0.38160  Biso   1.000  C
  H96      1.0000 0.57080  0.83360  0.39050  Biso   1.000  H
  C192     1.0000 0.68070  0.74170  0.28940  Biso   1.000  C
  Ca5      1.0000 0.27774  0.26604  0.60644  Biso   1.000  Ca
  Cd9      1.0000 0.31886  0.27027  0.71112  Biso   1.000  Cd
  O65      1.0000 0.25200  0.17610  0.70580  Biso   1.000  O
  Ca6      1.0000 0.51954  0.72882  0.61684  Biso   1.000  Ca
  Cd10     1.0000 0.24735  0.24205  0.50412  Biso   1.000  Cd
  O66      1.0000 0.21630  0.19590  0.64730  Biso   1.000  O
  Cd11     1.0000 0.56044  0.75470  0.51810  Biso   1.000  Cd
  O67      1.0000 0.06440  0.86150  0.71540  Biso   1.000  O
  Cd12     1.0000 0.99941  0.76570  0.71908  Biso   1.000  Cd
  O68      1.0000 0.05090  0.86730  0.65220  Biso   1.000  O
  O69      1.0000 0.24620  0.35650  0.69740  Biso   1.000  O
  O70      1.0000 0.25130  0.37380  0.63360  Biso   1.000  O
  O71      1.0000 0.06500  0.67200  0.71510  Biso   1.000  O
  O72      1.0000 0.08370  0.70160  0.65380  Biso   1.000  O
  O73      1.0000 0.32950  0.32350  0.55710  Biso   1.000  O
  O74      1.0000 0.31060  0.34170  0.49630  Biso   1.000  O
  O75      1.0000 0.47090  0.66270  0.57010  Biso   1.000  O
  O76      1.0000 0.50080  0.65610  0.50860  Biso   1.000  O
  O77      1.0000 0.23240  0.19980  0.44280  Biso   1.000  O
  O78      1.0000 0.16950  0.29180  0.45960  Biso   1.000  O
  O79      1.0000 0.07610  0.18760  0.26490  Biso   1.000  O
  O80      1.0000 0.01160  0.27740  0.28070  Biso   1.000  O
  O81      1.0000 0.31380  0.15320  0.51550  Biso   1.000  O
  O82      1.0000 0.30780  0.16210  0.57880  Biso   1.000  O
  O83      1.0000 0.47390  0.83150  0.59190  Biso   1.000  O
  O84      1.0000 0.48600  0.83600  0.53020  Biso   1.000  O
  O85      1.0000 0.36420  0.26090  0.65010  Biso   1.000  O
  O86      1.0000 0.42620  0.19220  0.68520  Biso   1.000  O
  O87      1.0000 0.64080  0.31090  0.53100  Biso   1.000  O
  O88      1.0000 0.69300  0.22470  0.55930  Biso   1.000  O
  O89      1.0000 0.65970  0.81350  0.54720  Biso   1.000  O
  O90      1.0000 0.61160  0.71760  0.57430  Biso   1.000  O
  O91      1.0000 0.93660  0.77170  0.66520  Biso   1.000  O
  O92      1.0000 0.88430  0.68840  0.69920  Biso   1.000  O
  O93      1.0000 0.57130  0.80860  0.45850  Biso   1.000  O
  O94      1.0000 0.63700  0.71660  0.47110  Biso   1.000  O
  O95      1.0000 0.64340  0.77600  0.26640  Biso   1.000  O
  O96      1.0000 0.72660  0.70160  0.27760  Biso   1.000  O
  C193     1.0000 0.77910  0.84110  0.17700  Biso   1.000  C
  C194     1.0000 0.81700  0.91120  0.17800  Biso   1.000  C
  C195     1.0000 0.52670  0.76850  0.12890  Biso   1.000  C
  C196     1.0000 0.82100  0.94920  0.21160  Biso   1.000  C
  H97      1.0000 0.80020  0.93100  0.23320  Biso   1.000  H
  C197     1.0000 0.85520  0.01400  0.21420  Biso   1.000  C
  H98      1.0000 0.85770  0.03890  0.23710  Biso   1.000  H
  C198     1.0000 0.88630  0.04100  0.18080  Biso   1.000  C
  C199     1.0000 0.88050  0.00420  0.14700  Biso   1.000  C
  H99      1.0000 0.89930  0.02310  0.12500  Biso   1.000  H
  C200     1.0000 0.84730  0.93980  0.14560  Biso   1.000  C
  H100     1.0000 0.84500  0.91490  0.12270  Biso   1.000  H
  C201     1.0000 0.92780  0.10870  0.18300  Biso   1.000  C
  C202     1.0000 0.76460  0.60900  0.16670  Biso   1.000  C
  C203     1.0000 0.80120  0.53740  0.17030  Biso   1.000  C
  C204     1.0000 0.80850  0.49120  0.13950  Biso   1.000  C
  H101     1.0000 0.78880  0.50240  0.11630  Biso   1.000  H
  C205     1.0000 0.84470  0.42900  0.14350  Biso   1.000  C
  H102     1.0000 0.85140  0.39920  0.12260  Biso   1.000  H
  C206     1.0000 0.87140  0.41040  0.17870  Biso   1.000  C
  C207     1.0000 0.86450  0.45540  0.20970  Biso   1.000  C
  H103     1.0000 0.88360  0.44340  0.23300  Biso   1.000  H
  C208     1.0000 0.82930  0.51750  0.20570  Biso   1.000  C
  H104     1.0000 0.82370  0.54750  0.22660  Biso   1.000  H
  C209     1.0000 0.90920  0.34040  0.18280  Biso   1.000  C
  C210     1.0000 0.66660  0.64020  0.02710  Biso   1.000  C
  C211     1.0000 0.63350  0.56670  0.03000  Biso   1.000  C
  C212     1.0000 0.61180  0.53300  0.99700  Biso   1.000  C
  H105     1.0000 0.62050  0.55290  0.97330  Biso   1.000  H
  C213     1.0000 0.57640  0.46850  0.00020  Biso   1.000  C
  H106     1.0000 0.55880  0.44700  0.97850  Biso   1.000  H
  C214     1.0000 0.56770  0.43670  0.03490  Biso   1.000  C
  C215     1.0000 0.59130  0.46680  0.06600  Biso   1.000  C
  H107     1.0000 0.58670  0.44370  0.08940  Biso   1.000  H
  C216     1.0000 0.62420  0.53520  0.06410  Biso   1.000  C
  H108     1.0000 0.63900  0.55760  0.08620  Biso   1.000  H
  C217     1.0000 0.53060  0.36670  0.03880  Biso   1.000  C
  C218     1.0000 0.81470  0.75620  0.93640  Biso   1.000  C
  C219     1.0000 0.84630  0.75700  0.89660  Biso   1.000  C
  C220     1.0000 0.90350  0.71900  0.89170  Biso   1.000  C
  H109     1.0000 0.92320  0.69440  0.91190  Biso   1.000  H
  C221     1.0000 0.93230  0.71790  0.85480  Biso   1.000  C
  H110     1.0000 0.96760  0.68720  0.84920  Biso   1.000  H
  C222     1.0000 0.90640  0.76450  0.82630  Biso   1.000  C
  C223     1.0000 0.85400  0.80540  0.83450  Biso   1.000  C
  H111     1.0000 0.83860  0.83810  0.81650  Biso   1.000  H
  C224     1.0000 0.82190  0.80020  0.86910  Biso   1.000  C
  H112     1.0000 0.78330  0.82670  0.87350  Biso   1.000  H
  C225     1.0000 0.94330  0.76530  0.78840  Biso   1.000  C
  C226     1.0000 0.67420  0.86850  0.04870  Biso   1.000  C
  C227     1.0000 0.64000  0.93940  0.05230  Biso   1.000  C
  C228     1.0000 0.62600  0.97210  0.08910  Biso   1.000  C
  H113     1.0000 0.63970  0.94930  0.11140  Biso   1.000  H
  C229     1.0000 0.59220  0.03730  0.09110  Biso   1.000  C
  H114     1.0000 0.58230  0.05780  0.11460  Biso   1.000  H
  C230     1.0000 0.57450  0.06950  0.05940  Biso   1.000  C
  C231     1.0000 0.58740  0.04170  0.02340  Biso   1.000  C
  H115     1.0000 0.57470  0.06770  0.00190  Biso   1.000  H
  C232     1.0000 0.61860  0.97670  0.01900  Biso   1.000  C
  H116     1.0000 0.62570  0.95740  0.99490  Biso   1.000  H
  C233     1.0000 0.53660  0.14190  0.06170  Biso   1.000  C
  C234     1.0000 0.58230  0.77310  0.15710  Biso   1.000  C
  C235     1.0000 0.46950  0.81250  0.13170  Biso   1.000  C
  H117     1.0000 0.46810  0.84820  0.15020  Biso   1.000  H
  C236     1.0000 0.41660  0.80390  0.10790  Biso   1.000  C
  H118     1.0000 0.38070  0.83560  0.10930  Biso   1.000  H
  C237     1.0000 0.47350  0.70010  0.07710  Biso   1.000  C
  H119     1.0000 0.47400  0.66410  0.05880  Biso   1.000  H
  C238     1.0000 0.52820  0.70970  0.10110  Biso   1.000  C
  H120     1.0000 0.56500  0.67940  0.09950  Biso   1.000  H
  C239     1.0000 0.41550  0.74670  0.08090  Biso   1.000  C
  C240     1.0000 0.35690  0.73570  0.05530  Biso   1.000  C
  C241     1.0000 0.33930  0.23570  0.07150  Biso   1.000  C
  C242     1.0000 0.28110  0.24930  0.09730  Biso   1.000  C
  C243     1.0000 0.27940  0.29930  0.12240  Biso   1.000  C
  H121     1.0000 0.31650  0.32880  0.12550  Biso   1.000  H
  C244     1.0000 0.22170  0.31070  0.14570  Biso   1.000  C
  H122     1.0000 0.21950  0.35050  0.16160  Biso   1.000  H
  C245     1.0000 0.17140  0.26440  0.14460  Biso   1.000  C
  C246     1.0000 0.17120  0.20680  0.11820  Biso   1.000  C
  H123     1.0000 0.13460  0.17620  0.11660  Biso   1.000  H
  C247     1.0000 0.22580  0.19680  0.09520  Biso   1.000  C
  H124     1.0000 0.22790  0.15800  0.07860  Biso   1.000  H
  C248     1.0000 0.11220  0.27070  0.17120  Biso   1.000  C
  C249     1.0000 0.38790  0.23870  0.94890  Biso   1.000  C
  C250     1.0000 0.36410  0.24120  0.90710  Biso   1.000  C
  C251     1.0000 0.31540  0.28460  0.89550  Biso   1.000  C
  H125     1.0000 0.29220  0.31160  0.91340  Biso   1.000  H
  C252     1.0000 0.29810  0.29070  0.85650  Biso   1.000  C
  H126     1.0000 0.26460  0.32170  0.84850  Biso   1.000  H
  C253     1.0000 0.33250  0.24930  0.83140  Biso   1.000  C
  C254     1.0000 0.38270  0.19920  0.84460  Biso   1.000  C
  H127     1.0000 0.40460  0.16880  0.82770  Biso   1.000  H
  C255     1.0000 0.39660  0.19780  0.88160  Biso   1.000  C
  H128     1.0000 0.42920  0.16640  0.89050  Biso   1.000  H
  C256     1.0000 0.31930  0.25830  0.78940  Biso   1.000  C
  Ca7      1.0000 0.72226  0.73396  0.10644  Biso   1.000  Ca
  Cd13     1.0000 0.68114  0.72973  0.21112  Biso   1.000  Cd
  O97      1.0000 0.74800  0.82390  0.20580  Biso   1.000  O
  Ca8      1.0000 0.48046  0.27118  0.11684  Biso   1.000  Ca
  Cd14     1.0000 0.75265  0.75795  0.00412  Biso   1.000  Cd
  O98      1.0000 0.78370  0.80410  0.14730  Biso   1.000  O
  Cd15     1.0000 0.43956  0.24530  0.01810  Biso   1.000  Cd
  O99      1.0000 0.93560  0.13850  0.21540  Biso   1.000  O
  Cd16     1.0000 0.00059  0.23430  0.21908  Biso   1.000  Cd
  O100     1.0000 0.94910  0.13270  0.15220  Biso   1.000  O
  O101     1.0000 0.75380  0.64350  0.19740  Biso   1.000  O
  O102     1.0000 0.74870  0.62620  0.13360  Biso   1.000  O
  O103     1.0000 0.93500  0.32800  0.21510  Biso   1.000  O
  O104     1.0000 0.91630  0.29840  0.15380  Biso   1.000  O
  O105     1.0000 0.67050  0.67650  0.05710  Biso   1.000  O
  O106     1.0000 0.68940  0.65830  0.99630  Biso   1.000  O
  O107     1.0000 0.52910  0.33730  0.07010  Biso   1.000  O
  O108     1.0000 0.49920  0.34390  0.00860  Biso   1.000  O
  O109     1.0000 0.76760  0.80020  0.94280  Biso   1.000  O
  O110     1.0000 0.83050  0.70820  0.95960  Biso   1.000  O
  O111     1.0000 0.92390  0.81240  0.76490  Biso   1.000  O
  O112     1.0000 0.98840  0.72260  0.78070  Biso   1.000  O
  O113     1.0000 0.68620  0.84680  0.01550  Biso   1.000  O
  O114     1.0000 0.69220  0.83790  0.07880  Biso   1.000  O
  O115     1.0000 0.52610  0.16850  0.09190  Biso   1.000  O
  O116     1.0000 0.51400  0.16400  0.03020  Biso   1.000  O
  O117     1.0000 0.63580  0.73910  0.15010  Biso   1.000  O
  O118     1.0000 0.57380  0.80780  0.18520  Biso   1.000  O
  O119     1.0000 0.35920  0.68910  0.03100  Biso   1.000  O
  O120     1.0000 0.30700  0.77530  0.05930  Biso   1.000  O
  O121     1.0000 0.34030  0.18650  0.04720  Biso   1.000  O
  O122     1.0000 0.38840  0.28240  0.07430  Biso   1.000  O
  O123     1.0000 0.06340  0.22830  0.16520  Biso   1.000  O
  O124     1.0000 0.11570  0.31160  0.19920  Biso   1.000  O
  O125     1.0000 0.42870  0.19140  0.95850  Biso   1.000  O
  O126     1.0000 0.36300  0.28340  0.97110  Biso   1.000  O
  O127     1.0000 0.35660  0.22400  0.76640  Biso   1.000  O
  O128     1.0000 0.27340  0.29840  0.77760  Biso   1.000  O
