data_image0
_cell_length_a       18.5166
_cell_length_b       29.4652
_cell_length_c       16.385
_cell_angle_alpha    90
_cell_angle_beta     119.388
_cell_angle_gamma    90

_symmetry_space_group_name_H-M    "P 1"
_symmetry_int_tables_number       1

loop_
  _symmetry_equiv_pos_as_xyz
  'x, y, z'

loop_
  _atom_site_label
  _atom_site_occupancy
  _atom_site_fract_x
  _atom_site_fract_y
  _atom_site_fract_z
  _atom_site_thermal_displace_type
  _atom_site_B_iso_or_equiv
  _atom_site_type_symbol
  Mg1      1.0000 0.79591  0.61451  0.72677  Biso   1.000  Mg
  O1       1.0000 0.94460  0.57770  0.63470  Biso   1.000  O
  O2       1.0000 0.95090  0.69450  0.63470  Biso   1.000  O
  O3       1.0000 0.86650  0.66396  0.67770  Biso   1.000  O
  O4       1.0000 0.07340  0.59152  0.67470  Biso   1.000  O
  C1       1.0000 0.00450  0.53360  0.56260  Biso   1.000  C
  C2       1.0000 0.06850  0.52760  0.54260  Biso   1.000  C
  H1       1.0000 0.11590  0.54670  0.57130  Biso   1.000  H
  C3       1.0000 0.83020  0.75670  0.51670  Biso   1.000  C
  H2       1.0000 0.88510  0.76150  0.52810  Biso   1.000  H
  C4       1.0000 0.93630  0.50560  0.51820  Biso   1.000  C
  H3       1.0000 0.89140  0.50950  0.53010  Biso   1.000  H
  C5       1.0000 0.73370  0.71580  0.54650  Biso   1.000  C
  H4       1.0000 0.72210  0.69230  0.57820  Biso   1.000  H
  C6       1.0000 0.81400  0.72200  0.56380  Biso   1.000  C
  C7       1.0000 0.00800  0.56990  0.62650  Biso   1.000  C
  C8       1.0000 0.88220  0.69210  0.63010  Biso   1.000  C
  Mg2      1.0000 0.29591  0.11451  0.72677  Biso   1.000  Mg
  O5       1.0000 0.44460  0.07770  0.63470  Biso   1.000  O
  O6       1.0000 0.45090  0.19450  0.63470  Biso   1.000  O
  O7       1.0000 0.36650  0.16396  0.67770  Biso   1.000  O
  O8       1.0000 0.57340  0.09152  0.67470  Biso   1.000  O
  C9       1.0000 0.50450  0.03360  0.56260  Biso   1.000  C
  C10      1.0000 0.56850  0.02760  0.54260  Biso   1.000  C
  H5       1.0000 0.61590  0.04670  0.57130  Biso   1.000  H
  C11      1.0000 0.33020  0.25670  0.51670  Biso   1.000  C
  H6       1.0000 0.38510  0.26150  0.52810  Biso   1.000  H
  C12      1.0000 0.43630  0.00560  0.51820  Biso   1.000  C
  H7       1.0000 0.39140  0.00950  0.53010  Biso   1.000  H
  C13      1.0000 0.23370  0.21580  0.54650  Biso   1.000  C
  H8       1.0000 0.22210  0.19230  0.57820  Biso   1.000  H
  C14      1.0000 0.31400  0.22200  0.56380  Biso   1.000  C
  C15      1.0000 0.50800  0.06990  0.62650  Biso   1.000  C
  C16      1.0000 0.38220  0.19210  0.63010  Biso   1.000  C
  Mg3      1.0000 0.20409  0.61451  0.77323  Biso   1.000  Mg
  O9       1.0000 0.05540  0.57770  0.86530  Biso   1.000  O
  O10      1.0000 0.04910  0.69450  0.86530  Biso   1.000  O
  O11      1.0000 0.13350  0.66396  0.82230  Biso   1.000  O
  O12      1.0000 0.92660  0.59152  0.82530  Biso   1.000  O
  C17      1.0000 0.99550  0.53360  0.93740  Biso   1.000  C
  C18      1.0000 0.93150  0.52760  0.95740  Biso   1.000  C
  H9       1.0000 0.88410  0.54670  0.92870  Biso   1.000  H
  C19      1.0000 0.16980  0.75670  0.98330  Biso   1.000  C
  H10      1.0000 0.11490  0.76150  0.97190  Biso   1.000  H
  C20      1.0000 0.06370  0.50560  0.98180  Biso   1.000  C
  H11      1.0000 0.10860  0.50950  0.96990  Biso   1.000  H
  C21      1.0000 0.26630  0.71580  0.95350  Biso   1.000  C
  H12      1.0000 0.27790  0.69230  0.92180  Biso   1.000  H
  C22      1.0000 0.18600  0.72200  0.93620  Biso   1.000  C
  C23      1.0000 0.99200  0.56990  0.87350  Biso   1.000  C
  C24      1.0000 0.11780  0.69210  0.86990  Biso   1.000  C
  Mg4      1.0000 0.70409  0.11451  0.77323  Biso   1.000  Mg
  O13      1.0000 0.55540  0.07770  0.86530  Biso   1.000  O
  O14      1.0000 0.54910  0.19450  0.86530  Biso   1.000  O
  O15      1.0000 0.63350  0.16396  0.82230  Biso   1.000  O
  O16      1.0000 0.42660  0.09152  0.82530  Biso   1.000  O
  C25      1.0000 0.49550  0.03360  0.93740  Biso   1.000  C
  C26      1.0000 0.43150  0.02760  0.95740  Biso   1.000  C
  H13      1.0000 0.38410  0.04670  0.92870  Biso   1.000  H
  C27      1.0000 0.66980  0.25670  0.98330  Biso   1.000  C
  H14      1.0000 0.61490  0.26150  0.97190  Biso   1.000  H
  C28      1.0000 0.56370  0.00560  0.98180  Biso   1.000  C
  H15      1.0000 0.60860  0.00950  0.96990  Biso   1.000  H
  C29      1.0000 0.76630  0.21580  0.95350  Biso   1.000  C
  H16      1.0000 0.77790  0.19230  0.92180  Biso   1.000  H
  C30      1.0000 0.68600  0.22200  0.93620  Biso   1.000  C
  C31      1.0000 0.49200  0.06990  0.87350  Biso   1.000  C
  C32      1.0000 0.61780  0.19210  0.86990  Biso   1.000  C
  Mg5      1.0000 0.20409  0.38549  0.27323  Biso   1.000  Mg
  O17      1.0000 0.05540  0.42230  0.36530  Biso   1.000  O
  O18      1.0000 0.04910  0.30550  0.36530  Biso   1.000  O
  O19      1.0000 0.13350  0.33604  0.32230  Biso   1.000  O
  O20      1.0000 0.92660  0.40848  0.32530  Biso   1.000  O
  C33      1.0000 0.99550  0.46640  0.43740  Biso   1.000  C
  C34      1.0000 0.93150  0.47240  0.45740  Biso   1.000  C
  H17      1.0000 0.88410  0.45330  0.42870  Biso   1.000  H
  C35      1.0000 0.16980  0.24330  0.48330  Biso   1.000  C
  H18      1.0000 0.11490  0.23850  0.47190  Biso   1.000  H
  C36      1.0000 0.06370  0.49440  0.48180  Biso   1.000  C
  H19      1.0000 0.10860  0.49050  0.46990  Biso   1.000  H
  C37      1.0000 0.26630  0.28420  0.45350  Biso   1.000  C
  H20      1.0000 0.27790  0.30770  0.42180  Biso   1.000  H
  C38      1.0000 0.18600  0.27800  0.43620  Biso   1.000  C
  C39      1.0000 0.99200  0.43010  0.37350  Biso   1.000  C
  C40      1.0000 0.11780  0.30790  0.36990  Biso   1.000  C
  Mg6      1.0000 0.70409  0.88549  0.27323  Biso   1.000  Mg
  O21      1.0000 0.55540  0.92230  0.36530  Biso   1.000  O
  O22      1.0000 0.54910  0.80550  0.36530  Biso   1.000  O
  O23      1.0000 0.63350  0.83604  0.32230  Biso   1.000  O
  O24      1.0000 0.42660  0.90848  0.32530  Biso   1.000  O
  C41      1.0000 0.49550  0.96640  0.43740  Biso   1.000  C
  C42      1.0000 0.43150  0.97240  0.45740  Biso   1.000  C
  H21      1.0000 0.38410  0.95330  0.42870  Biso   1.000  H
  C43      1.0000 0.66980  0.74330  0.48330  Biso   1.000  C
  H22      1.0000 0.61490  0.73850  0.47190  Biso   1.000  H
  C44      1.0000 0.56370  0.99440  0.48180  Biso   1.000  C
  H23      1.0000 0.60860  0.99050  0.46990  Biso   1.000  H
  C45      1.0000 0.76630  0.78420  0.45350  Biso   1.000  C
  H24      1.0000 0.77790  0.80770  0.42180  Biso   1.000  H
  C46      1.0000 0.68600  0.77800  0.43620  Biso   1.000  C
  C47      1.0000 0.49200  0.93010  0.37350  Biso   1.000  C
  C48      1.0000 0.61780  0.80790  0.36990  Biso   1.000  C
  Mg7      1.0000 0.79591  0.38549  0.22677  Biso   1.000  Mg
  O25      1.0000 0.94460  0.42230  0.13470  Biso   1.000  O
  O26      1.0000 0.95090  0.30550  0.13470  Biso   1.000  O
  O27      1.0000 0.86650  0.33604  0.17770  Biso   1.000  O
  O28      1.0000 0.07340  0.40848  0.17470  Biso   1.000  O
  C49      1.0000 0.00450  0.46640  0.06260  Biso   1.000  C
  C50      1.0000 0.06850  0.47240  0.04260  Biso   1.000  C
  H25      1.0000 0.11590  0.45330  0.07130  Biso   1.000  H
  C51      1.0000 0.83020  0.24330  0.01670  Biso   1.000  C
  H26      1.0000 0.88510  0.23850  0.02810  Biso   1.000  H
  C52      1.0000 0.93630  0.49440  0.01820  Biso   1.000  C
  H27      1.0000 0.89140  0.49050  0.03010  Biso   1.000  H
  C53      1.0000 0.73370  0.28420  0.04650  Biso   1.000  C
  H28      1.0000 0.72210  0.30770  0.07820  Biso   1.000  H
  C54      1.0000 0.81400  0.27800  0.06380  Biso   1.000  C
  C55      1.0000 0.00800  0.43010  0.12650  Biso   1.000  C
  C56      1.0000 0.88220  0.30790  0.13010  Biso   1.000  C
  Mg8      1.0000 0.29591  0.88549  0.22677  Biso   1.000  Mg
  O29      1.0000 0.44460  0.92230  0.13470  Biso   1.000  O
  O30      1.0000 0.45090  0.80550  0.13470  Biso   1.000  O
  O31      1.0000 0.36650  0.83604  0.17770  Biso   1.000  O
  O32      1.0000 0.57340  0.90848  0.17470  Biso   1.000  O
  C57      1.0000 0.50450  0.96640  0.06260  Biso   1.000  C
  C58      1.0000 0.56850  0.97240  0.04260  Biso   1.000  C
  H29      1.0000 0.61590  0.95330  0.07130  Biso   1.000  H
  C59      1.0000 0.33020  0.74330  0.01670  Biso   1.000  C
  H30      1.0000 0.38510  0.73850  0.02810  Biso   1.000  H
  C60      1.0000 0.43630  0.99440  0.01820  Biso   1.000  C
  H31      1.0000 0.39140  0.99050  0.03010  Biso   1.000  H
  C61      1.0000 0.23370  0.78420  0.04650  Biso   1.000  C
  H32      1.0000 0.22210  0.80770  0.07820  Biso   1.000  H
  C62      1.0000 0.31400  0.77800  0.06380  Biso   1.000  C
  C63      1.0000 0.50800  0.93010  0.12650  Biso   1.000  C
  C64      1.0000 0.38220  0.80790  0.13010  Biso   1.000  C
  Cd1      1.0000 0.00000  0.63279  0.75000  Biso   1.000  Cd
  Cd2      1.0000 0.50000  0.13279  0.75000  Biso   1.000  Cd
  Cd3      1.0000 0.00000  0.36721  0.25000  Biso   1.000  Cd
  Cd4      1.0000 0.50000  0.86721  0.25000  Biso   1.000  Cd
  Cd5      1.0000 0.59588  0.63076  0.63170  Biso   1.000  Cd
  O33      1.0000 0.56210  0.56930  0.53500  Biso   1.000  O
  O34      1.0000 0.46050  0.66207  0.58550  Biso   1.000  O
  O35      1.0000 0.20550  0.82658  0.22210  Biso   1.000  O
  O36      1.0000 0.71440  0.42840  0.28240  Biso   1.000  O
  O37      1.0000 0.12090  0.79479  0.26550  Biso   1.000  O
  O38      1.0000 0.59040  0.40338  0.25000  Biso   1.000  O
  O39      1.0000 0.68730  0.59418  0.57590  Biso   1.000  O
  O40      1.0000 0.52610  0.68191  0.51060  Biso   1.000  O
  C65      1.0000 0.31850  0.71220  0.45780  Biso   1.000  C
  H33      1.0000 0.31260  0.69310  0.50090  Biso   1.000  H
  C66      1.0000 0.25210  0.73950  0.39570  Biso   1.000  C
  H34      1.0000 0.20110  0.73840  0.39630  Biso   1.000  H
  C67      1.0000 0.39270  0.71310  0.45640  Biso   1.000  C
  C68      1.0000 0.39850  0.74060  0.39280  Biso   1.000  C
  H35      1.0000 0.44860  0.74080  0.39030  Biso   1.000  H
  C69      1.0000 0.18930  0.79870  0.26840  Biso   1.000  C
  C70      1.0000 0.70560  0.52760  0.46150  Biso   1.000  C
  H36      1.0000 0.74930  0.54880  0.49290  Biso   1.000  H
  C71      1.0000 0.63680  0.52950  0.47380  Biso   1.000  C
  C72      1.0000 0.65280  0.42920  0.29250  Biso   1.000  C
  C73      1.0000 0.26040  0.76780  0.33380  Biso   1.000  C
  C74      1.0000 0.57440  0.49900  0.42750  Biso   1.000  C
  H37      1.0000 0.52650  0.50040  0.43440  Biso   1.000  H
  C75      1.0000 0.62860  0.56660  0.53240  Biso   1.000  C
  C76      1.0000 0.46350  0.68350  0.52210  Biso   1.000  C
  C77      1.0000 0.58000  0.46640  0.37100  Biso   1.000  C
  H38      1.0000 0.53620  0.44510  0.34040  Biso   1.000  H
  C78      1.0000 0.33400  0.76820  0.33220  Biso   1.000  C
  H39      1.0000 0.34040  0.78740  0.28950  Biso   1.000  H
  C79      1.0000 0.71110  0.49530  0.40410  Biso   1.000  C
  H40      1.0000 0.75860  0.49450  0.39620  Biso   1.000  H
  C80      1.0000 0.64820  0.46400  0.35780  Biso   1.000  C
  Cd6      1.0000 0.09588  0.13076  0.63170  Biso   1.000  Cd
  O41      1.0000 0.06210  0.06930  0.53500  Biso   1.000  O
  O42      1.0000 0.96050  0.16207  0.58550  Biso   1.000  O
  O43      1.0000 0.70550  0.32658  0.22210  Biso   1.000  O
  O44      1.0000 0.21440  0.92840  0.28240  Biso   1.000  O
  O45      1.0000 0.62090  0.29479  0.26550  Biso   1.000  O
  O46      1.0000 0.09040  0.90338  0.25000  Biso   1.000  O
  O47      1.0000 0.18730  0.09418  0.57590  Biso   1.000  O
  O48      1.0000 0.02610  0.18191  0.51060  Biso   1.000  O
  C81      1.0000 0.81850  0.21220  0.45780  Biso   1.000  C
  H41      1.0000 0.81260  0.19310  0.50090  Biso   1.000  H
  C82      1.0000 0.75210  0.23950  0.39570  Biso   1.000  C
  H42      1.0000 0.70110  0.23840  0.39630  Biso   1.000  H
  C83      1.0000 0.89270  0.21310  0.45640  Biso   1.000  C
  C84      1.0000 0.89850  0.24060  0.39280  Biso   1.000  C
  H43      1.0000 0.94860  0.24080  0.39030  Biso   1.000  H
  C85      1.0000 0.68930  0.29870  0.26840  Biso   1.000  C
  C86      1.0000 0.20560  0.02760  0.46150  Biso   1.000  C
  H44      1.0000 0.24930  0.04880  0.49290  Biso   1.000  H
  C87      1.0000 0.13680  0.02950  0.47380  Biso   1.000  C
  C88      1.0000 0.15280  0.92920  0.29250  Biso   1.000  C
  C89      1.0000 0.76040  0.26780  0.33380  Biso   1.000  C
  C90      1.0000 0.07440  0.99900  0.42750  Biso   1.000  C
  H45      1.0000 0.02650  0.00040  0.43440  Biso   1.000  H
  C91      1.0000 0.12860  0.06660  0.53240  Biso   1.000  C
  C92      1.0000 0.96350  0.18350  0.52210  Biso   1.000  C
  C93      1.0000 0.08000  0.96640  0.37100  Biso   1.000  C
  H46      1.0000 0.03620  0.94510  0.34040  Biso   1.000  H
  C94      1.0000 0.83400  0.26820  0.33220  Biso   1.000  C
  H47      1.0000 0.84040  0.28740  0.28950  Biso   1.000  H
  C95      1.0000 0.21110  0.99530  0.40410  Biso   1.000  C
  H48      1.0000 0.25860  0.99450  0.39620  Biso   1.000  H
  C96      1.0000 0.14820  0.96400  0.35780  Biso   1.000  C
  Cd7      1.0000 0.59588  0.36924  0.13170  Biso   1.000  Cd
  O49      1.0000 0.56210  0.43070  0.03500  Biso   1.000  O
  O50      1.0000 0.46050  0.33793  0.08550  Biso   1.000  O
  O51      1.0000 0.20550  0.17342  0.72210  Biso   1.000  O
  O52      1.0000 0.71440  0.57160  0.78240  Biso   1.000  O
  O53      1.0000 0.12090  0.20521  0.76550  Biso   1.000  O
  O54      1.0000 0.59040  0.59662  0.75000  Biso   1.000  O
  O55      1.0000 0.68730  0.40582  0.07590  Biso   1.000  O
  O56      1.0000 0.52610  0.31809  0.01060  Biso   1.000  O
  C97      1.0000 0.31850  0.28780  0.95780  Biso   1.000  C
  H49      1.0000 0.31260  0.30690  0.00090  Biso   1.000  H
  C98      1.0000 0.25210  0.26050  0.89570  Biso   1.000  C
  H50      1.0000 0.20110  0.26160  0.89630  Biso   1.000  H
  C99      1.0000 0.39270  0.28690  0.95640  Biso   1.000  C
  C100     1.0000 0.39850  0.25940  0.89280  Biso   1.000  C
  H51      1.0000 0.44860  0.25920  0.89030  Biso   1.000  H
  C101     1.0000 0.18930  0.20130  0.76840  Biso   1.000  C
  C102     1.0000 0.70560  0.47240  0.96150  Biso   1.000  C
  H52      1.0000 0.74930  0.45120  0.99290  Biso   1.000  H
  C103     1.0000 0.63680  0.47050  0.97380  Biso   1.000  C
  C104     1.0000 0.65280  0.57080  0.79250  Biso   1.000  C
  C105     1.0000 0.26040  0.23220  0.83380  Biso   1.000  C
  C106     1.0000 0.57440  0.50100  0.92750  Biso   1.000  C
  H53      1.0000 0.52650  0.49960  0.93440  Biso   1.000  H
  C107     1.0000 0.62860  0.43340  0.03240  Biso   1.000  C
  C108     1.0000 0.46350  0.31650  0.02210  Biso   1.000  C
  C109     1.0000 0.58000  0.53360  0.87100  Biso   1.000  C
  H54      1.0000 0.53620  0.55490  0.84040  Biso   1.000  H
  C110     1.0000 0.33400  0.23180  0.83220  Biso   1.000  C
  H55      1.0000 0.34040  0.21260  0.78950  Biso   1.000  H
  C111     1.0000 0.71110  0.50470  0.90410  Biso   1.000  C
  H56      1.0000 0.75860  0.50550  0.89620  Biso   1.000  H
  C112     1.0000 0.64820  0.53600  0.85780  Biso   1.000  C
  Cd8      1.0000 0.09588  0.86924  0.13170  Biso   1.000  Cd
  O57      1.0000 0.06210  0.93070  0.03500  Biso   1.000  O
  O58      1.0000 0.96050  0.83793  0.08550  Biso   1.000  O
  O59      1.0000 0.70550  0.67342  0.72210  Biso   1.000  O
  O60      1.0000 0.21440  0.07160  0.78240  Biso   1.000  O
  O61      1.0000 0.62090  0.70521  0.76550  Biso   1.000  O
  O62      1.0000 0.09040  0.09662  0.75000  Biso   1.000  O
  O63      1.0000 0.18730  0.90582  0.07590  Biso   1.000  O
  O64      1.0000 0.02610  0.81809  0.01060  Biso   1.000  O
  C113     1.0000 0.81850  0.78780  0.95780  Biso   1.000  C
  H57      1.0000 0.81260  0.80690  0.00090  Biso   1.000  H
  C114     1.0000 0.75210  0.76050  0.89570  Biso   1.000  C
  H58      1.0000 0.70110  0.76160  0.89630  Biso   1.000  H
  C115     1.0000 0.89270  0.78690  0.95640  Biso   1.000  C
  C116     1.0000 0.89850  0.75940  0.89280  Biso   1.000  C
  H59      1.0000 0.94860  0.75920  0.89030  Biso   1.000  H
  C117     1.0000 0.68930  0.70130  0.76840  Biso   1.000  C
  C118     1.0000 0.20560  0.97240  0.96150  Biso   1.000  C
  H60      1.0000 0.24930  0.95120  0.99290  Biso   1.000  H
  C119     1.0000 0.13680  0.97050  0.97380  Biso   1.000  C
  C120     1.0000 0.15280  0.07080  0.79250  Biso   1.000  C
  C121     1.0000 0.76040  0.73220  0.83380  Biso   1.000  C
  C122     1.0000 0.07440  0.00100  0.92750  Biso   1.000  C
  H61      1.0000 0.02650  0.99960  0.93440  Biso   1.000  H
  C123     1.0000 0.12860  0.93340  0.03240  Biso   1.000  C
  C124     1.0000 0.96350  0.81650  0.02210  Biso   1.000  C
  C125     1.0000 0.08000  0.03360  0.87100  Biso   1.000  C
  H62      1.0000 0.03620  0.05490  0.84040  Biso   1.000  H
  C126     1.0000 0.83400  0.73180  0.83220  Biso   1.000  C
  H63      1.0000 0.84040  0.71260  0.78950  Biso   1.000  H
  C127     1.0000 0.21110  0.00470  0.90410  Biso   1.000  C
  H64      1.0000 0.25860  0.00550  0.89620  Biso   1.000  H
  C128     1.0000 0.14820  0.03600  0.85780  Biso   1.000  C
  Cd9      1.0000 0.40412  0.63076  0.86830  Biso   1.000  Cd
  O65      1.0000 0.43790  0.56930  0.96500  Biso   1.000  O
  O66      1.0000 0.53950  0.66207  0.91450  Biso   1.000  O
  O67      1.0000 0.79450  0.82658  0.27790  Biso   1.000  O
  O68      1.0000 0.28560  0.42840  0.21760  Biso   1.000  O
  O69      1.0000 0.87910  0.79479  0.23450  Biso   1.000  O
  O70      1.0000 0.40960  0.40338  0.25000  Biso   1.000  O
  O71      1.0000 0.31270  0.59418  0.92410  Biso   1.000  O
  O72      1.0000 0.47390  0.68191  0.98940  Biso   1.000  O
  C129     1.0000 0.68150  0.71220  0.04220  Biso   1.000  C
  H65      1.0000 0.68740  0.69310  0.99910  Biso   1.000  H
  C130     1.0000 0.74790  0.73950  0.10430  Biso   1.000  C
  H66      1.0000 0.79890  0.73840  0.10370  Biso   1.000  H
  C131     1.0000 0.60730  0.71310  0.04360  Biso   1.000  C
  C132     1.0000 0.60150  0.74060  0.10720  Biso   1.000  C
  H67      1.0000 0.55140  0.74080  0.10970  Biso   1.000  H
  C133     1.0000 0.81070  0.79870  0.23160  Biso   1.000  C
  C134     1.0000 0.29440  0.52760  0.03850  Biso   1.000  C
  H68      1.0000 0.25070  0.54880  0.00710  Biso   1.000  H
  C135     1.0000 0.36320  0.52950  0.02620  Biso   1.000  C
  C136     1.0000 0.34720  0.42920  0.20750  Biso   1.000  C
  C137     1.0000 0.73960  0.76780  0.16620  Biso   1.000  C
  C138     1.0000 0.42560  0.49900  0.07250  Biso   1.000  C
  H69      1.0000 0.47350  0.50040  0.06560  Biso   1.000  H
  C139     1.0000 0.37140  0.56660  0.96760  Biso   1.000  C
  C140     1.0000 0.53650  0.68350  0.97790  Biso   1.000  C
  C141     1.0000 0.42000  0.46640  0.12900  Biso   1.000  C
  H70      1.0000 0.46380  0.44510  0.15960  Biso   1.000  H
  C142     1.0000 0.66600  0.76820  0.16780  Biso   1.000  C
  H71      1.0000 0.65960  0.78740  0.21050  Biso   1.000  H
  C143     1.0000 0.28890  0.49530  0.09590  Biso   1.000  C
  H72      1.0000 0.24140  0.49450  0.10380  Biso   1.000  H
  C144     1.0000 0.35180  0.46400  0.14220  Biso   1.000  C
  Cd10     1.0000 0.90412  0.13076  0.86830  Biso   1.000  Cd
  O73      1.0000 0.93790  0.06930  0.96500  Biso   1.000  O
  O74      1.0000 0.03950  0.16207  0.91450  Biso   1.000  O
  O75      1.0000 0.29450  0.32658  0.27790  Biso   1.000  O
  O76      1.0000 0.78560  0.92840  0.21760  Biso   1.000  O
  O77      1.0000 0.37910  0.29479  0.23450  Biso   1.000  O
  O78      1.0000 0.90960  0.90338  0.25000  Biso   1.000  O
  O79      1.0000 0.81270  0.09418  0.92410  Biso   1.000  O
  O80      1.0000 0.97390  0.18191  0.98940  Biso   1.000  O
  C145     1.0000 0.18150  0.21220  0.04220  Biso   1.000  C
  H73      1.0000 0.18740  0.19310  0.99910  Biso   1.000  H
  C146     1.0000 0.24790  0.23950  0.10430  Biso   1.000  C
  H74      1.0000 0.29890  0.23840  0.10370  Biso   1.000  H
  C147     1.0000 0.10730  0.21310  0.04360  Biso   1.000  C
  C148     1.0000 0.10150  0.24060  0.10720  Biso   1.000  C
  H75      1.0000 0.05140  0.24080  0.10970  Biso   1.000  H
  C149     1.0000 0.31070  0.29870  0.23160  Biso   1.000  C
  C150     1.0000 0.79440  0.02760  0.03850  Biso   1.000  C
  H76      1.0000 0.75070  0.04880  0.00710  Biso   1.000  H
  C151     1.0000 0.86320  0.02950  0.02620  Biso   1.000  C
  C152     1.0000 0.84720  0.92920  0.20750  Biso   1.000  C
  C153     1.0000 0.23960  0.26780  0.16620  Biso   1.000  C
  C154     1.0000 0.92560  0.99900  0.07250  Biso   1.000  C
  H77      1.0000 0.97350  0.00040  0.06560  Biso   1.000  H
  C155     1.0000 0.87140  0.06660  0.96760  Biso   1.000  C
  C156     1.0000 0.03650  0.18350  0.97790  Biso   1.000  C
  C157     1.0000 0.92000  0.96640  0.12900  Biso   1.000  C
  H78      1.0000 0.96380  0.94510  0.15960  Biso   1.000  H
  C158     1.0000 0.16600  0.26820  0.16780  Biso   1.000  C
  H79      1.0000 0.15960  0.28740  0.21050  Biso   1.000  H
  C159     1.0000 0.78890  0.99530  0.09590  Biso   1.000  C
  H80      1.0000 0.74140  0.99450  0.10380  Biso   1.000  H
  C160     1.0000 0.85180  0.96400  0.14220  Biso   1.000  C
  Cd11     1.0000 0.40412  0.36924  0.36830  Biso   1.000  Cd
  O81      1.0000 0.43790  0.43070  0.46500  Biso   1.000  O
  O82      1.0000 0.53950  0.33793  0.41450  Biso   1.000  O
  O83      1.0000 0.79450  0.17342  0.77790  Biso   1.000  O
  O84      1.0000 0.28560  0.57160  0.71760  Biso   1.000  O
  O85      1.0000 0.87910  0.20521  0.73450  Biso   1.000  O
  O86      1.0000 0.40960  0.59662  0.75000  Biso   1.000  O
  O87      1.0000 0.31270  0.40582  0.42410  Biso   1.000  O
  O88      1.0000 0.47390  0.31809  0.48940  Biso   1.000  O
  C161     1.0000 0.68150  0.28780  0.54220  Biso   1.000  C
  H81      1.0000 0.68740  0.30690  0.49910  Biso   1.000  H
  C162     1.0000 0.74790  0.26050  0.60430  Biso   1.000  C
  H82      1.0000 0.79890  0.26160  0.60370  Biso   1.000  H
  C163     1.0000 0.60730  0.28690  0.54360  Biso   1.000  C
  C164     1.0000 0.60150  0.25940  0.60720  Biso   1.000  C
  H83      1.0000 0.55140  0.25920  0.60970  Biso   1.000  H
  C165     1.0000 0.81070  0.20130  0.73160  Biso   1.000  C
  C166     1.0000 0.29440  0.47240  0.53850  Biso   1.000  C
  H84      1.0000 0.25070  0.45120  0.50710  Biso   1.000  H
  C167     1.0000 0.36320  0.47050  0.52620  Biso   1.000  C
  C168     1.0000 0.34720  0.57080  0.70750  Biso   1.000  C
  C169     1.0000 0.73960  0.23220  0.66620  Biso   1.000  C
  C170     1.0000 0.42560  0.50100  0.57250  Biso   1.000  C
  H85      1.0000 0.47350  0.49960  0.56560  Biso   1.000  H
  C171     1.0000 0.37140  0.43340  0.46760  Biso   1.000  C
  C172     1.0000 0.53650  0.31650  0.47790  Biso   1.000  C
  C173     1.0000 0.42000  0.53360  0.62900  Biso   1.000  C
  H86      1.0000 0.46380  0.55490  0.65960  Biso   1.000  H
  C174     1.0000 0.66600  0.23180  0.66780  Biso   1.000  C
  H87      1.0000 0.65960  0.21260  0.71050  Biso   1.000  H
  C175     1.0000 0.28890  0.50470  0.59590  Biso   1.000  C
  H88      1.0000 0.24140  0.50550  0.60380  Biso   1.000  H
  C176     1.0000 0.35180  0.53600  0.64220  Biso   1.000  C
  Cd12     1.0000 0.90412  0.86924  0.36830  Biso   1.000  Cd
  O89      1.0000 0.93790  0.93070  0.46500  Biso   1.000  O
  O90      1.0000 0.03950  0.83793  0.41450  Biso   1.000  O
  O91      1.0000 0.29450  0.67342  0.77790  Biso   1.000  O
  O92      1.0000 0.78560  0.07160  0.71760  Biso   1.000  O
  O93      1.0000 0.37910  0.70521  0.73450  Biso   1.000  O
  O94      1.0000 0.90960  0.09662  0.75000  Biso   1.000  O
  O95      1.0000 0.81270  0.90582  0.42410  Biso   1.000  O
  O96      1.0000 0.97390  0.81809  0.48940  Biso   1.000  O
  C177     1.0000 0.18150  0.78780  0.54220  Biso   1.000  C
  H89      1.0000 0.18740  0.80690  0.49910  Biso   1.000  H
  C178     1.0000 0.24790  0.76050  0.60430  Biso   1.000  C
  H90      1.0000 0.29890  0.76160  0.60370  Biso   1.000  H
  C179     1.0000 0.10730  0.78690  0.54360  Biso   1.000  C
  C180     1.0000 0.10150  0.75940  0.60720  Biso   1.000  C
  H91      1.0000 0.05140  0.75920  0.60970  Biso   1.000  H
  C181     1.0000 0.31070  0.70130  0.73160  Biso   1.000  C
  C182     1.0000 0.79440  0.97240  0.53850  Biso   1.000  C
  H92      1.0000 0.75070  0.95120  0.50710  Biso   1.000  H
  C183     1.0000 0.86320  0.97050  0.52620  Biso   1.000  C
  C184     1.0000 0.84720  0.07080  0.70750  Biso   1.000  C
  C185     1.0000 0.23960  0.73220  0.66620  Biso   1.000  C
  C186     1.0000 0.92560  0.00100  0.57250  Biso   1.000  C
  H93      1.0000 0.97350  0.99960  0.56560  Biso   1.000  H
  C187     1.0000 0.87140  0.93340  0.46760  Biso   1.000  C
  C188     1.0000 0.03650  0.81650  0.47790  Biso   1.000  C
  C189     1.0000 0.92000  0.03360  0.62900  Biso   1.000  C
  H94      1.0000 0.96380  0.05490  0.65960  Biso   1.000  H
  C190     1.0000 0.16600  0.73180  0.66780  Biso   1.000  C
  H95      1.0000 0.15960  0.71260  0.71050  Biso   1.000  H
  C191     1.0000 0.78890  0.00470  0.59590  Biso   1.000  C
  H96      1.0000 0.74140  0.00550  0.60380  Biso   1.000  H
  C192     1.0000 0.85180  0.03600  0.64220  Biso   1.000  C
