data_image0
_cell_length_a       10.4993
_cell_length_b       16.9416
_cell_length_c       12.3346
_cell_angle_alpha    90
_cell_angle_beta     100.516
_cell_angle_gamma    90

_symmetry_space_group_name_H-M    "P 1"
_symmetry_int_tables_number       1

loop_
  _symmetry_equiv_pos_as_xyz
  'x, y, z'

loop_
  _atom_site_label
  _atom_site_occupancy
  _atom_site_fract_x
  _atom_site_fract_y
  _atom_site_fract_z
  _atom_site_thermal_displace_type
  _atom_site_B_iso_or_equiv
  _atom_site_type_symbol
  Cd1      1.0000 0.79437  0.10447  0.16037  Biso   1.000  Cd
  C1       1.0000 0.21290  0.16190  0.25000  Biso   1.000  C
  C2       1.0000 0.22240  0.22560  0.32120  Biso   1.000  C
  H1       1.0000 0.14930  0.24270  0.34720  Biso   1.000  H
  C3       1.0000 0.33910  0.26420  0.35430  Biso   1.000  C
  C4       1.0000 0.44680  0.23890  0.31290  Biso   1.000  C
  H2       1.0000 0.52450  0.26630  0.33140  Biso   1.000  H
  C5       1.0000 0.44020  0.17360  0.24430  Biso   1.000  C
  C6       1.0000 0.32390  0.13440  0.21410  Biso   1.000  C
  H3       1.0000 0.31920  0.08980  0.16970  Biso   1.000  H
  C7       1.0000 0.08400  0.12230  0.20890  Biso   1.000  C
  C8       1.0000 0.35110  0.33170  0.43590  Biso   1.000  C
  C9       1.0000 0.56080  0.14620  0.20670  Biso   1.000  C
  C10      1.0000 0.74060  0.92610  0.07630  Biso   1.000  C
  C11      1.0000 0.57180  0.84720  0.10650  Biso   1.000  C
  H4       1.0000 0.48690  0.84260  0.06020  Biso   1.000  H
  H5       1.0000 0.56570  0.83280  0.18150  Biso   1.000  H
  C12      1.0000 0.66990  0.79710  0.06360  Biso   1.000  C
  H6       1.0000 0.69990  0.75410  0.11380  Biso   1.000  H
  H7       1.0000 0.63460  0.77560  0.99150  Biso   1.000  H
  N1       1.0000 0.62430  0.92710  0.10160  Biso   1.000  N
  H8       1.0000 0.58400  0.96950  0.11370  Biso   1.000  H
  N2       1.0000 0.77430  0.85350  0.05770  Biso   1.000  N
  H9       1.0000 0.84890  0.84060  0.04360  Biso   1.000  H
  O1       1.0000 0.08450  0.05610  0.16440  Biso   1.000  O
  O2       1.0000 0.98510  0.15870  0.22360  Biso   1.000  O
  O3       1.0000 0.26720  0.33690  0.49380  Biso   1.000  O
  O4       1.0000 0.44670  0.37720  0.43860  Biso   1.000  O
  O5       1.0000 0.66120  0.18730  0.23050  Biso   1.000  O
  O6       1.0000 0.55770  0.08380  0.15190  Biso   1.000  O
  O7       1.0000 0.80950  0.98678  0.06900  Biso   1.000  O
  Cd2      1.0000 0.70563  0.60447  0.33963  Biso   1.000  Cd
  C13      1.0000 0.28710  0.66190  0.25000  Biso   1.000  C
  C14      1.0000 0.27760  0.72560  0.17880  Biso   1.000  C
  H10      1.0000 0.35070  0.74270  0.15280  Biso   1.000  H
  C15      1.0000 0.16090  0.76420  0.14570  Biso   1.000  C
  C16      1.0000 0.05320  0.73890  0.18710  Biso   1.000  C
  H11      1.0000 0.97550  0.76630  0.16860  Biso   1.000  H
  C17      1.0000 0.05980  0.67360  0.25570  Biso   1.000  C
  C18      1.0000 0.17610  0.63440  0.28590  Biso   1.000  C
  H12      1.0000 0.18080  0.58980  0.33030  Biso   1.000  H
  C19      1.0000 0.41600  0.62230  0.29110  Biso   1.000  C
  C20      1.0000 0.14890  0.83170  0.06410  Biso   1.000  C
  C21      1.0000 0.93920  0.64620  0.29330  Biso   1.000  C
  C22      1.0000 0.75940  0.42610  0.42370  Biso   1.000  C
  C23      1.0000 0.92820  0.34720  0.39350  Biso   1.000  C
  H13      1.0000 0.01310  0.34260  0.43980  Biso   1.000  H
  H14      1.0000 0.93430  0.33280  0.31850  Biso   1.000  H
  C24      1.0000 0.83010  0.29710  0.43640  Biso   1.000  C
  H15      1.0000 0.80010  0.25410  0.38620  Biso   1.000  H
  H16      1.0000 0.86540  0.27560  0.50850  Biso   1.000  H
  N3       1.0000 0.87570  0.42710  0.39840  Biso   1.000  N
  H17      1.0000 0.91600  0.46950  0.38630  Biso   1.000  H
  N4       1.0000 0.72570  0.35350  0.44230  Biso   1.000  N
  H18      1.0000 0.65110  0.34060  0.45640  Biso   1.000  H
  O8       1.0000 0.41550  0.55610  0.33560  Biso   1.000  O
  O9       1.0000 0.51490  0.65870  0.27640  Biso   1.000  O
  O10      1.0000 0.23280  0.83690  0.00620  Biso   1.000  O
  O11      1.0000 0.05330  0.87720  0.06140  Biso   1.000  O
  O12      1.0000 0.83880  0.68730  0.26950  Biso   1.000  O
  O13      1.0000 0.94230  0.58380  0.34810  Biso   1.000  O
  O14      1.0000 0.69050  0.48678  0.43100  Biso   1.000  O
  Cd3      1.0000 0.20563  0.89553  0.83963  Biso   1.000  Cd
  C25      1.0000 0.78710  0.83810  0.75000  Biso   1.000  C
  C26      1.0000 0.77760  0.77440  0.67880  Biso   1.000  C
  H19      1.0000 0.85070  0.75730  0.65280  Biso   1.000  H
  C27      1.0000 0.66090  0.73580  0.64570  Biso   1.000  C
  C28      1.0000 0.55320  0.76110  0.68710  Biso   1.000  C
  H20      1.0000 0.47550  0.73370  0.66860  Biso   1.000  H
  C29      1.0000 0.55980  0.82640  0.75570  Biso   1.000  C
  C30      1.0000 0.67610  0.86560  0.78590  Biso   1.000  C
  H21      1.0000 0.68080  0.91020  0.83030  Biso   1.000  H
  C31      1.0000 0.91600  0.87770  0.79110  Biso   1.000  C
  C32      1.0000 0.64890  0.66830  0.56410  Biso   1.000  C
  C33      1.0000 0.43920  0.85380  0.79330  Biso   1.000  C
  C34      1.0000 0.25940  0.07390  0.92370  Biso   1.000  C
  C35      1.0000 0.42820  0.15280  0.89350  Biso   1.000  C
  H22      1.0000 0.51310  0.15740  0.93980  Biso   1.000  H
  H23      1.0000 0.43430  0.16720  0.81850  Biso   1.000  H
  C36      1.0000 0.33010  0.20290  0.93640  Biso   1.000  C
  H24      1.0000 0.30010  0.24590  0.88620  Biso   1.000  H
  H25      1.0000 0.36540  0.22440  0.00850  Biso   1.000  H
  N5       1.0000 0.37570  0.07290  0.89840  Biso   1.000  N
  H26      1.0000 0.41600  0.03050  0.88630  Biso   1.000  H
  N6       1.0000 0.22570  0.14650  0.94230  Biso   1.000  N
  H27      1.0000 0.15110  0.15940  0.95640  Biso   1.000  H
  O15      1.0000 0.91550  0.94390  0.83560  Biso   1.000  O
  O16      1.0000 0.01490  0.84130  0.77640  Biso   1.000  O
  O17      1.0000 0.73280  0.66310  0.50620  Biso   1.000  O
  O18      1.0000 0.55330  0.62280  0.56140  Biso   1.000  O
  O19      1.0000 0.33880  0.81270  0.76950  Biso   1.000  O
  O20      1.0000 0.44230  0.91620  0.84810  Biso   1.000  O
  O21      1.0000 0.19050  0.01322  0.93100  Biso   1.000  O
  Cd4      1.0000 0.29437  0.39553  0.66037  Biso   1.000  Cd
  C37      1.0000 0.71290  0.33810  0.75000  Biso   1.000  C
  C38      1.0000 0.72240  0.27440  0.82120  Biso   1.000  C
  H28      1.0000 0.64930  0.25730  0.84720  Biso   1.000  H
  C39      1.0000 0.83910  0.23580  0.85430  Biso   1.000  C
  C40      1.0000 0.94680  0.26110  0.81290  Biso   1.000  C
  H29      1.0000 0.02450  0.23370  0.83140  Biso   1.000  H
  C41      1.0000 0.94020  0.32640  0.74430  Biso   1.000  C
  C42      1.0000 0.82390  0.36560  0.71410  Biso   1.000  C
  H30      1.0000 0.81920  0.41020  0.66970  Biso   1.000  H
  C43      1.0000 0.58400  0.37770  0.70890  Biso   1.000  C
  C44      1.0000 0.85110  0.16830  0.93590  Biso   1.000  C
  C45      1.0000 0.06080  0.35380  0.70670  Biso   1.000  C
  C46      1.0000 0.24060  0.57390  0.57630  Biso   1.000  C
  C47      1.0000 0.07180  0.65280  0.60650  Biso   1.000  C
  H31      1.0000 0.98690  0.65740  0.56020  Biso   1.000  H
  H32      1.0000 0.06570  0.66720  0.68150  Biso   1.000  H
  C48      1.0000 0.16990  0.70290  0.56360  Biso   1.000  C
  H33      1.0000 0.19990  0.74590  0.61380  Biso   1.000  H
  H34      1.0000 0.13460  0.72440  0.49150  Biso   1.000  H
  N7       1.0000 0.12430  0.57290  0.60160  Biso   1.000  N
  H35      1.0000 0.08400  0.53050  0.61370  Biso   1.000  H
  N8       1.0000 0.27430  0.64650  0.55770  Biso   1.000  N
  H36      1.0000 0.34890  0.65940  0.54360  Biso   1.000  H
  O22      1.0000 0.58450  0.44390  0.66440  Biso   1.000  O
  O23      1.0000 0.48510  0.34130  0.72360  Biso   1.000  O
  O24      1.0000 0.76720  0.16310  0.99380  Biso   1.000  O
  O25      1.0000 0.94670  0.12280  0.93860  Biso   1.000  O
  O26      1.0000 0.16120  0.31270  0.73050  Biso   1.000  O
  O27      1.0000 0.05770  0.41620  0.65190  Biso   1.000  O
  O28      1.0000 0.30950  0.51322  0.56900  Biso   1.000  O
  Cd5      1.0000 0.00000  0.00000  0.00000  Biso   1.000  Cd
  Cd6      1.0000 0.50000  0.50000  0.50000  Biso   1.000  Cd
