data_image0
_cell_length_a       10.366
_cell_length_b       10.4724
_cell_length_c       12.9582
_cell_angle_alpha    95.243
_cell_angle_beta     102.189
_cell_angle_gamma    106.434

_symmetry_space_group_name_H-M    "P 1"
_symmetry_int_tables_number       1

loop_
  _symmetry_equiv_pos_as_xyz
  'x, y, z'

loop_
  _atom_site_label
  _atom_site_occupancy
  _atom_site_fract_x
  _atom_site_fract_y
  _atom_site_fract_z
  _atom_site_thermal_displace_type
  _atom_site_B_iso_or_equiv
  _atom_site_type_symbol
  Cu1      1.0000 0.81163  0.22564  0.24017  Biso   1.000  Cu
  S1       1.0000 0.26676  0.21993  0.21507  Biso   1.000  S
  S2       1.0000 0.81864  0.75839  0.27704  Biso   1.000  S
  C1       1.0000 0.08930  0.30370  0.31750  Biso   1.000  C
  C2       1.0000 0.23240  0.30150  0.32210  Biso   1.000  C
  C3       1.0000 0.34750  0.35070  0.40610  Biso   1.000  C
  H1       1.0000 0.34820  0.39770  0.47080  Biso   1.000  H
  C4       1.0000 0.46530  0.32220  0.38370  Biso   1.000  C
  H2       1.0000 0.55220  0.34890  0.43170  Biso   1.000  H
  C5       1.0000 0.43660  0.25110  0.28360  Biso   1.000  C
  C6       1.0000 0.53060  0.20080  0.23110  Biso   1.000  C
  C7       1.0000 0.76480  0.97130  0.18010  Biso   1.000  C
  C8       1.0000 0.75870  0.82750  0.16920  Biso   1.000  C
  C9       1.0000 0.70760  0.73420  0.07790  Biso   1.000  C
  H3       1.0000 0.66900  0.75290  0.01170  Biso   1.000  H
  C10      1.0000 0.71940  0.60750  0.09480  Biso   1.000  C
  H4       1.0000 0.69020  0.53320  0.04080  Biso   1.000  H
  C11      1.0000 0.77790  0.60450  0.19830  Biso   1.000  C
  C12      1.0000 0.80990  0.49050  0.24700  Biso   1.000  C
  O1       1.0000 0.00240  0.26030  0.22750  Biso   1.000  O
  O2       1.0000 0.06150  0.34290  0.40130  Biso   1.000  O
  O3       1.0000 0.64680  0.21020  0.29140  Biso   1.000  O
  O4       1.0000 0.48930  0.15460  0.13430  Biso   1.000  O
  O5       1.0000 0.81640  0.04350  0.27220  Biso   1.000  O
  O6       1.0000 0.71980  0.01720  0.09890  Biso   1.000  O
  O7       1.0000 0.84770  0.50420  0.34590  Biso   1.000  O
  O8       1.0000 0.79440  0.38620  0.18160  Biso   1.000  O
  Cu2      1.0000 0.18837  0.77436  0.75983  Biso   1.000  Cu
  S3       1.0000 0.73324  0.78007  0.78493  Biso   1.000  S
  S4       1.0000 0.18136  0.24161  0.72296  Biso   1.000  S
  C13      1.0000 0.91070  0.69630  0.68250  Biso   1.000  C
  C14      1.0000 0.76760  0.69850  0.67790  Biso   1.000  C
  C15      1.0000 0.65250  0.64930  0.59390  Biso   1.000  C
  H5       1.0000 0.65180  0.60230  0.52920  Biso   1.000  H
  C16      1.0000 0.53470  0.67780  0.61630  Biso   1.000  C
  H6       1.0000 0.44780  0.65110  0.56830  Biso   1.000  H
  C17      1.0000 0.56340  0.74890  0.71640  Biso   1.000  C
  C18      1.0000 0.46940  0.79920  0.76890  Biso   1.000  C
  C19      1.0000 0.23520  0.02870  0.81990  Biso   1.000  C
  C20      1.0000 0.24130  0.17250  0.83080  Biso   1.000  C
  C21      1.0000 0.29240  0.26580  0.92210  Biso   1.000  C
  H7       1.0000 0.33100  0.24710  0.98830  Biso   1.000  H
  C22      1.0000 0.28060  0.39250  0.90520  Biso   1.000  C
  H8       1.0000 0.30980  0.46680  0.95920  Biso   1.000  H
  C23      1.0000 0.22210  0.39550  0.80170  Biso   1.000  C
  C24      1.0000 0.19010  0.50950  0.75300  Biso   1.000  C
  O9       1.0000 0.99760  0.73970  0.77250  Biso   1.000  O
  O10      1.0000 0.93850  0.65710  0.59870  Biso   1.000  O
  O11      1.0000 0.35320  0.78980  0.70860  Biso   1.000  O
  O12      1.0000 0.51070  0.84540  0.86570  Biso   1.000  O
  O13      1.0000 0.18360  0.95650  0.72780  Biso   1.000  O
  O14      1.0000 0.28020  0.98280  0.90110  Biso   1.000  O
  O15      1.0000 0.15230  0.49580  0.65410  Biso   1.000  O
  O16      1.0000 0.20560  0.61380  0.81840  Biso   1.000  O
  Ca1      1.0000 0.00000  0.50000  0.50000  Biso   1.000  Ca
  Ca2      1.0000 0.50000  0.00000  0.00000  Biso   1.000  Ca
