data_image0
_cell_length_a       14.0147
_cell_length_b       18.3152
_cell_length_c       7.863
_cell_angle_alpha    90
_cell_angle_beta     105.464
_cell_angle_gamma    90

_symmetry_space_group_name_H-M    "P 1"
_symmetry_int_tables_number       1

loop_
  _symmetry_equiv_pos_as_xyz
  'x, y, z'

loop_
  _atom_site_label
  _atom_site_occupancy
  _atom_site_fract_x
  _atom_site_fract_y
  _atom_site_fract_z
  _atom_site_thermal_displace_type
  _atom_site_B_iso_or_equiv
  _atom_site_type_symbol
  Cd1      1.0000 0.81811  0.44108  0.22793  Biso   1.000  Cd
  C1       1.0000 0.86320  0.68750  0.22230  Biso   1.000  C
  C2       1.0000 0.93270  0.73920  0.21170  Biso   1.000  C
  H1       1.0000 0.99260  0.72520  0.19210  Biso   1.000  H
  C3       1.0000 0.91230  0.81310  0.23060  Biso   1.000  C
  C4       1.0000 0.82220  0.83400  0.25140  Biso   1.000  C
  H2       1.0000 0.80840  0.88340  0.25840  Biso   1.000  H
  C5       1.0000 0.75040  0.78210  0.26210  Biso   1.000  C
  C6       1.0000 0.77370  0.70840  0.24950  Biso   1.000  C
  H3       1.0000 0.72820  0.67280  0.25950  Biso   1.000  H
  C7       1.0000 0.88530  0.60710  0.19640  Biso   1.000  C
  C8       1.0000 0.99160  0.86850  0.23540  Biso   1.000  C
  C9       1.0000 0.65090  0.80520  0.27850  Biso   1.000  C
  C10      1.0000 0.63900  0.86970  0.36680  Biso   1.000  C
  H4       1.0000 0.69440  0.89730  0.42110  Biso   1.000  H
  C11      1.0000 0.54730  0.89260  0.37480  Biso   1.000  C
  H5       1.0000 0.54130  0.93570  0.43380  Biso   1.000  H
  C12      1.0000 0.46280  0.85230  0.29550  Biso   1.000  C
  C13      1.0000 0.47640  0.78660  0.21150  Biso   1.000  C
  H6       1.0000 0.42180  0.75730  0.16290  Biso   1.000  H
  C14      1.0000 0.56690  0.76500  0.19930  Biso   1.000  C
  H7       1.0000 0.57260  0.72280  0.13720  Biso   1.000  H
  C15      1.0000 0.36260  0.87910  0.29840  Biso   1.000  C
  O1       1.0000 0.82680  0.56190  0.22900  Biso   1.000  O
  O2       1.0000 0.95840  0.59380  0.14110  Biso   1.000  O
  O3       1.0000 0.07720  0.84490  0.23720  Biso   1.000  O
  O4       1.0000 0.97380  0.93520  0.24320  Biso   1.000  O
  O5       1.0000 0.35220  0.93990  0.35320  Biso   1.000  O
  O6       1.0000 0.29040  0.84160  0.23520  Biso   1.000  O
  Cd2      1.0000 0.18189  0.94108  0.27207  Biso   1.000  Cd
  C16      1.0000 0.13680  0.18750  0.27770  Biso   1.000  C
  C17      1.0000 0.06730  0.23920  0.28830  Biso   1.000  C
  H8       1.0000 0.00740  0.22520  0.30790  Biso   1.000  H
  C18      1.0000 0.08770  0.31310  0.26940  Biso   1.000  C
  C19      1.0000 0.17780  0.33400  0.24860  Biso   1.000  C
  H9       1.0000 0.19160  0.38340  0.24160  Biso   1.000  H
  C20      1.0000 0.24960  0.28210  0.23790  Biso   1.000  C
  C21      1.0000 0.22630  0.20840  0.25050  Biso   1.000  C
  H10      1.0000 0.27180  0.17280  0.24050  Biso   1.000  H
  C22      1.0000 0.11470  0.10710  0.30360  Biso   1.000  C
  C23      1.0000 0.00840  0.36850  0.26460  Biso   1.000  C
  C24      1.0000 0.34910  0.30520  0.22150  Biso   1.000  C
  C25      1.0000 0.36100  0.36970  0.13320  Biso   1.000  C
  H11      1.0000 0.30560  0.39730  0.07890  Biso   1.000  H
  C26      1.0000 0.45270  0.39260  0.12520  Biso   1.000  C
  H12      1.0000 0.45870  0.43570  0.06620  Biso   1.000  H
  C27      1.0000 0.53720  0.35230  0.20450  Biso   1.000  C
  C28      1.0000 0.52360  0.28660  0.28850  Biso   1.000  C
  H13      1.0000 0.57820  0.25730  0.33710  Biso   1.000  H
  C29      1.0000 0.43310  0.26500  0.30070  Biso   1.000  C
  H14      1.0000 0.42740  0.22280  0.36280  Biso   1.000  H
  C30      1.0000 0.63740  0.37910  0.20160  Biso   1.000  C
  O7       1.0000 0.17320  0.06190  0.27100  Biso   1.000  O
  O8       1.0000 0.04160  0.09380  0.35890  Biso   1.000  O
  O9       1.0000 0.92280  0.34490  0.26280  Biso   1.000  O
  O10      1.0000 0.02620  0.43520  0.25680  Biso   1.000  O
  O11      1.0000 0.64780  0.43990  0.14680  Biso   1.000  O
  O12      1.0000 0.70960  0.34160  0.26480  Biso   1.000  O
  Cd3      1.0000 0.18189  0.55892  0.77207  Biso   1.000  Cd
  C31      1.0000 0.13680  0.31250  0.77770  Biso   1.000  C
  C32      1.0000 0.06730  0.26080  0.78830  Biso   1.000  C
  H15      1.0000 0.00740  0.27480  0.80790  Biso   1.000  H
  C33      1.0000 0.08770  0.18690  0.76940  Biso   1.000  C
  C34      1.0000 0.17780  0.16600  0.74860  Biso   1.000  C
  H16      1.0000 0.19160  0.11660  0.74160  Biso   1.000  H
  C35      1.0000 0.24960  0.21790  0.73790  Biso   1.000  C
  C36      1.0000 0.22630  0.29160  0.75050  Biso   1.000  C
  H17      1.0000 0.27180  0.32720  0.74050  Biso   1.000  H
  C37      1.0000 0.11470  0.39290  0.80360  Biso   1.000  C
  C38      1.0000 0.00840  0.13150  0.76460  Biso   1.000  C
  C39      1.0000 0.34910  0.19480  0.72150  Biso   1.000  C
  C40      1.0000 0.36100  0.13030  0.63320  Biso   1.000  C
  H18      1.0000 0.30560  0.10270  0.57890  Biso   1.000  H
  C41      1.0000 0.45270  0.10740  0.62520  Biso   1.000  C
  H19      1.0000 0.45870  0.06430  0.56620  Biso   1.000  H
  C42      1.0000 0.53720  0.14770  0.70450  Biso   1.000  C
  C43      1.0000 0.52360  0.21340  0.78850  Biso   1.000  C
  H20      1.0000 0.57820  0.24270  0.83710  Biso   1.000  H
  C44      1.0000 0.43310  0.23500  0.80070  Biso   1.000  C
  H21      1.0000 0.42740  0.27720  0.86280  Biso   1.000  H
  C45      1.0000 0.63740  0.12090  0.70160  Biso   1.000  C
  O13      1.0000 0.17320  0.43810  0.77100  Biso   1.000  O
  O14      1.0000 0.04160  0.40620  0.85890  Biso   1.000  O
  O15      1.0000 0.92280  0.15510  0.76280  Biso   1.000  O
  O16      1.0000 0.02620  0.06480  0.75680  Biso   1.000  O
  O17      1.0000 0.64780  0.06010  0.64680  Biso   1.000  O
  O18      1.0000 0.70960  0.15840  0.76480  Biso   1.000  O
  Cd4      1.0000 0.81811  0.05892  0.72793  Biso   1.000  Cd
  C46      1.0000 0.86320  0.81250  0.72230  Biso   1.000  C
  C47      1.0000 0.93270  0.76080  0.71170  Biso   1.000  C
  H22      1.0000 0.99260  0.77480  0.69210  Biso   1.000  H
  C48      1.0000 0.91230  0.68690  0.73060  Biso   1.000  C
  C49      1.0000 0.82220  0.66600  0.75140  Biso   1.000  C
  H23      1.0000 0.80840  0.61660  0.75840  Biso   1.000  H
  C50      1.0000 0.75040  0.71790  0.76210  Biso   1.000  C
  C51      1.0000 0.77370  0.79160  0.74950  Biso   1.000  C
  H24      1.0000 0.72820  0.82720  0.75950  Biso   1.000  H
  C52      1.0000 0.88530  0.89290  0.69640  Biso   1.000  C
  C53      1.0000 0.99160  0.63150  0.73540  Biso   1.000  C
  C54      1.0000 0.65090  0.69480  0.77850  Biso   1.000  C
  C55      1.0000 0.63900  0.63030  0.86680  Biso   1.000  C
  H25      1.0000 0.69440  0.60270  0.92110  Biso   1.000  H
  C56      1.0000 0.54730  0.60740  0.87480  Biso   1.000  C
  H26      1.0000 0.54130  0.56430  0.93380  Biso   1.000  H
  C57      1.0000 0.46280  0.64770  0.79550  Biso   1.000  C
  C58      1.0000 0.47640  0.71340  0.71150  Biso   1.000  C
  H27      1.0000 0.42180  0.74270  0.66290  Biso   1.000  H
  C59      1.0000 0.56690  0.73500  0.69930  Biso   1.000  C
  H28      1.0000 0.57260  0.77720  0.63720  Biso   1.000  H
  C60      1.0000 0.36260  0.62090  0.79840  Biso   1.000  C
  O19      1.0000 0.82680  0.93810  0.72900  Biso   1.000  O
  O20      1.0000 0.95840  0.90620  0.64110  Biso   1.000  O
  O21      1.0000 0.07720  0.65510  0.73720  Biso   1.000  O
  O22      1.0000 0.97380  0.56480  0.74320  Biso   1.000  O
  O23      1.0000 0.35220  0.56010  0.85320  Biso   1.000  O
  O24      1.0000 0.29040  0.65840  0.73520  Biso   1.000  O
  Cd5      1.0000 0.00000  0.50000  0.00000  Biso   1.000  Cd
  Cd6      1.0000 0.00000  0.00000  0.50000  Biso   1.000  Cd
