data_image0
_cell_length_a       13.657
_cell_length_b       18.686
_cell_length_c       31.503
_cell_angle_alpha    90
_cell_angle_beta     101.532
_cell_angle_gamma    90

_symmetry_space_group_name_H-M    "P 1"
_symmetry_int_tables_number       1

loop_
  _symmetry_equiv_pos_as_xyz
  'x, y, z'

loop_
  _atom_site_label
  _atom_site_occupancy
  _atom_site_fract_x
  _atom_site_fract_y
  _atom_site_fract_z
  _atom_site_thermal_displace_type
  _atom_site_B_iso_or_equiv
  _atom_site_type_symbol
  Cu1      1.0000 0.80976  0.28179  0.22732  Biso   1.000  Cu
  O1       1.0000 0.94660  0.07294  0.44649  Biso   1.000  O
  O2       1.0000 0.11120  0.07172  0.47368  Biso   1.000  O
  O3       1.0000 0.91260  0.24880  0.27533  Biso   1.000  O
  O4       1.0000 0.81290  0.19547  0.31376  Biso   1.000  O
  O5       1.0000 0.79030  0.36838  0.25983  Biso   1.000  O
  O6       1.0000 0.69340  0.31378  0.29947  Biso   1.000  O
  N1       1.0000 0.58060  0.18270  0.30805  Biso   1.000  N
  N2       1.0000 0.26150  0.19140  0.35640  Biso   1.000  N
  C1       1.0000 0.58520  0.20540  0.34850  Biso   1.000  C
  H1       1.0000 0.64570  0.22610  0.36160  Biso   1.000  H
  C2       1.0000 0.51320  0.20300  0.37420  Biso   1.000  C
  H2       1.0000 0.52430  0.21830  0.40280  Biso   1.000  H
  C3       1.0000 0.42220  0.17490  0.35200  Biso   1.000  C
  C4       1.0000 0.41510  0.14780  0.30990  Biso   1.000  C
  H3       1.0000 0.35510  0.12780  0.29570  Biso   1.000  H
  C5       1.0000 0.49660  0.15000  0.28850  Biso   1.000  C
  H4       1.0000 0.49180  0.12920  0.26140  Biso   1.000  H
  C6       1.0000 0.34500  0.17190  0.37870  Biso   1.000  C
  C7       1.0000 0.16390  0.18230  0.36616  Biso   1.000  C
  C8       1.0000 0.14800  0.14850  0.40326  Biso   1.000  C
  H5       1.0000 0.20220  0.13520  0.42470  Biso   1.000  H
  C9       1.0000 0.05160  0.13450  0.40859  Biso   1.000  C
  C10      1.0000 0.97190  0.15670  0.37820  Biso   1.000  C
  H6       1.0000 0.90750  0.14760  0.38230  Biso   1.000  H
  C11      1.0000 0.98530  0.19250  0.34136  Biso   1.000  C
  C12      1.0000 0.08040  0.20610  0.33518  Biso   1.000  C
  H7       1.0000 0.08980  0.23080  0.31070  Biso   1.000  H
  C13      1.0000 0.03500  0.08990  0.44624  Biso   1.000  C
  C14      1.0000 0.89670  0.21470  0.30833  Biso   1.000  C
  C15      1.0000 0.68530  0.43610  0.34800  Biso   1.000  C
  H8       1.0000 0.67200  0.39320  0.36070  Biso   1.000  H
  C16      1.0000 0.72500  0.43530  0.31075  Biso   1.000  C
  C17      1.0000 0.73820  0.36770  0.28863  Biso   1.000  C
  H9       1.0000 0.37230  0.17700  0.40750  Biso   1.000  H
  Cu2      1.0000 0.30976  0.78179  0.72732  Biso   1.000  Cu
  O7       1.0000 0.44660  0.57294  0.94649  Biso   1.000  O
  O8       1.0000 0.61120  0.57172  0.97368  Biso   1.000  O
  O9       1.0000 0.41260  0.74880  0.77533  Biso   1.000  O
  O10      1.0000 0.31290  0.69547  0.81376  Biso   1.000  O
  O11      1.0000 0.29030  0.86838  0.75983  Biso   1.000  O
  O12      1.0000 0.19340  0.81378  0.79947  Biso   1.000  O
  N3       1.0000 0.08060  0.68270  0.80805  Biso   1.000  N
  N4       1.0000 0.76150  0.69140  0.85640  Biso   1.000  N
  C18      1.0000 0.08520  0.70540  0.84850  Biso   1.000  C
  H10      1.0000 0.14570  0.72610  0.86160  Biso   1.000  H
  C19      1.0000 0.01320  0.70300  0.87420  Biso   1.000  C
  H11      1.0000 0.02430  0.71830  0.90280  Biso   1.000  H
  C20      1.0000 0.92220  0.67490  0.85200  Biso   1.000  C
  C21      1.0000 0.91510  0.64780  0.80990  Biso   1.000  C
  H12      1.0000 0.85510  0.62780  0.79570  Biso   1.000  H
  C22      1.0000 0.99660  0.65000  0.78850  Biso   1.000  C
  H13      1.0000 0.99180  0.62920  0.76140  Biso   1.000  H
  C23      1.0000 0.84500  0.67190  0.87870  Biso   1.000  C
  C24      1.0000 0.66390  0.68230  0.86616  Biso   1.000  C
  C25      1.0000 0.64800  0.64850  0.90326  Biso   1.000  C
  H14      1.0000 0.70220  0.63520  0.92470  Biso   1.000  H
  C26      1.0000 0.55160  0.63450  0.90859  Biso   1.000  C
  C27      1.0000 0.47190  0.65670  0.87820  Biso   1.000  C
  H15      1.0000 0.40750  0.64760  0.88230  Biso   1.000  H
  C28      1.0000 0.48530  0.69250  0.84136  Biso   1.000  C
  C29      1.0000 0.58040  0.70610  0.83518  Biso   1.000  C
  H16      1.0000 0.58980  0.73080  0.81070  Biso   1.000  H
  C30      1.0000 0.53500  0.58990  0.94624  Biso   1.000  C
  C31      1.0000 0.39670  0.71470  0.80833  Biso   1.000  C
  C32      1.0000 0.18530  0.93610  0.84800  Biso   1.000  C
  H17      1.0000 0.17200  0.89320  0.86070  Biso   1.000  H
  C33      1.0000 0.22500  0.93530  0.81075  Biso   1.000  C
  C34      1.0000 0.23820  0.86770  0.78863  Biso   1.000  C
  H18      1.0000 0.87230  0.67700  0.90750  Biso   1.000  H
  Cu3      1.0000 0.19024  0.28179  0.77268  Biso   1.000  Cu
  O13      1.0000 0.05340  0.07294  0.55351  Biso   1.000  O
  O14      1.0000 0.88880  0.07172  0.52632  Biso   1.000  O
  O15      1.0000 0.08740  0.24880  0.72467  Biso   1.000  O
  O16      1.0000 0.18710  0.19547  0.68624  Biso   1.000  O
  O17      1.0000 0.20970  0.36838  0.74017  Biso   1.000  O
  O18      1.0000 0.30660  0.31378  0.70053  Biso   1.000  O
  N5       1.0000 0.41940  0.18270  0.69195  Biso   1.000  N
  N6       1.0000 0.73850  0.19140  0.64360  Biso   1.000  N
  C35      1.0000 0.41480  0.20540  0.65150  Biso   1.000  C
  H19      1.0000 0.35430  0.22610  0.63840  Biso   1.000  H
  C36      1.0000 0.48680  0.20300  0.62580  Biso   1.000  C
  H20      1.0000 0.47570  0.21830  0.59720  Biso   1.000  H
  C37      1.0000 0.57780  0.17490  0.64800  Biso   1.000  C
  C38      1.0000 0.58490  0.14780  0.69010  Biso   1.000  C
  H21      1.0000 0.64490  0.12780  0.70430  Biso   1.000  H
  C39      1.0000 0.50340  0.15000  0.71150  Biso   1.000  C
  H22      1.0000 0.50820  0.12920  0.73860  Biso   1.000  H
  C40      1.0000 0.65500  0.17190  0.62130  Biso   1.000  C
  C41      1.0000 0.83610  0.18230  0.63384  Biso   1.000  C
  C42      1.0000 0.85200  0.14850  0.59674  Biso   1.000  C
  H23      1.0000 0.79780  0.13520  0.57530  Biso   1.000  H
  C43      1.0000 0.94840  0.13450  0.59141  Biso   1.000  C
  C44      1.0000 0.02810  0.15670  0.62180  Biso   1.000  C
  H24      1.0000 0.09250  0.14760  0.61770  Biso   1.000  H
  C45      1.0000 0.01470  0.19250  0.65864  Biso   1.000  C
  C46      1.0000 0.91960  0.20610  0.66482  Biso   1.000  C
  H25      1.0000 0.91020  0.23080  0.68930  Biso   1.000  H
  C47      1.0000 0.96500  0.08990  0.55376  Biso   1.000  C
  C48      1.0000 0.10330  0.21470  0.69167  Biso   1.000  C
  C49      1.0000 0.31470  0.43610  0.65200  Biso   1.000  C
  H26      1.0000 0.32800  0.39320  0.63930  Biso   1.000  H
  C50      1.0000 0.27500  0.43530  0.68925  Biso   1.000  C
  C51      1.0000 0.26180  0.36770  0.71137  Biso   1.000  C
  H27      1.0000 0.62770  0.17700  0.59250  Biso   1.000  H
  Cu4      1.0000 0.69024  0.78179  0.27268  Biso   1.000  Cu
  O19      1.0000 0.55340  0.57294  0.05351  Biso   1.000  O
  O20      1.0000 0.38880  0.57172  0.02632  Biso   1.000  O
  O21      1.0000 0.58740  0.74880  0.22467  Biso   1.000  O
  O22      1.0000 0.68710  0.69547  0.18624  Biso   1.000  O
  O23      1.0000 0.70970  0.86838  0.24017  Biso   1.000  O
  O24      1.0000 0.80660  0.81378  0.20053  Biso   1.000  O
  N7       1.0000 0.91940  0.68270  0.19195  Biso   1.000  N
  N8       1.0000 0.23850  0.69140  0.14360  Biso   1.000  N
  C52      1.0000 0.91480  0.70540  0.15150  Biso   1.000  C
  H28      1.0000 0.85430  0.72610  0.13840  Biso   1.000  H
  C53      1.0000 0.98680  0.70300  0.12580  Biso   1.000  C
  H29      1.0000 0.97570  0.71830  0.09720  Biso   1.000  H
  C54      1.0000 0.07780  0.67490  0.14800  Biso   1.000  C
  C55      1.0000 0.08490  0.64780  0.19010  Biso   1.000  C
  H30      1.0000 0.14490  0.62780  0.20430  Biso   1.000  H
  C56      1.0000 0.00340  0.65000  0.21150  Biso   1.000  C
  H31      1.0000 0.00820  0.62920  0.23860  Biso   1.000  H
  C57      1.0000 0.15500  0.67190  0.12130  Biso   1.000  C
  C58      1.0000 0.33610  0.68230  0.13384  Biso   1.000  C
  C59      1.0000 0.35200  0.64850  0.09674  Biso   1.000  C
  H32      1.0000 0.29780  0.63520  0.07530  Biso   1.000  H
  C60      1.0000 0.44840  0.63450  0.09141  Biso   1.000  C
  C61      1.0000 0.52810  0.65670  0.12180  Biso   1.000  C
  H33      1.0000 0.59250  0.64760  0.11770  Biso   1.000  H
  C62      1.0000 0.51470  0.69250  0.15864  Biso   1.000  C
  C63      1.0000 0.41960  0.70610  0.16482  Biso   1.000  C
  H34      1.0000 0.41020  0.73080  0.18930  Biso   1.000  H
  C64      1.0000 0.46500  0.58990  0.05376  Biso   1.000  C
  C65      1.0000 0.60330  0.71470  0.19167  Biso   1.000  C
  C66      1.0000 0.81470  0.93610  0.15200  Biso   1.000  C
  H35      1.0000 0.82800  0.89320  0.13930  Biso   1.000  H
  C67      1.0000 0.77500  0.93530  0.18925  Biso   1.000  C
  C68      1.0000 0.76180  0.86770  0.21137  Biso   1.000  C
  H36      1.0000 0.12770  0.67700  0.09250  Biso   1.000  H
  Cu5      1.0000 0.19024  0.71821  0.77268  Biso   1.000  Cu
  O25      1.0000 0.05340  0.92706  0.55351  Biso   1.000  O
  O26      1.0000 0.88880  0.92828  0.52632  Biso   1.000  O
  O27      1.0000 0.08740  0.75120  0.72467  Biso   1.000  O
  O28      1.0000 0.18710  0.80453  0.68624  Biso   1.000  O
  O29      1.0000 0.20970  0.63162  0.74017  Biso   1.000  O
  O30      1.0000 0.30660  0.68622  0.70053  Biso   1.000  O
  N9       1.0000 0.41940  0.81730  0.69195  Biso   1.000  N
  N10      1.0000 0.73850  0.80860  0.64360  Biso   1.000  N
  C69      1.0000 0.41480  0.79460  0.65150  Biso   1.000  C
  H37      1.0000 0.35430  0.77390  0.63840  Biso   1.000  H
  C70      1.0000 0.48680  0.79700  0.62580  Biso   1.000  C
  H38      1.0000 0.47570  0.78170  0.59720  Biso   1.000  H
  C71      1.0000 0.57780  0.82510  0.64800  Biso   1.000  C
  C72      1.0000 0.58490  0.85220  0.69010  Biso   1.000  C
  H39      1.0000 0.64490  0.87220  0.70430  Biso   1.000  H
  C73      1.0000 0.50340  0.85000  0.71150  Biso   1.000  C
  H40      1.0000 0.50820  0.87080  0.73860  Biso   1.000  H
  C74      1.0000 0.65500  0.82810  0.62130  Biso   1.000  C
  C75      1.0000 0.83610  0.81770  0.63384  Biso   1.000  C
  C76      1.0000 0.85200  0.85150  0.59674  Biso   1.000  C
  H41      1.0000 0.79780  0.86480  0.57530  Biso   1.000  H
  C77      1.0000 0.94840  0.86550  0.59141  Biso   1.000  C
  C78      1.0000 0.02810  0.84330  0.62180  Biso   1.000  C
  H42      1.0000 0.09250  0.85240  0.61770  Biso   1.000  H
  C79      1.0000 0.01470  0.80750  0.65864  Biso   1.000  C
  C80      1.0000 0.91960  0.79390  0.66482  Biso   1.000  C
  H43      1.0000 0.91020  0.76920  0.68930  Biso   1.000  H
  C81      1.0000 0.96500  0.91010  0.55376  Biso   1.000  C
  C82      1.0000 0.10330  0.78530  0.69167  Biso   1.000  C
  C83      1.0000 0.31470  0.56390  0.65200  Biso   1.000  C
  H44      1.0000 0.32800  0.60680  0.63930  Biso   1.000  H
  C84      1.0000 0.27500  0.56470  0.68925  Biso   1.000  C
  C85      1.0000 0.26180  0.63230  0.71137  Biso   1.000  C
  H45      1.0000 0.62770  0.82300  0.59250  Biso   1.000  H
  Cu6      1.0000 0.69024  0.21821  0.27268  Biso   1.000  Cu
  O31      1.0000 0.55340  0.42706  0.05351  Biso   1.000  O
  O32      1.0000 0.38880  0.42828  0.02632  Biso   1.000  O
  O33      1.0000 0.58740  0.25120  0.22467  Biso   1.000  O
  O34      1.0000 0.68710  0.30453  0.18624  Biso   1.000  O
  O35      1.0000 0.70970  0.13162  0.24017  Biso   1.000  O
  O36      1.0000 0.80660  0.18622  0.20053  Biso   1.000  O
  N11      1.0000 0.91940  0.31730  0.19195  Biso   1.000  N
  N12      1.0000 0.23850  0.30860  0.14360  Biso   1.000  N
  C86      1.0000 0.91480  0.29460  0.15150  Biso   1.000  C
  H46      1.0000 0.85430  0.27390  0.13840  Biso   1.000  H
  C87      1.0000 0.98680  0.29700  0.12580  Biso   1.000  C
  H47      1.0000 0.97570  0.28170  0.09720  Biso   1.000  H
  C88      1.0000 0.07780  0.32510  0.14800  Biso   1.000  C
  C89      1.0000 0.08490  0.35220  0.19010  Biso   1.000  C
  H48      1.0000 0.14490  0.37220  0.20430  Biso   1.000  H
  C90      1.0000 0.00340  0.35000  0.21150  Biso   1.000  C
  H49      1.0000 0.00820  0.37080  0.23860  Biso   1.000  H
  C91      1.0000 0.15500  0.32810  0.12130  Biso   1.000  C
  C92      1.0000 0.33610  0.31770  0.13384  Biso   1.000  C
  C93      1.0000 0.35200  0.35150  0.09674  Biso   1.000  C
  H50      1.0000 0.29780  0.36480  0.07530  Biso   1.000  H
  C94      1.0000 0.44840  0.36550  0.09141  Biso   1.000  C
  C95      1.0000 0.52810  0.34330  0.12180  Biso   1.000  C
  H51      1.0000 0.59250  0.35240  0.11770  Biso   1.000  H
  C96      1.0000 0.51470  0.30750  0.15864  Biso   1.000  C
  C97      1.0000 0.41960  0.29390  0.16482  Biso   1.000  C
  H52      1.0000 0.41020  0.26920  0.18930  Biso   1.000  H
  C98      1.0000 0.46500  0.41010  0.05376  Biso   1.000  C
  C99      1.0000 0.60330  0.28530  0.19167  Biso   1.000  C
  C100     1.0000 0.81470  0.06390  0.15200  Biso   1.000  C
  H53      1.0000 0.82800  0.10680  0.13930  Biso   1.000  H
  C101     1.0000 0.77500  0.06470  0.18925  Biso   1.000  C
  C102     1.0000 0.76180  0.13230  0.21137  Biso   1.000  C
  H54      1.0000 0.12770  0.32300  0.09250  Biso   1.000  H
  Cu7      1.0000 0.80976  0.71821  0.22732  Biso   1.000  Cu
  O37      1.0000 0.94660  0.92706  0.44649  Biso   1.000  O
  O38      1.0000 0.11120  0.92828  0.47368  Biso   1.000  O
  O39      1.0000 0.91260  0.75120  0.27533  Biso   1.000  O
  O40      1.0000 0.81290  0.80453  0.31376  Biso   1.000  O
  O41      1.0000 0.79030  0.63162  0.25983  Biso   1.000  O
  O42      1.0000 0.69340  0.68622  0.29947  Biso   1.000  O
  N13      1.0000 0.58060  0.81730  0.30805  Biso   1.000  N
  N14      1.0000 0.26150  0.80860  0.35640  Biso   1.000  N
  C103     1.0000 0.58520  0.79460  0.34850  Biso   1.000  C
  H55      1.0000 0.64570  0.77390  0.36160  Biso   1.000  H
  C104     1.0000 0.51320  0.79700  0.37420  Biso   1.000  C
  H56      1.0000 0.52430  0.78170  0.40280  Biso   1.000  H
  C105     1.0000 0.42220  0.82510  0.35200  Biso   1.000  C
  C106     1.0000 0.41510  0.85220  0.30990  Biso   1.000  C
  H57      1.0000 0.35510  0.87220  0.29570  Biso   1.000  H
  C107     1.0000 0.49660  0.85000  0.28850  Biso   1.000  C
  H58      1.0000 0.49180  0.87080  0.26140  Biso   1.000  H
  C108     1.0000 0.34500  0.82810  0.37870  Biso   1.000  C
  C109     1.0000 0.16390  0.81770  0.36616  Biso   1.000  C
  C110     1.0000 0.14800  0.85150  0.40326  Biso   1.000  C
  H59      1.0000 0.20220  0.86480  0.42470  Biso   1.000  H
  C111     1.0000 0.05160  0.86550  0.40859  Biso   1.000  C
  C112     1.0000 0.97190  0.84330  0.37820  Biso   1.000  C
  H60      1.0000 0.90750  0.85240  0.38230  Biso   1.000  H
  C113     1.0000 0.98530  0.80750  0.34136  Biso   1.000  C
  C114     1.0000 0.08040  0.79390  0.33518  Biso   1.000  C
  H61      1.0000 0.08980  0.76920  0.31070  Biso   1.000  H
  C115     1.0000 0.03500  0.91010  0.44624  Biso   1.000  C
  C116     1.0000 0.89670  0.78530  0.30833  Biso   1.000  C
  C117     1.0000 0.68530  0.56390  0.34800  Biso   1.000  C
  H62      1.0000 0.67200  0.60680  0.36070  Biso   1.000  H
  C118     1.0000 0.72500  0.56470  0.31075  Biso   1.000  C
  C119     1.0000 0.73820  0.63230  0.28863  Biso   1.000  C
  H63      1.0000 0.37230  0.82300  0.40750  Biso   1.000  H
  Cu8      1.0000 0.30976  0.21821  0.72732  Biso   1.000  Cu
  O43      1.0000 0.44660  0.42706  0.94649  Biso   1.000  O
  O44      1.0000 0.61120  0.42828  0.97368  Biso   1.000  O
  O45      1.0000 0.41260  0.25120  0.77533  Biso   1.000  O
  O46      1.0000 0.31290  0.30453  0.81376  Biso   1.000  O
  O47      1.0000 0.29030  0.13162  0.75983  Biso   1.000  O
  O48      1.0000 0.19340  0.18622  0.79947  Biso   1.000  O
  N15      1.0000 0.08060  0.31730  0.80805  Biso   1.000  N
  N16      1.0000 0.76150  0.30860  0.85640  Biso   1.000  N
  C120     1.0000 0.08520  0.29460  0.84850  Biso   1.000  C
  H64      1.0000 0.14570  0.27390  0.86160  Biso   1.000  H
  C121     1.0000 0.01320  0.29700  0.87420  Biso   1.000  C
  H65      1.0000 0.02430  0.28170  0.90280  Biso   1.000  H
  C122     1.0000 0.92220  0.32510  0.85200  Biso   1.000  C
  C123     1.0000 0.91510  0.35220  0.80990  Biso   1.000  C
  H66      1.0000 0.85510  0.37220  0.79570  Biso   1.000  H
  C124     1.0000 0.99660  0.35000  0.78850  Biso   1.000  C
  H67      1.0000 0.99180  0.37080  0.76140  Biso   1.000  H
  C125     1.0000 0.84500  0.32810  0.87870  Biso   1.000  C
  C126     1.0000 0.66390  0.31770  0.86616  Biso   1.000  C
  C127     1.0000 0.64800  0.35150  0.90326  Biso   1.000  C
  H68      1.0000 0.70220  0.36480  0.92470  Biso   1.000  H
  C128     1.0000 0.55160  0.36550  0.90859  Biso   1.000  C
  C129     1.0000 0.47190  0.34330  0.87820  Biso   1.000  C
  H69      1.0000 0.40750  0.35240  0.88230  Biso   1.000  H
  C130     1.0000 0.48530  0.30750  0.84136  Biso   1.000  C
  C131     1.0000 0.58040  0.29390  0.83518  Biso   1.000  C
  H70      1.0000 0.58980  0.26920  0.81070  Biso   1.000  H
  C132     1.0000 0.53500  0.41010  0.94624  Biso   1.000  C
  C133     1.0000 0.39670  0.28530  0.80833  Biso   1.000  C
  C134     1.0000 0.18530  0.06390  0.84800  Biso   1.000  C
  H71      1.0000 0.17200  0.10680  0.86070  Biso   1.000  H
  C135     1.0000 0.22500  0.06470  0.81075  Biso   1.000  C
  C136     1.0000 0.23820  0.13230  0.78863  Biso   1.000  C
  H72      1.0000 0.87230  0.32300  0.90750  Biso   1.000  H
  Cu9      1.0000 0.90308  0.00000  0.48305  Biso   1.000  Cu
  Cu10     1.0000 0.40308  0.50000  0.98305  Biso   1.000  Cu
  Cu11     1.0000 0.09692  0.00000  0.51695  Biso   1.000  Cu
  Cu12     1.0000 0.59692  0.50000  0.01695  Biso   1.000  Cu
  N17      1.0000 0.64260  0.50000  0.41180  Biso   1.000  N
  C137     1.0000 0.66560  0.50000  0.36610  Biso   1.000  C
  C138     1.0000 0.74470  0.50000  0.29200  Biso   1.000  C
  H73      1.0000 0.77090  0.50000  0.26690  Biso   1.000  H
  N18      1.0000 0.14260  0.00000  0.91180  Biso   1.000  N
  C139     1.0000 0.16560  0.00000  0.86610  Biso   1.000  C
  C140     1.0000 0.24470  0.00000  0.79200  Biso   1.000  C
  H74      1.0000 0.27090  0.00000  0.76690  Biso   1.000  H
  N19      1.0000 0.35740  0.50000  0.58820  Biso   1.000  N
  C141     1.0000 0.33440  0.50000  0.63390  Biso   1.000  C
  C142     1.0000 0.25530  0.50000  0.70800  Biso   1.000  C
  H75      1.0000 0.22910  0.50000  0.73310  Biso   1.000  H
  N20      1.0000 0.85740  0.00000  0.08820  Biso   1.000  N
  C143     1.0000 0.83440  0.00000  0.13390  Biso   1.000  C
  C144     1.0000 0.75530  0.00000  0.20800  Biso   1.000  C
  H76      1.0000 0.72910  0.00000  0.23310  Biso   1.000  H
