data_image0
_cell_length_a       10.3144
_cell_length_b       16.81
_cell_length_c       44.985
_cell_angle_alpha    90
_cell_angle_beta     101.869
_cell_angle_gamma    90

_symmetry_space_group_name_H-M    "P 1"
_symmetry_int_tables_number       1

loop_
  _symmetry_equiv_pos_as_xyz
  'x, y, z'

loop_
  _atom_site_label
  _atom_site_occupancy
  _atom_site_fract_x
  _atom_site_fract_y
  _atom_site_fract_z
  _atom_site_thermal_displace_type
  _atom_site_B_iso_or_equiv
  _atom_site_type_symbol
  Mn1      1.0000 0.10432  0.00427  0.81165  Biso   1.000  Mn
  Mn2      1.0000 0.29609  0.09160  0.75759  Biso   1.000  Mn
  C1       1.0000 0.74810  0.09450  0.00149  Biso   1.000  C
  C2       1.0000 0.66110  0.15120  0.98461  Biso   1.000  C
  H1       1.0000 0.58720  0.17350  0.99030  Biso   1.000  H
  C3       1.0000 0.70370  0.16690  0.95930  Biso   1.000  C
  H2       1.0000 0.66520  0.20170  0.94390  Biso   1.000  H
  C4       1.0000 0.82280  0.11890  0.96021  Biso   1.000  C
  C5       1.0000 0.89130  0.11510  0.93681  Biso   1.000  C
  C6       1.0000 0.99990  0.06650  0.93743  Biso   1.000  C
  C7       1.0000 0.06810  0.05760  0.91247  Biso   1.000  C
  H3       1.0000 0.04480  0.08130  0.89340  Biso   1.000  H
  C8       1.0000 0.17000  0.00930  0.92189  Biso   1.000  C
  H4       1.0000 0.23330  0.99510  0.91080  Biso   1.000  H
  C9       1.0000 0.16610  0.98280  0.95174  Biso   1.000  C
  C10      1.0000 0.25670  0.93520  0.96919  Biso   1.000  C
  C11      1.0000 0.37770  0.91020  0.95628  Biso   1.000  C
  C12      1.0000 0.47160  0.96710  0.95527  Biso   1.000  C
  H5       1.0000 0.46490  0.01560  0.96480  Biso   1.000  H
  C13      1.0000 0.57720  0.95570  0.94051  Biso   1.000  C
  H6       1.0000 0.64060  0.99490  0.94010  Biso   1.000  H
  C14      1.0000 0.58150  0.88290  0.92661  Biso   1.000  C
  C15      1.0000 0.49440  0.82370  0.92829  Biso   1.000  C
  H7       1.0000 0.50300  0.77400  0.91980  Biso   1.000  H
  C16      1.0000 0.38850  0.84030  0.94357  Biso   1.000  C
  H8       1.0000 0.32600  0.80100  0.94460  Biso   1.000  H
  C17      1.0000 0.66460  0.91420  0.88272  Biso   1.000  C
  C18      1.0000 0.54460  0.93960  0.86688  Biso   1.000  C
  H9       1.0000 0.46910  0.92960  0.87460  Biso   1.000  H
  C19      1.0000 0.53280  0.97910  0.84009  Biso   1.000  C
  C20      1.0000 0.64820  0.99430  0.82893  Biso   1.000  C
  H10      1.0000 0.64320  0.02310  0.81110  Biso   1.000  H
  C21      1.0000 0.76980  0.96610  0.84467  Biso   1.000  C
  C22      1.0000 0.77650  0.92760  0.87130  Biso   1.000  C
  H11      1.0000 0.85810  0.91000  0.88210  Biso   1.000  H
  C23      1.0000 0.89240  0.98380  0.83118  Biso   1.000  C
  C24      1.0000 0.40090  0.00900  0.82270  Biso   1.000  C
  C25      1.0000 0.85200  0.16970  0.90998  Biso   1.000  C
  C26      1.0000 0.75120  0.14980  0.88617  Biso   1.000  C
  H12      1.0000 0.70310  0.10350  0.88730  Biso   1.000  H
  C27      1.0000 0.72020  0.19550  0.86120  Biso   1.000  C
  H13      1.0000 0.65050  0.18040  0.84560  Biso   1.000  H
  C28      1.0000 0.78830  0.26340  0.85810  Biso   1.000  C
  C29      1.0000 0.88720  0.28630  0.88170  Biso   1.000  C
  H14      1.0000 0.93310  0.33330  0.88020  Biso   1.000  H
  C30      1.0000 0.92150  0.23900  0.90880  Biso   1.000  C
  H15      1.0000 0.98820  0.25470  0.92490  Biso   1.000  H
  C31      1.0000 0.84420  0.30640  0.81214  Biso   1.000  C
  C32      1.0000 0.82950  0.36770  0.79095  Biso   1.000  C
  H16      1.0000 0.77380  0.41030  0.79260  Biso   1.000  H
  C33      1.0000 0.89610  0.36560  0.76783  Biso   1.000  C
  C34      1.0000 0.98150  0.30340  0.76643  Biso   1.000  C
  H17      1.0000 0.02760  0.30090  0.75070  Biso   1.000  H
  C35      1.0000 0.99860  0.24490  0.78837  Biso   1.000  C
  C36      1.0000 0.93170  0.24590  0.81150  Biso   1.000  C
  H18      1.0000 0.94520  0.20660  0.82640  Biso   1.000  H
  C37      1.0000 0.08830  0.17170  0.78672  Biso   1.000  C
  C38      1.0000 0.87990  0.43000  0.74360  Biso   1.000  C
  N1       1.0000 0.84830  0.07670  0.98655  Biso   1.000  N
  N2       1.0000 0.06020  0.01740  0.96078  Biso   1.000  N
  O1       1.0000 0.00230  0.96220  0.84625  Biso   1.000  O
  O2       1.0000 0.87950  0.01380  0.80642  Biso   1.000  O
  O3       1.0000 0.39900  0.05170  0.80038  Biso   1.000  O
  O4       1.0000 0.30270  0.98620  0.83245  Biso   1.000  O
  O5       1.0000 0.14700  0.17010  0.76454  Biso   1.000  O
  O6       1.0000 0.10630  0.12600  0.80851  Biso   1.000  O
  O7       1.0000 0.92270  0.41430  0.72054  Biso   1.000  O
  O8       1.0000 0.82150  0.49080  0.74880  Biso   1.000  O
  O9       1.0000 0.67950  0.86990  0.90951  Biso   1.000  O
  O10      1.0000 0.76880  0.31820  0.83436  Biso   1.000  O
  Mn3      1.0000 0.89568  0.50427  0.68835  Biso   1.000  Mn
  Mn4      1.0000 0.70391  0.59160  0.74241  Biso   1.000  Mn
  C39      1.0000 0.25190  0.59450  0.49851  Biso   1.000  C
  C40      1.0000 0.33890  0.65120  0.51539  Biso   1.000  C
  H19      1.0000 0.41280  0.67350  0.50970  Biso   1.000  H
  C41      1.0000 0.29630  0.66690  0.54070  Biso   1.000  C
  H20      1.0000 0.33480  0.70170  0.55610  Biso   1.000  H
  C42      1.0000 0.17720  0.61890  0.53979  Biso   1.000  C
  C43      1.0000 0.10870  0.61510  0.56319  Biso   1.000  C
  C44      1.0000 0.00010  0.56650  0.56257  Biso   1.000  C
  C45      1.0000 0.93190  0.55760  0.58753  Biso   1.000  C
  H21      1.0000 0.95520  0.58130  0.60660  Biso   1.000  H
  C46      1.0000 0.83000  0.50930  0.57811  Biso   1.000  C
  H22      1.0000 0.76670  0.49510  0.58920  Biso   1.000  H
  C47      1.0000 0.83390  0.48280  0.54826  Biso   1.000  C
  C48      1.0000 0.74330  0.43520  0.53081  Biso   1.000  C
  C49      1.0000 0.62230  0.41020  0.54372  Biso   1.000  C
  C50      1.0000 0.52840  0.46710  0.54473  Biso   1.000  C
  H23      1.0000 0.53510  0.51560  0.53520  Biso   1.000  H
  C51      1.0000 0.42280  0.45570  0.55949  Biso   1.000  C
  H24      1.0000 0.35940  0.49490  0.55990  Biso   1.000  H
  C52      1.0000 0.41850  0.38290  0.57339  Biso   1.000  C
  C53      1.0000 0.50560  0.32370  0.57171  Biso   1.000  C
  H25      1.0000 0.49700  0.27400  0.58020  Biso   1.000  H
  C54      1.0000 0.61150  0.34030  0.55643  Biso   1.000  C
  H26      1.0000 0.67400  0.30100  0.55540  Biso   1.000  H
  C55      1.0000 0.33540  0.41420  0.61728  Biso   1.000  C
  C56      1.0000 0.45540  0.43960  0.63312  Biso   1.000  C
  H27      1.0000 0.53090  0.42960  0.62540  Biso   1.000  H
  C57      1.0000 0.46720  0.47910  0.65991  Biso   1.000  C
  C58      1.0000 0.35180  0.49430  0.67107  Biso   1.000  C
  H28      1.0000 0.35680  0.52310  0.68890  Biso   1.000  H
  C59      1.0000 0.23020  0.46610  0.65533  Biso   1.000  C
  C60      1.0000 0.22350  0.42760  0.62870  Biso   1.000  C
  H29      1.0000 0.14190  0.41000  0.61790  Biso   1.000  H
  C61      1.0000 0.10760  0.48380  0.66882  Biso   1.000  C
  C62      1.0000 0.59910  0.50900  0.67730  Biso   1.000  C
  C63      1.0000 0.14800  0.66970  0.59002  Biso   1.000  C
  C64      1.0000 0.24880  0.64980  0.61383  Biso   1.000  C
  H30      1.0000 0.29690  0.60350  0.61270  Biso   1.000  H
  C65      1.0000 0.27980  0.69550  0.63880  Biso   1.000  C
  H31      1.0000 0.34950  0.68040  0.65440  Biso   1.000  H
  C66      1.0000 0.21170  0.76340  0.64190  Biso   1.000  C
  C67      1.0000 0.11280  0.78630  0.61830  Biso   1.000  C
  H32      1.0000 0.06690  0.83330  0.61980  Biso   1.000  H
  C68      1.0000 0.07850  0.73900  0.59120  Biso   1.000  C
  H33      1.0000 0.01180  0.75470  0.57510  Biso   1.000  H
  C69      1.0000 0.15580  0.80640  0.68786  Biso   1.000  C
  C70      1.0000 0.17050  0.86770  0.70905  Biso   1.000  C
  H34      1.0000 0.22620  0.91030  0.70740  Biso   1.000  H
  C71      1.0000 0.10390  0.86560  0.73217  Biso   1.000  C
  C72      1.0000 0.01850  0.80340  0.73357  Biso   1.000  C
  H35      1.0000 0.97240  0.80090  0.74930  Biso   1.000  H
  C73      1.0000 0.00140  0.74490  0.71163  Biso   1.000  C
  C74      1.0000 0.06830  0.74590  0.68850  Biso   1.000  C
  H36      1.0000 0.05480  0.70660  0.67360  Biso   1.000  H
  C75      1.0000 0.91170  0.67170  0.71328  Biso   1.000  C
  C76      1.0000 0.12010  0.93000  0.75640  Biso   1.000  C
  N3       1.0000 0.15170  0.57670  0.51345  Biso   1.000  N
  N4       1.0000 0.93980  0.51740  0.53922  Biso   1.000  N
  O11      1.0000 0.99770  0.46220  0.65375  Biso   1.000  O
  O12      1.0000 0.12050  0.51380  0.69358  Biso   1.000  O
  O13      1.0000 0.60100  0.55170  0.69962  Biso   1.000  O
  O14      1.0000 0.69730  0.48620  0.66755  Biso   1.000  O
  O15      1.0000 0.85300  0.67010  0.73546  Biso   1.000  O
  O16      1.0000 0.89370  0.62600  0.69149  Biso   1.000  O
  O17      1.0000 0.07730  0.91430  0.77946  Biso   1.000  O
  O18      1.0000 0.17850  0.99080  0.75120  Biso   1.000  O
  O19      1.0000 0.32050  0.36990  0.59049  Biso   1.000  O
  O20      1.0000 0.23120  0.81820  0.66564  Biso   1.000  O
  Mn5      1.0000 0.89568  0.99573  0.18835  Biso   1.000  Mn
  Mn6      1.0000 0.70391  0.90840  0.24241  Biso   1.000  Mn
  C77      1.0000 0.25190  0.90550  0.99851  Biso   1.000  C
  C78      1.0000 0.33890  0.84880  0.01539  Biso   1.000  C
  H37      1.0000 0.41280  0.82650  0.00970  Biso   1.000  H
  C79      1.0000 0.29630  0.83310  0.04070  Biso   1.000  C
  H38      1.0000 0.33480  0.79830  0.05610  Biso   1.000  H
  C80      1.0000 0.17720  0.88110  0.03979  Biso   1.000  C
  C81      1.0000 0.10870  0.88490  0.06319  Biso   1.000  C
  C82      1.0000 0.00010  0.93350  0.06257  Biso   1.000  C
  C83      1.0000 0.93190  0.94240  0.08753  Biso   1.000  C
  H39      1.0000 0.95520  0.91870  0.10660  Biso   1.000  H
  C84      1.0000 0.83000  0.99070  0.07811  Biso   1.000  C
  H40      1.0000 0.76670  0.00490  0.08920  Biso   1.000  H
  C85      1.0000 0.83390  0.01720  0.04826  Biso   1.000  C
  C86      1.0000 0.74330  0.06480  0.03081  Biso   1.000  C
  C87      1.0000 0.62230  0.08980  0.04372  Biso   1.000  C
  C88      1.0000 0.52840  0.03290  0.04473  Biso   1.000  C
  H41      1.0000 0.53510  0.98440  0.03520  Biso   1.000  H
  C89      1.0000 0.42280  0.04430  0.05949  Biso   1.000  C
  H42      1.0000 0.35940  0.00510  0.05990  Biso   1.000  H
  C90      1.0000 0.41850  0.11710  0.07339  Biso   1.000  C
  C91      1.0000 0.50560  0.17630  0.07171  Biso   1.000  C
  H43      1.0000 0.49700  0.22600  0.08020  Biso   1.000  H
  C92      1.0000 0.61150  0.15970  0.05643  Biso   1.000  C
  H44      1.0000 0.67400  0.19900  0.05540  Biso   1.000  H
  C93      1.0000 0.33540  0.08580  0.11728  Biso   1.000  C
  C94      1.0000 0.45540  0.06040  0.13312  Biso   1.000  C
  H45      1.0000 0.53090  0.07040  0.12540  Biso   1.000  H
  C95      1.0000 0.46720  0.02090  0.15991  Biso   1.000  C
  C96      1.0000 0.35180  0.00570  0.17107  Biso   1.000  C
  H46      1.0000 0.35680  0.97690  0.18890  Biso   1.000  H
  C97      1.0000 0.23020  0.03390  0.15533  Biso   1.000  C
  C98      1.0000 0.22350  0.07240  0.12870  Biso   1.000  C
  H47      1.0000 0.14190  0.09000  0.11790  Biso   1.000  H
  C99      1.0000 0.10760  0.01620  0.16882  Biso   1.000  C
  C100     1.0000 0.59910  0.99100  0.17730  Biso   1.000  C
  C101     1.0000 0.14800  0.83030  0.09002  Biso   1.000  C
  C102     1.0000 0.24880  0.85020  0.11383  Biso   1.000  C
  H48      1.0000 0.29690  0.89650  0.11270  Biso   1.000  H
  C103     1.0000 0.27980  0.80450  0.13880  Biso   1.000  C
  H49      1.0000 0.34950  0.81960  0.15440  Biso   1.000  H
  C104     1.0000 0.21170  0.73660  0.14190  Biso   1.000  C
  C105     1.0000 0.11280  0.71370  0.11830  Biso   1.000  C
  H50      1.0000 0.06690  0.66670  0.11980  Biso   1.000  H
  C106     1.0000 0.07850  0.76100  0.09120  Biso   1.000  C
  H51      1.0000 0.01180  0.74530  0.07510  Biso   1.000  H
  C107     1.0000 0.15580  0.69360  0.18786  Biso   1.000  C
  C108     1.0000 0.17050  0.63230  0.20905  Biso   1.000  C
  H52      1.0000 0.22620  0.58970  0.20740  Biso   1.000  H
  C109     1.0000 0.10390  0.63440  0.23217  Biso   1.000  C
  C110     1.0000 0.01850  0.69660  0.23357  Biso   1.000  C
  H53      1.0000 0.97240  0.69910  0.24930  Biso   1.000  H
  C111     1.0000 0.00140  0.75510  0.21163  Biso   1.000  C
  C112     1.0000 0.06830  0.75410  0.18850  Biso   1.000  C
  H54      1.0000 0.05480  0.79340  0.17360  Biso   1.000  H
  C113     1.0000 0.91170  0.82830  0.21328  Biso   1.000  C
  C114     1.0000 0.12010  0.57000  0.25640  Biso   1.000  C
  N5       1.0000 0.15170  0.92330  0.01345  Biso   1.000  N
  N6       1.0000 0.93980  0.98260  0.03922  Biso   1.000  N
  O21      1.0000 0.99770  0.03780  0.15375  Biso   1.000  O
  O22      1.0000 0.12050  0.98620  0.19358  Biso   1.000  O
  O23      1.0000 0.60100  0.94830  0.19962  Biso   1.000  O
  O24      1.0000 0.69730  0.01380  0.16755  Biso   1.000  O
  O25      1.0000 0.85300  0.82990  0.23546  Biso   1.000  O
  O26      1.0000 0.89370  0.87400  0.19149  Biso   1.000  O
  O27      1.0000 0.07730  0.58570  0.27946  Biso   1.000  O
  O28      1.0000 0.17850  0.50920  0.25120  Biso   1.000  O
  O29      1.0000 0.32050  0.13010  0.09049  Biso   1.000  O
  O30      1.0000 0.23120  0.68180  0.16564  Biso   1.000  O
  Mn7      1.0000 0.10432  0.49573  0.31165  Biso   1.000  Mn
  Mn8      1.0000 0.29609  0.40840  0.25759  Biso   1.000  Mn
  C115     1.0000 0.74810  0.40550  0.50149  Biso   1.000  C
  C116     1.0000 0.66110  0.34880  0.48461  Biso   1.000  C
  H55      1.0000 0.58720  0.32650  0.49030  Biso   1.000  H
  C117     1.0000 0.70370  0.33310  0.45930  Biso   1.000  C
  H56      1.0000 0.66520  0.29830  0.44390  Biso   1.000  H
  C118     1.0000 0.82280  0.38110  0.46021  Biso   1.000  C
  C119     1.0000 0.89130  0.38490  0.43681  Biso   1.000  C
  C120     1.0000 0.99990  0.43350  0.43743  Biso   1.000  C
  C121     1.0000 0.06810  0.44240  0.41247  Biso   1.000  C
  H57      1.0000 0.04480  0.41870  0.39340  Biso   1.000  H
  C122     1.0000 0.17000  0.49070  0.42189  Biso   1.000  C
  H58      1.0000 0.23330  0.50490  0.41080  Biso   1.000  H
  C123     1.0000 0.16610  0.51720  0.45174  Biso   1.000  C
  C124     1.0000 0.25670  0.56480  0.46919  Biso   1.000  C
  C125     1.0000 0.37770  0.58980  0.45628  Biso   1.000  C
  C126     1.0000 0.47160  0.53290  0.45527  Biso   1.000  C
  H59      1.0000 0.46490  0.48440  0.46480  Biso   1.000  H
  C127     1.0000 0.57720  0.54430  0.44051  Biso   1.000  C
  H60      1.0000 0.64060  0.50510  0.44010  Biso   1.000  H
  C128     1.0000 0.58150  0.61710  0.42661  Biso   1.000  C
  C129     1.0000 0.49440  0.67630  0.42829  Biso   1.000  C
  H61      1.0000 0.50300  0.72600  0.41980  Biso   1.000  H
  C130     1.0000 0.38850  0.65970  0.44357  Biso   1.000  C
  H62      1.0000 0.32600  0.69900  0.44460  Biso   1.000  H
  C131     1.0000 0.66460  0.58580  0.38272  Biso   1.000  C
  C132     1.0000 0.54460  0.56040  0.36688  Biso   1.000  C
  H63      1.0000 0.46910  0.57040  0.37460  Biso   1.000  H
  C133     1.0000 0.53280  0.52090  0.34009  Biso   1.000  C
  C134     1.0000 0.64820  0.50570  0.32893  Biso   1.000  C
  H64      1.0000 0.64320  0.47690  0.31110  Biso   1.000  H
  C135     1.0000 0.76980  0.53390  0.34467  Biso   1.000  C
  C136     1.0000 0.77650  0.57240  0.37130  Biso   1.000  C
  H65      1.0000 0.85810  0.59000  0.38210  Biso   1.000  H
  C137     1.0000 0.89240  0.51620  0.33118  Biso   1.000  C
  C138     1.0000 0.40090  0.49100  0.32270  Biso   1.000  C
  C139     1.0000 0.85200  0.33030  0.40998  Biso   1.000  C
  C140     1.0000 0.75120  0.35020  0.38617  Biso   1.000  C
  H66      1.0000 0.70310  0.39650  0.38730  Biso   1.000  H
  C141     1.0000 0.72020  0.30450  0.36120  Biso   1.000  C
  H67      1.0000 0.65050  0.31960  0.34560  Biso   1.000  H
  C142     1.0000 0.78830  0.23660  0.35810  Biso   1.000  C
  C143     1.0000 0.88720  0.21370  0.38170  Biso   1.000  C
  H68      1.0000 0.93310  0.16670  0.38020  Biso   1.000  H
  C144     1.0000 0.92150  0.26100  0.40880  Biso   1.000  C
  H69      1.0000 0.98820  0.24530  0.42490  Biso   1.000  H
  C145     1.0000 0.84420  0.19360  0.31214  Biso   1.000  C
  C146     1.0000 0.82950  0.13230  0.29095  Biso   1.000  C
  H70      1.0000 0.77380  0.08970  0.29260  Biso   1.000  H
  C147     1.0000 0.89610  0.13440  0.26783  Biso   1.000  C
  C148     1.0000 0.98150  0.19660  0.26643  Biso   1.000  C
  H71      1.0000 0.02760  0.19910  0.25070  Biso   1.000  H
  C149     1.0000 0.99860  0.25510  0.28837  Biso   1.000  C
  C150     1.0000 0.93170  0.25410  0.31150  Biso   1.000  C
  H72      1.0000 0.94520  0.29340  0.32640  Biso   1.000  H
  C151     1.0000 0.08830  0.32830  0.28672  Biso   1.000  C
  C152     1.0000 0.87990  0.07000  0.24360  Biso   1.000  C
  N7       1.0000 0.84830  0.42330  0.48655  Biso   1.000  N
  N8       1.0000 0.06020  0.48260  0.46078  Biso   1.000  N
  O31      1.0000 0.00230  0.53780  0.34625  Biso   1.000  O
  O32      1.0000 0.87950  0.48620  0.30642  Biso   1.000  O
  O33      1.0000 0.39900  0.44830  0.30038  Biso   1.000  O
  O34      1.0000 0.30270  0.51380  0.33245  Biso   1.000  O
  O35      1.0000 0.14700  0.32990  0.26454  Biso   1.000  O
  O36      1.0000 0.10630  0.37400  0.30851  Biso   1.000  O
  O37      1.0000 0.92270  0.08570  0.22054  Biso   1.000  O
  O38      1.0000 0.82150  0.00920  0.24880  Biso   1.000  O
  O39      1.0000 0.67950  0.63010  0.40951  Biso   1.000  O
  O40      1.0000 0.76880  0.18180  0.33436  Biso   1.000  O
  Mn9      1.0000 0.00000  0.00000  0.00000  Biso   1.000  Mn
  Mn10     1.0000 0.00000  0.50000  0.50000  Biso   1.000  Mn
