data_image0
_cell_length_a       17.6907
_cell_length_b       16.1672
_cell_length_c       16.8283
_cell_angle_alpha    90
_cell_angle_beta     90
_cell_angle_gamma    90

_symmetry_space_group_name_H-M    "P 1"
_symmetry_int_tables_number       1

loop_
  _symmetry_equiv_pos_as_xyz
  'x, y, z'

loop_
  _atom_site_label
  _atom_site_occupancy
  _atom_site_fract_x
  _atom_site_fract_y
  _atom_site_fract_z
  _atom_site_thermal_displace_type
  _atom_site_B_iso_or_equiv
  _atom_site_type_symbol
  Cd1      1.0000 0.25416  0.17057  0.27661  Biso   1.000  Cd
  C1       1.0000 0.24530  0.27940  0.15240  Biso   1.000  C
  C2       1.0000 0.22790  0.34560  0.09010  Biso   1.000  C
  H1       1.0000 0.19900  0.32030  0.04760  Biso   1.000  H
  H2       1.0000 0.19620  0.38740  0.11440  Biso   1.000  H
  C3       1.0000 0.29560  0.38780  0.05410  Biso   1.000  C
  H3       1.0000 0.32390  0.34800  0.02290  Biso   1.000  H
  H4       1.0000 0.32830  0.40740  0.09640  Biso   1.000  H
  C4       1.0000 0.27400  0.46020  0.00150  Biso   1.000  C
  H5       1.0000 0.31740  0.47540  0.96950  Biso   1.000  H
  H6       1.0000 0.23430  0.44250  0.96560  Biso   1.000  H
  C5       1.0000 0.24720  0.53520  0.04580  Biso   1.000  C
  H7       1.0000 0.28740  0.55340  0.08090  Biso   1.000  H
  H8       1.0000 0.20470  0.51950  0.07880  Biso   1.000  H
  C6       1.0000 0.22350  0.60810  0.99410  Biso   1.000  C
  H9       1.0000 0.19010  0.58820  0.95260  Biso   1.000  H
  H10      1.0000 0.19510  0.64690  0.02640  Biso   1.000  H
  C7       1.0000 0.28850  0.65300  0.95640  Biso   1.000  C
  H11      1.0000 0.31960  0.67650  0.99810  Biso   1.000  H
  H12      1.0000 0.31920  0.61310  0.92790  Biso   1.000  H
  C8       1.0000 0.26700  0.72050  0.90020  Biso   1.000  C
  C9       1.0000 0.14530  0.00320  0.28550  Biso   1.000  C
  H13      1.0000 0.17830  0.97000  0.25660  Biso   1.000  H
  C10      1.0000 0.07830  0.97800  0.31570  Biso   1.000  C
  H14      1.0000 0.05680  0.92570  0.31140  Biso   1.000  H
  C11      1.0000 0.09800  0.10770  0.34600  Biso   1.000  C
  H15      1.0000 0.09140  0.16020  0.36750  Biso   1.000  H
  C12      1.0000 0.97700  0.04870  0.39720  Biso   1.000  C
  H16      1.0000 0.94450  0.00440  0.37880  Biso   1.000  H
  H17      1.0000 0.95200  0.10070  0.38560  Biso   1.000  H
  C13      1.0000 0.98760  0.04080  0.48690  Biso   1.000  C
  H18      1.0000 0.02440  0.08150  0.50410  Biso   1.000  H
  H19      1.0000 0.94000  0.05370  0.51280  Biso   1.000  H
  C14      1.0000 0.34880  0.99610  0.25540  Biso   1.000  C
  H20      1.0000 0.31800  0.96630  0.28990  Biso   1.000  H
  C15      1.0000 0.40580  0.96410  0.21260  Biso   1.000  C
  H21      1.0000 0.42110  0.90910  0.21190  Biso   1.000  H
  C16      1.0000 0.39740  0.09570  0.18910  Biso   1.000  C
  H22      1.0000 0.40700  0.14800  0.16840  Biso   1.000  H
  C17      1.0000 0.49790  0.02200  0.11190  Biso   1.000  C
  H23      1.0000 0.53330  0.97920  0.12760  Biso   1.000  H
  H24      1.0000 0.52490  0.07420  0.11080  Biso   1.000  H
  C18      1.0000 0.46860  0.00320  0.03020  Biso   1.000  C
  H25      1.0000 0.43390  0.04650  0.01410  Biso   1.000  H
  H26      1.0000 0.44090  0.95150  0.03150  Biso   1.000  H
  N1       1.0000 0.15740  0.08450  0.30350  Biso   1.000  N
  N2       1.0000 0.04880  0.04550  0.35380  Biso   1.000  N
  N3       1.0000 0.34300  0.07860  0.24080  Biso   1.000  N
  N4       1.0000 0.43690  0.02690  0.17070  Biso   1.000  N
  O1       1.0000 0.19210  0.23150  0.17030  Biso   1.000  O
  O2       1.0000 0.30690  0.27460  0.18690  Biso   1.000  O
  O3       1.0000 0.31760  0.77250  0.88290  Biso   1.000  O
  O4       1.0000 0.20430  0.72340  0.86730  Biso   1.000  O
  Cd2      1.0000 0.74584  0.17057  0.22339  Biso   1.000  Cd
  C19      1.0000 0.75470  0.27940  0.34760  Biso   1.000  C
  C20      1.0000 0.77210  0.34560  0.40990  Biso   1.000  C
  H27      1.0000 0.80100  0.32030  0.45240  Biso   1.000  H
  H28      1.0000 0.80380  0.38740  0.38560  Biso   1.000  H
  C21      1.0000 0.70440  0.38780  0.44590  Biso   1.000  C
  H29      1.0000 0.67610  0.34800  0.47710  Biso   1.000  H
  H30      1.0000 0.67170  0.40740  0.40360  Biso   1.000  H
  C22      1.0000 0.72600  0.46020  0.49850  Biso   1.000  C
  H31      1.0000 0.68260  0.47540  0.53050  Biso   1.000  H
  H32      1.0000 0.76570  0.44250  0.53440  Biso   1.000  H
  C23      1.0000 0.75280  0.53520  0.45420  Biso   1.000  C
  H33      1.0000 0.71260  0.55340  0.41910  Biso   1.000  H
  H34      1.0000 0.79530  0.51950  0.42120  Biso   1.000  H
  C24      1.0000 0.77650  0.60810  0.50590  Biso   1.000  C
  H35      1.0000 0.80990  0.58820  0.54740  Biso   1.000  H
  H36      1.0000 0.80490  0.64690  0.47360  Biso   1.000  H
  C25      1.0000 0.71150  0.65300  0.54360  Biso   1.000  C
  H37      1.0000 0.68040  0.67650  0.50190  Biso   1.000  H
  H38      1.0000 0.68080  0.61310  0.57210  Biso   1.000  H
  C26      1.0000 0.73300  0.72050  0.59980  Biso   1.000  C
  C27      1.0000 0.85470  0.00320  0.21450  Biso   1.000  C
  H39      1.0000 0.82170  0.97000  0.24340  Biso   1.000  H
  C28      1.0000 0.92170  0.97800  0.18430  Biso   1.000  C
  H40      1.0000 0.94320  0.92570  0.18860  Biso   1.000  H
  C29      1.0000 0.90200  0.10770  0.15400  Biso   1.000  C
  H41      1.0000 0.90860  0.16020  0.13250  Biso   1.000  H
  C30      1.0000 0.02300  0.04870  0.10280  Biso   1.000  C
  H42      1.0000 0.05550  0.00440  0.12120  Biso   1.000  H
  H43      1.0000 0.04800  0.10070  0.11440  Biso   1.000  H
  C31      1.0000 0.01240  0.04080  0.01310  Biso   1.000  C
  H44      1.0000 0.97560  0.08150  0.99590  Biso   1.000  H
  H45      1.0000 0.06000  0.05370  0.98720  Biso   1.000  H
  C32      1.0000 0.65120  0.99610  0.24460  Biso   1.000  C
  H46      1.0000 0.68200  0.96630  0.21010  Biso   1.000  H
  C33      1.0000 0.59420  0.96410  0.28740  Biso   1.000  C
  H47      1.0000 0.57890  0.90910  0.28810  Biso   1.000  H
  C34      1.0000 0.60260  0.09570  0.31090  Biso   1.000  C
  H48      1.0000 0.59300  0.14800  0.33160  Biso   1.000  H
  C35      1.0000 0.50210  0.02200  0.38810  Biso   1.000  C
  H49      1.0000 0.46670  0.97920  0.37240  Biso   1.000  H
  H50      1.0000 0.47510  0.07420  0.38920  Biso   1.000  H
  C36      1.0000 0.53140  0.00320  0.46980  Biso   1.000  C
  H51      1.0000 0.56610  0.04650  0.48590  Biso   1.000  H
  H52      1.0000 0.55910  0.95150  0.46850  Biso   1.000  H
  N5       1.0000 0.84260  0.08450  0.19650  Biso   1.000  N
  N6       1.0000 0.95120  0.04550  0.14620  Biso   1.000  N
  N7       1.0000 0.65700  0.07860  0.25920  Biso   1.000  N
  N8       1.0000 0.56310  0.02690  0.32930  Biso   1.000  N
  O5       1.0000 0.80790  0.23150  0.32970  Biso   1.000  O
  O6       1.0000 0.69310  0.27460  0.31310  Biso   1.000  O
  O7       1.0000 0.68240  0.77250  0.61710  Biso   1.000  O
  O8       1.0000 0.79570  0.72340  0.63270  Biso   1.000  O
  Cd3      1.0000 0.74584  0.82943  0.72339  Biso   1.000  Cd
  C37      1.0000 0.75470  0.72060  0.84760  Biso   1.000  C
  C38      1.0000 0.77210  0.65440  0.90990  Biso   1.000  C
  H53      1.0000 0.80100  0.67970  0.95240  Biso   1.000  H
  H54      1.0000 0.80380  0.61260  0.88560  Biso   1.000  H
  C39      1.0000 0.70440  0.61220  0.94590  Biso   1.000  C
  H55      1.0000 0.67610  0.65200  0.97710  Biso   1.000  H
  H56      1.0000 0.67170  0.59260  0.90360  Biso   1.000  H
  C40      1.0000 0.72600  0.53980  0.99850  Biso   1.000  C
  H57      1.0000 0.68260  0.52460  0.03050  Biso   1.000  H
  H58      1.0000 0.76570  0.55750  0.03440  Biso   1.000  H
  C41      1.0000 0.75280  0.46480  0.95420  Biso   1.000  C
  H59      1.0000 0.71260  0.44660  0.91910  Biso   1.000  H
  H60      1.0000 0.79530  0.48050  0.92120  Biso   1.000  H
  C42      1.0000 0.77650  0.39190  0.00590  Biso   1.000  C
  H61      1.0000 0.80990  0.41180  0.04740  Biso   1.000  H
  H62      1.0000 0.80490  0.35310  0.97360  Biso   1.000  H
  C43      1.0000 0.71150  0.34700  0.04360  Biso   1.000  C
  H63      1.0000 0.68040  0.32350  0.00190  Biso   1.000  H
  H64      1.0000 0.68080  0.38690  0.07210  Biso   1.000  H
  C44      1.0000 0.73300  0.27950  0.09980  Biso   1.000  C
  C45      1.0000 0.85470  0.99680  0.71450  Biso   1.000  C
  H65      1.0000 0.82170  0.03000  0.74340  Biso   1.000  H
  C46      1.0000 0.92170  0.02200  0.68430  Biso   1.000  C
  H66      1.0000 0.94320  0.07430  0.68860  Biso   1.000  H
  C47      1.0000 0.90200  0.89230  0.65400  Biso   1.000  C
  H67      1.0000 0.90860  0.83980  0.63250  Biso   1.000  H
  C48      1.0000 0.02300  0.95130  0.60280  Biso   1.000  C
  H68      1.0000 0.05550  0.99560  0.62120  Biso   1.000  H
  H69      1.0000 0.04800  0.89930  0.61440  Biso   1.000  H
  C49      1.0000 0.01240  0.95920  0.51310  Biso   1.000  C
  H70      1.0000 0.97560  0.91850  0.49590  Biso   1.000  H
  H71      1.0000 0.06000  0.94630  0.48720  Biso   1.000  H
  C50      1.0000 0.65120  0.00390  0.74460  Biso   1.000  C
  H72      1.0000 0.68200  0.03370  0.71010  Biso   1.000  H
  C51      1.0000 0.59420  0.03590  0.78740  Biso   1.000  C
  H73      1.0000 0.57890  0.09090  0.78810  Biso   1.000  H
  C52      1.0000 0.60260  0.90430  0.81090  Biso   1.000  C
  H74      1.0000 0.59300  0.85200  0.83160  Biso   1.000  H
  C53      1.0000 0.50210  0.97800  0.88810  Biso   1.000  C
  H75      1.0000 0.46670  0.02080  0.87240  Biso   1.000  H
  H76      1.0000 0.47510  0.92580  0.88920  Biso   1.000  H
  C54      1.0000 0.53140  0.99680  0.96980  Biso   1.000  C
  H77      1.0000 0.56610  0.95350  0.98590  Biso   1.000  H
  H78      1.0000 0.55910  0.04850  0.96850  Biso   1.000  H
  N9       1.0000 0.84260  0.91550  0.69650  Biso   1.000  N
  N10      1.0000 0.95120  0.95450  0.64620  Biso   1.000  N
  N11      1.0000 0.65700  0.92140  0.75920  Biso   1.000  N
  N12      1.0000 0.56310  0.97310  0.82930  Biso   1.000  N
  O9       1.0000 0.80790  0.76850  0.82970  Biso   1.000  O
  O10      1.0000 0.69310  0.72540  0.81310  Biso   1.000  O
  O11      1.0000 0.68240  0.22750  0.11710  Biso   1.000  O
  O12      1.0000 0.79570  0.27660  0.13270  Biso   1.000  O
  Cd4      1.0000 0.25416  0.82943  0.77661  Biso   1.000  Cd
  C55      1.0000 0.24530  0.72060  0.65240  Biso   1.000  C
  C56      1.0000 0.22790  0.65440  0.59010  Biso   1.000  C
  H79      1.0000 0.19900  0.67970  0.54760  Biso   1.000  H
  H80      1.0000 0.19620  0.61260  0.61440  Biso   1.000  H
  C57      1.0000 0.29560  0.61220  0.55410  Biso   1.000  C
  H81      1.0000 0.32390  0.65200  0.52290  Biso   1.000  H
  H82      1.0000 0.32830  0.59260  0.59640  Biso   1.000  H
  C58      1.0000 0.27400  0.53980  0.50150  Biso   1.000  C
  H83      1.0000 0.31740  0.52460  0.46950  Biso   1.000  H
  H84      1.0000 0.23430  0.55750  0.46560  Biso   1.000  H
  C59      1.0000 0.24720  0.46480  0.54580  Biso   1.000  C
  H85      1.0000 0.28740  0.44660  0.58090  Biso   1.000  H
  H86      1.0000 0.20470  0.48050  0.57880  Biso   1.000  H
  C60      1.0000 0.22350  0.39190  0.49410  Biso   1.000  C
  H87      1.0000 0.19010  0.41180  0.45260  Biso   1.000  H
  H88      1.0000 0.19510  0.35310  0.52640  Biso   1.000  H
  C61      1.0000 0.28850  0.34700  0.45640  Biso   1.000  C
  H89      1.0000 0.31960  0.32350  0.49810  Biso   1.000  H
  H90      1.0000 0.31920  0.38690  0.42790  Biso   1.000  H
  C62      1.0000 0.26700  0.27950  0.40020  Biso   1.000  C
  C63      1.0000 0.14530  0.99680  0.78550  Biso   1.000  C
  H91      1.0000 0.17830  0.03000  0.75660  Biso   1.000  H
  C64      1.0000 0.07830  0.02200  0.81570  Biso   1.000  C
  H92      1.0000 0.05680  0.07430  0.81140  Biso   1.000  H
  C65      1.0000 0.09800  0.89230  0.84600  Biso   1.000  C
  H93      1.0000 0.09140  0.83980  0.86750  Biso   1.000  H
  C66      1.0000 0.97700  0.95130  0.89720  Biso   1.000  C
  H94      1.0000 0.94450  0.99560  0.87880  Biso   1.000  H
  H95      1.0000 0.95200  0.89930  0.88560  Biso   1.000  H
  C67      1.0000 0.98760  0.95920  0.98690  Biso   1.000  C
  H96      1.0000 0.02440  0.91850  0.00410  Biso   1.000  H
  H97      1.0000 0.94000  0.94630  0.01280  Biso   1.000  H
  C68      1.0000 0.34880  0.00390  0.75540  Biso   1.000  C
  H98      1.0000 0.31800  0.03370  0.78990  Biso   1.000  H
  C69      1.0000 0.40580  0.03590  0.71260  Biso   1.000  C
  H99      1.0000 0.42110  0.09090  0.71190  Biso   1.000  H
  C70      1.0000 0.39740  0.90430  0.68910  Biso   1.000  C
  H100     1.0000 0.40700  0.85200  0.66840  Biso   1.000  H
  C71      1.0000 0.49790  0.97800  0.61190  Biso   1.000  C
  H101     1.0000 0.53330  0.02080  0.62760  Biso   1.000  H
  H102     1.0000 0.52490  0.92580  0.61080  Biso   1.000  H
  C72      1.0000 0.46860  0.99680  0.53020  Biso   1.000  C
  H103     1.0000 0.43390  0.95350  0.51410  Biso   1.000  H
  H104     1.0000 0.44090  0.04850  0.53150  Biso   1.000  H
  N13      1.0000 0.15740  0.91550  0.80350  Biso   1.000  N
  N14      1.0000 0.04880  0.95450  0.85380  Biso   1.000  N
  N15      1.0000 0.34300  0.92140  0.74080  Biso   1.000  N
  N16      1.0000 0.43690  0.97310  0.67070  Biso   1.000  N
  O13      1.0000 0.19210  0.76850  0.67030  Biso   1.000  O
  O14      1.0000 0.30690  0.72540  0.68690  Biso   1.000  O
  O15      1.0000 0.31760  0.22750  0.38290  Biso   1.000  O
  O16      1.0000 0.20430  0.27660  0.36730  Biso   1.000  O
  Cd5      1.0000 0.24584  0.32943  0.77661  Biso   1.000  Cd
  C73      1.0000 0.25470  0.22060  0.65240  Biso   1.000  C
  C74      1.0000 0.27210  0.15440  0.59010  Biso   1.000  C
  H105     1.0000 0.30100  0.17970  0.54760  Biso   1.000  H
  H106     1.0000 0.30380  0.11260  0.61440  Biso   1.000  H
  C75      1.0000 0.20440  0.11220  0.55410  Biso   1.000  C
  H107     1.0000 0.17610  0.15200  0.52290  Biso   1.000  H
  H108     1.0000 0.17170  0.09260  0.59640  Biso   1.000  H
  C76      1.0000 0.22600  0.03980  0.50150  Biso   1.000  C
  H109     1.0000 0.18260  0.02460  0.46950  Biso   1.000  H
  H110     1.0000 0.26570  0.05750  0.46560  Biso   1.000  H
  C77      1.0000 0.25280  0.96480  0.54580  Biso   1.000  C
  H111     1.0000 0.21260  0.94660  0.58090  Biso   1.000  H
  H112     1.0000 0.29530  0.98050  0.57880  Biso   1.000  H
  C78      1.0000 0.27650  0.89190  0.49410  Biso   1.000  C
  H113     1.0000 0.30990  0.91180  0.45260  Biso   1.000  H
  H114     1.0000 0.30490  0.85310  0.52640  Biso   1.000  H
  C79      1.0000 0.21150  0.84700  0.45640  Biso   1.000  C
  H115     1.0000 0.18040  0.82350  0.49810  Biso   1.000  H
  H116     1.0000 0.18080  0.88690  0.42790  Biso   1.000  H
  C80      1.0000 0.23300  0.77950  0.40020  Biso   1.000  C
  C81      1.0000 0.35470  0.49680  0.78550  Biso   1.000  C
  H117     1.0000 0.32170  0.53000  0.75660  Biso   1.000  H
  C82      1.0000 0.42170  0.52200  0.81570  Biso   1.000  C
  H118     1.0000 0.44320  0.57430  0.81140  Biso   1.000  H
  C83      1.0000 0.40200  0.39230  0.84600  Biso   1.000  C
  H119     1.0000 0.40860  0.33980  0.86750  Biso   1.000  H
  C84      1.0000 0.52300  0.45130  0.89720  Biso   1.000  C
  H120     1.0000 0.55550  0.49560  0.87880  Biso   1.000  H
  H121     1.0000 0.54800  0.39930  0.88560  Biso   1.000  H
  C85      1.0000 0.51240  0.45920  0.98690  Biso   1.000  C
  H122     1.0000 0.47560  0.41850  0.00410  Biso   1.000  H
  H123     1.0000 0.56000  0.44630  0.01280  Biso   1.000  H
  C86      1.0000 0.15120  0.50390  0.75540  Biso   1.000  C
  H124     1.0000 0.18200  0.53370  0.78990  Biso   1.000  H
  C87      1.0000 0.09420  0.53590  0.71260  Biso   1.000  C
  H125     1.0000 0.07890  0.59090  0.71190  Biso   1.000  H
  C88      1.0000 0.10260  0.40430  0.68910  Biso   1.000  C
  H126     1.0000 0.09300  0.35200  0.66840  Biso   1.000  H
  C89      1.0000 0.00210  0.47800  0.61190  Biso   1.000  C
  H127     1.0000 0.96670  0.52080  0.62760  Biso   1.000  H
  H128     1.0000 0.97510  0.42580  0.61080  Biso   1.000  H
  C90      1.0000 0.03140  0.49680  0.53020  Biso   1.000  C
  H129     1.0000 0.06610  0.45350  0.51410  Biso   1.000  H
  H130     1.0000 0.05910  0.54850  0.53150  Biso   1.000  H
  N17      1.0000 0.34260  0.41550  0.80350  Biso   1.000  N
  N18      1.0000 0.45120  0.45450  0.85380  Biso   1.000  N
  N19      1.0000 0.15700  0.42140  0.74080  Biso   1.000  N
  N20      1.0000 0.06310  0.47310  0.67070  Biso   1.000  N
  O17      1.0000 0.30790  0.26850  0.67030  Biso   1.000  O
  O18      1.0000 0.19310  0.22540  0.68690  Biso   1.000  O
  O19      1.0000 0.18240  0.72750  0.38290  Biso   1.000  O
  O20      1.0000 0.29570  0.77660  0.36730  Biso   1.000  O
  Cd6      1.0000 0.75416  0.32943  0.72339  Biso   1.000  Cd
  C91      1.0000 0.74530  0.22060  0.84760  Biso   1.000  C
  C92      1.0000 0.72790  0.15440  0.90990  Biso   1.000  C
  H131     1.0000 0.69900  0.17970  0.95240  Biso   1.000  H
  H132     1.0000 0.69620  0.11260  0.88560  Biso   1.000  H
  C93      1.0000 0.79560  0.11220  0.94590  Biso   1.000  C
  H133     1.0000 0.82390  0.15200  0.97710  Biso   1.000  H
  H134     1.0000 0.82830  0.09260  0.90360  Biso   1.000  H
  C94      1.0000 0.77400  0.03980  0.99850  Biso   1.000  C
  H135     1.0000 0.81740  0.02460  0.03050  Biso   1.000  H
  H136     1.0000 0.73430  0.05750  0.03440  Biso   1.000  H
  C95      1.0000 0.74720  0.96480  0.95420  Biso   1.000  C
  H137     1.0000 0.78740  0.94660  0.91910  Biso   1.000  H
  H138     1.0000 0.70470  0.98050  0.92120  Biso   1.000  H
  C96      1.0000 0.72350  0.89190  0.00590  Biso   1.000  C
  H139     1.0000 0.69010  0.91180  0.04740  Biso   1.000  H
  H140     1.0000 0.69510  0.85310  0.97360  Biso   1.000  H
  C97      1.0000 0.78850  0.84700  0.04360  Biso   1.000  C
  H141     1.0000 0.81960  0.82350  0.00190  Biso   1.000  H
  H142     1.0000 0.81920  0.88690  0.07210  Biso   1.000  H
  C98      1.0000 0.76700  0.77950  0.09980  Biso   1.000  C
  C99      1.0000 0.64530  0.49680  0.71450  Biso   1.000  C
  H143     1.0000 0.67830  0.53000  0.74340  Biso   1.000  H
  C100     1.0000 0.57830  0.52200  0.68430  Biso   1.000  C
  H144     1.0000 0.55680  0.57430  0.68860  Biso   1.000  H
  C101     1.0000 0.59800  0.39230  0.65400  Biso   1.000  C
  H145     1.0000 0.59140  0.33980  0.63250  Biso   1.000  H
  C102     1.0000 0.47700  0.45130  0.60280  Biso   1.000  C
  H146     1.0000 0.44450  0.49560  0.62120  Biso   1.000  H
  H147     1.0000 0.45200  0.39930  0.61440  Biso   1.000  H
  C103     1.0000 0.48760  0.45920  0.51310  Biso   1.000  C
  H148     1.0000 0.52440  0.41850  0.49590  Biso   1.000  H
  H149     1.0000 0.44000  0.44630  0.48720  Biso   1.000  H
  C104     1.0000 0.84880  0.50390  0.74460  Biso   1.000  C
  H150     1.0000 0.81800  0.53370  0.71010  Biso   1.000  H
  C105     1.0000 0.90580  0.53590  0.78740  Biso   1.000  C
  H151     1.0000 0.92110  0.59090  0.78810  Biso   1.000  H
  C106     1.0000 0.89740  0.40430  0.81090  Biso   1.000  C
  H152     1.0000 0.90700  0.35200  0.83160  Biso   1.000  H
  C107     1.0000 0.99790  0.47800  0.88810  Biso   1.000  C
  H153     1.0000 0.03330  0.52080  0.87240  Biso   1.000  H
  H154     1.0000 0.02490  0.42580  0.88920  Biso   1.000  H
  C108     1.0000 0.96860  0.49680  0.96980  Biso   1.000  C
  H155     1.0000 0.93390  0.45350  0.98590  Biso   1.000  H
  H156     1.0000 0.94090  0.54850  0.96850  Biso   1.000  H
  N21      1.0000 0.65740  0.41550  0.69650  Biso   1.000  N
  N22      1.0000 0.54880  0.45450  0.64620  Biso   1.000  N
  N23      1.0000 0.84300  0.42140  0.75920  Biso   1.000  N
  N24      1.0000 0.93690  0.47310  0.82930  Biso   1.000  N
  O21      1.0000 0.69210  0.26850  0.82970  Biso   1.000  O
  O22      1.0000 0.80690  0.22540  0.81310  Biso   1.000  O
  O23      1.0000 0.81760  0.72750  0.11710  Biso   1.000  O
  O24      1.0000 0.70430  0.77660  0.13270  Biso   1.000  O
  Cd7      1.0000 0.75416  0.67057  0.22339  Biso   1.000  Cd
  C109     1.0000 0.74530  0.77940  0.34760  Biso   1.000  C
  C110     1.0000 0.72790  0.84560  0.40990  Biso   1.000  C
  H157     1.0000 0.69900  0.82030  0.45240  Biso   1.000  H
  H158     1.0000 0.69620  0.88740  0.38560  Biso   1.000  H
  C111     1.0000 0.79560  0.88780  0.44590  Biso   1.000  C
  H159     1.0000 0.82390  0.84800  0.47710  Biso   1.000  H
  H160     1.0000 0.82830  0.90740  0.40360  Biso   1.000  H
  C112     1.0000 0.77400  0.96020  0.49850  Biso   1.000  C
  H161     1.0000 0.81740  0.97540  0.53050  Biso   1.000  H
  H162     1.0000 0.73430  0.94250  0.53440  Biso   1.000  H
  C113     1.0000 0.74720  0.03520  0.45420  Biso   1.000  C
  H163     1.0000 0.78740  0.05340  0.41910  Biso   1.000  H
  H164     1.0000 0.70470  0.01950  0.42120  Biso   1.000  H
  C114     1.0000 0.72350  0.10810  0.50590  Biso   1.000  C
  H165     1.0000 0.69010  0.08820  0.54740  Biso   1.000  H
  H166     1.0000 0.69510  0.14690  0.47360  Biso   1.000  H
  C115     1.0000 0.78850  0.15300  0.54360  Biso   1.000  C
  H167     1.0000 0.81960  0.17650  0.50190  Biso   1.000  H
  H168     1.0000 0.81920  0.11310  0.57210  Biso   1.000  H
  C116     1.0000 0.76700  0.22050  0.59980  Biso   1.000  C
  C117     1.0000 0.64530  0.50320  0.21450  Biso   1.000  C
  H169     1.0000 0.67830  0.47000  0.24340  Biso   1.000  H
  C118     1.0000 0.57830  0.47800  0.18430  Biso   1.000  C
  H170     1.0000 0.55680  0.42570  0.18860  Biso   1.000  H
  C119     1.0000 0.59800  0.60770  0.15400  Biso   1.000  C
  H171     1.0000 0.59140  0.66020  0.13250  Biso   1.000  H
  C120     1.0000 0.47700  0.54870  0.10280  Biso   1.000  C
  H172     1.0000 0.44450  0.50440  0.12120  Biso   1.000  H
  H173     1.0000 0.45200  0.60070  0.11440  Biso   1.000  H
  C121     1.0000 0.48760  0.54080  0.01310  Biso   1.000  C
  H174     1.0000 0.52440  0.58150  0.99590  Biso   1.000  H
  H175     1.0000 0.44000  0.55370  0.98720  Biso   1.000  H
  C122     1.0000 0.84880  0.49610  0.24460  Biso   1.000  C
  H176     1.0000 0.81800  0.46630  0.21010  Biso   1.000  H
  C123     1.0000 0.90580  0.46410  0.28740  Biso   1.000  C
  H177     1.0000 0.92110  0.40910  0.28810  Biso   1.000  H
  C124     1.0000 0.89740  0.59570  0.31090  Biso   1.000  C
  H178     1.0000 0.90700  0.64800  0.33160  Biso   1.000  H
  C125     1.0000 0.99790  0.52200  0.38810  Biso   1.000  C
  H179     1.0000 0.03330  0.47920  0.37240  Biso   1.000  H
  H180     1.0000 0.02490  0.57420  0.38920  Biso   1.000  H
  C126     1.0000 0.96860  0.50320  0.46980  Biso   1.000  C
  H181     1.0000 0.93390  0.54650  0.48590  Biso   1.000  H
  H182     1.0000 0.94090  0.45150  0.46850  Biso   1.000  H
  N25      1.0000 0.65740  0.58450  0.19650  Biso   1.000  N
  N26      1.0000 0.54880  0.54550  0.14620  Biso   1.000  N
  N27      1.0000 0.84300  0.57860  0.25920  Biso   1.000  N
  N28      1.0000 0.93690  0.52690  0.32930  Biso   1.000  N
  O25      1.0000 0.69210  0.73150  0.32970  Biso   1.000  O
  O26      1.0000 0.80690  0.77460  0.31310  Biso   1.000  O
  O27      1.0000 0.81760  0.27250  0.61710  Biso   1.000  O
  O28      1.0000 0.70430  0.22340  0.63270  Biso   1.000  O
  Cd8      1.0000 0.24584  0.67057  0.27661  Biso   1.000  Cd
  C127     1.0000 0.25470  0.77940  0.15240  Biso   1.000  C
  C128     1.0000 0.27210  0.84560  0.09010  Biso   1.000  C
  H183     1.0000 0.30100  0.82030  0.04760  Biso   1.000  H
  H184     1.0000 0.30380  0.88740  0.11440  Biso   1.000  H
  C129     1.0000 0.20440  0.88780  0.05410  Biso   1.000  C
  H185     1.0000 0.17610  0.84800  0.02290  Biso   1.000  H
  H186     1.0000 0.17170  0.90740  0.09640  Biso   1.000  H
  C130     1.0000 0.22600  0.96020  0.00150  Biso   1.000  C
  H187     1.0000 0.18260  0.97540  0.96950  Biso   1.000  H
  H188     1.0000 0.26570  0.94250  0.96560  Biso   1.000  H
  C131     1.0000 0.25280  0.03520  0.04580  Biso   1.000  C
  H189     1.0000 0.21260  0.05340  0.08090  Biso   1.000  H
  H190     1.0000 0.29530  0.01950  0.07880  Biso   1.000  H
  C132     1.0000 0.27650  0.10810  0.99410  Biso   1.000  C
  H191     1.0000 0.30990  0.08820  0.95260  Biso   1.000  H
  H192     1.0000 0.30490  0.14690  0.02640  Biso   1.000  H
  C133     1.0000 0.21150  0.15300  0.95640  Biso   1.000  C
  H193     1.0000 0.18040  0.17650  0.99810  Biso   1.000  H
  H194     1.0000 0.18080  0.11310  0.92790  Biso   1.000  H
  C134     1.0000 0.23300  0.22050  0.90020  Biso   1.000  C
  C135     1.0000 0.35470  0.50320  0.28550  Biso   1.000  C
  H195     1.0000 0.32170  0.47000  0.25660  Biso   1.000  H
  C136     1.0000 0.42170  0.47800  0.31570  Biso   1.000  C
  H196     1.0000 0.44320  0.42570  0.31140  Biso   1.000  H
  C137     1.0000 0.40200  0.60770  0.34600  Biso   1.000  C
  H197     1.0000 0.40860  0.66020  0.36750  Biso   1.000  H
  C138     1.0000 0.52300  0.54870  0.39720  Biso   1.000  C
  H198     1.0000 0.55550  0.50440  0.37880  Biso   1.000  H
  H199     1.0000 0.54800  0.60070  0.38560  Biso   1.000  H
  C139     1.0000 0.51240  0.54080  0.48690  Biso   1.000  C
  H200     1.0000 0.47560  0.58150  0.50410  Biso   1.000  H
  H201     1.0000 0.56000  0.55370  0.51280  Biso   1.000  H
  C140     1.0000 0.15120  0.49610  0.25540  Biso   1.000  C
  H202     1.0000 0.18200  0.46630  0.28990  Biso   1.000  H
  C141     1.0000 0.09420  0.46410  0.21260  Biso   1.000  C
  H203     1.0000 0.07890  0.40910  0.21190  Biso   1.000  H
  C142     1.0000 0.10260  0.59570  0.18910  Biso   1.000  C
  H204     1.0000 0.09300  0.64800  0.16840  Biso   1.000  H
  C143     1.0000 0.00210  0.52200  0.11190  Biso   1.000  C
  H205     1.0000 0.96670  0.47920  0.12760  Biso   1.000  H
  H206     1.0000 0.97510  0.57420  0.11080  Biso   1.000  H
  C144     1.0000 0.03140  0.50320  0.03020  Biso   1.000  C
  H207     1.0000 0.06610  0.54650  0.01410  Biso   1.000  H
  H208     1.0000 0.05910  0.45150  0.03150  Biso   1.000  H
  N29      1.0000 0.34260  0.58450  0.30350  Biso   1.000  N
  N30      1.0000 0.45120  0.54550  0.35380  Biso   1.000  N
  N31      1.0000 0.15700  0.57860  0.24080  Biso   1.000  N
  N32      1.0000 0.06310  0.52690  0.17070  Biso   1.000  N
  O29      1.0000 0.30790  0.73150  0.17030  Biso   1.000  O
  O30      1.0000 0.19310  0.77460  0.18690  Biso   1.000  O
  O31      1.0000 0.18240  0.27250  0.88290  Biso   1.000  O
  O32      1.0000 0.29570  0.22340  0.86730  Biso   1.000  O
