data_image0
_cell_length_a       12.328
_cell_length_b       21.579
_cell_length_c       26.024
_cell_angle_alpha    90
_cell_angle_beta     99.54
_cell_angle_gamma    90

_symmetry_space_group_name_H-M    "P 1"
_symmetry_int_tables_number       1

loop_
  _symmetry_equiv_pos_as_xyz
  'x, y, z'

loop_
  _atom_site_label
  _atom_site_occupancy
  _atom_site_fract_x
  _atom_site_fract_y
  _atom_site_fract_z
  _atom_site_thermal_displace_type
  _atom_site_B_iso_or_equiv
  _atom_site_type_symbol
  Mo1      1.0000 0.06871  0.35793  0.40481  Biso   1.000  Mo
  Mo2      1.0000 0.95489  0.26301  0.42492  Biso   1.000  Mo
  Mo3      1.0000 0.42887  0.23176  0.39479  Biso   1.000  Mo
  Mo4      1.0000 0.28359  0.10438  0.42424  Biso   1.000  Mo
  Mo5      1.0000 0.34151  0.34050  0.38950  Biso   1.000  Mo
  Mo6      1.0000 0.07998  0.11745  0.43675  Biso   1.000  Mo
  Co1      1.0000 0.14812  0.56524  0.29301  Biso   1.000  Co
  P1       1.0000 0.14909  0.22611  0.35137  Biso   1.000  P
  P2       1.0000 0.41394  0.10469  0.32182  Biso   1.000  P
  P3       1.0000 0.85306  0.14406  0.35311  Biso   1.000  P
  P4       1.0000 0.16882  0.41451  0.30056  Biso   1.000  P
  O1       1.0000 0.14240  0.36814  0.25642  Biso   1.000  O
  O2       1.0000 0.16890  0.47785  0.27618  Biso   1.000  O
  O3       1.0000 0.28180  0.40053  0.33119  Biso   1.000  O
  O4       1.0000 0.74090  0.11076  0.34828  Biso   1.000  O
  O5       1.0000 0.50490  0.06009  0.31423  Biso   1.000  O
  O6       1.0000 0.08170  0.40984  0.33831  Biso   1.000  O
  O7       1.0000 0.88690  0.15561  0.30092  Biso   1.000  O
  O8       1.0000 0.14500  0.07728  0.38325  Biso   1.000  O
  O9       1.0000 0.94970  0.31326  0.36257  Biso   1.000  O
  O10      1.0000 0.10160  0.21936  0.29429  Biso   1.000  O
  O11      1.0000 0.99020  0.18385  0.47165  Biso   1.000  O
  O12      1.0000 0.38320  0.28733  0.33648  Biso   1.000  O
  O13      1.0000 0.06710  0.20248  0.38614  Biso   1.000  O
  O14      1.0000 0.35020  0.27564  0.44412  Biso   1.000  O
  O15      1.0000 0.17460  0.29536  0.36503  Biso   1.000  O
  O16      1.0000 0.84130  0.20529  0.38227  Biso   1.000  O
  O17      1.0000 0.25690  0.18962  0.36786  Biso   1.000  O
  O18      1.0000 0.35300  0.07451  0.36254  Biso   1.000  O
  O19      1.0000 0.21520  0.16134  0.46959  Biso   1.000  O
  O20      1.0000 0.46150  0.16881  0.33999  Biso   1.000  O
  O21      1.0000 0.23190  0.38611  0.43020  Biso   1.000  O
  O22      1.0000 0.93460  0.10102  0.38869  Biso   1.000  O
  O23      1.0000 0.09870  0.29444  0.45923  Biso   1.000  O
  O24      1.0000 0.42280  0.15595  0.44214  Biso   1.000  O
  O25      1.0000 0.33440  0.11306  0.27031  Biso   1.000  O
  Na1      1.0000 0.90980  0.45632  0.31410  Biso   1.000  Na
  Mo7      1.0000 0.56871  0.85793  0.40481  Biso   1.000  Mo
  Mo8      1.0000 0.45489  0.76301  0.42492  Biso   1.000  Mo
  Mo9      1.0000 0.92887  0.73176  0.39479  Biso   1.000  Mo
  Mo10     1.0000 0.78359  0.60438  0.42424  Biso   1.000  Mo
  Mo11     1.0000 0.84151  0.84050  0.38950  Biso   1.000  Mo
  Mo12     1.0000 0.57998  0.61745  0.43675  Biso   1.000  Mo
  Co2      1.0000 0.64812  0.06524  0.29301  Biso   1.000  Co
  P5       1.0000 0.64909  0.72611  0.35137  Biso   1.000  P
  P6       1.0000 0.91394  0.60469  0.32182  Biso   1.000  P
  P7       1.0000 0.35306  0.64406  0.35311  Biso   1.000  P
  P8       1.0000 0.66882  0.91451  0.30056  Biso   1.000  P
  O26      1.0000 0.64240  0.86814  0.25642  Biso   1.000  O
  O27      1.0000 0.66890  0.97785  0.27618  Biso   1.000  O
  O28      1.0000 0.78180  0.90053  0.33119  Biso   1.000  O
  O29      1.0000 0.24090  0.61076  0.34828  Biso   1.000  O
  O30      1.0000 0.00490  0.56009  0.31423  Biso   1.000  O
  O31      1.0000 0.58170  0.90984  0.33831  Biso   1.000  O
  O32      1.0000 0.38690  0.65561  0.30092  Biso   1.000  O
  O33      1.0000 0.64500  0.57728  0.38325  Biso   1.000  O
  O34      1.0000 0.44970  0.81326  0.36257  Biso   1.000  O
  O35      1.0000 0.60160  0.71936  0.29429  Biso   1.000  O
  O36      1.0000 0.49020  0.68385  0.47165  Biso   1.000  O
  O37      1.0000 0.88320  0.78733  0.33648  Biso   1.000  O
  O38      1.0000 0.56710  0.70248  0.38614  Biso   1.000  O
  O39      1.0000 0.85020  0.77564  0.44412  Biso   1.000  O
  O40      1.0000 0.67460  0.79536  0.36503  Biso   1.000  O
  O41      1.0000 0.34130  0.70529  0.38227  Biso   1.000  O
  O42      1.0000 0.75690  0.68962  0.36786  Biso   1.000  O
  O43      1.0000 0.85300  0.57451  0.36254  Biso   1.000  O
  O44      1.0000 0.71520  0.66134  0.46959  Biso   1.000  O
  O45      1.0000 0.96150  0.66881  0.33999  Biso   1.000  O
  O46      1.0000 0.73190  0.88611  0.43020  Biso   1.000  O
  O47      1.0000 0.43460  0.60102  0.38869  Biso   1.000  O
  O48      1.0000 0.59870  0.79444  0.45923  Biso   1.000  O
  O49      1.0000 0.92280  0.65595  0.44214  Biso   1.000  O
  O50      1.0000 0.83440  0.61306  0.27031  Biso   1.000  O
  Na2      1.0000 0.40980  0.95632  0.31410  Biso   1.000  Na
  Mo13     1.0000 0.93129  0.35793  0.09519  Biso   1.000  Mo
  Mo14     1.0000 0.04511  0.26301  0.07508  Biso   1.000  Mo
  Mo15     1.0000 0.57113  0.23176  0.10521  Biso   1.000  Mo
  Mo16     1.0000 0.71641  0.10438  0.07576  Biso   1.000  Mo
  Mo17     1.0000 0.65849  0.34050  0.11050  Biso   1.000  Mo
  Mo18     1.0000 0.92002  0.11745  0.06325  Biso   1.000  Mo
  Co3      1.0000 0.85188  0.56524  0.20699  Biso   1.000  Co
  P9       1.0000 0.85091  0.22611  0.14863  Biso   1.000  P
  P10      1.0000 0.58606  0.10469  0.17818  Biso   1.000  P
  P11      1.0000 0.14694  0.14406  0.14689  Biso   1.000  P
  P12      1.0000 0.83118  0.41451  0.19944  Biso   1.000  P
  O51      1.0000 0.85760  0.36814  0.24358  Biso   1.000  O
  O52      1.0000 0.83110  0.47785  0.22382  Biso   1.000  O
  O53      1.0000 0.71820  0.40053  0.16881  Biso   1.000  O
  O54      1.0000 0.25910  0.11076  0.15172  Biso   1.000  O
  O55      1.0000 0.49510  0.06009  0.18577  Biso   1.000  O
  O56      1.0000 0.91830  0.40984  0.16169  Biso   1.000  O
  O57      1.0000 0.11310  0.15561  0.19908  Biso   1.000  O
  O58      1.0000 0.85500  0.07728  0.11675  Biso   1.000  O
  O59      1.0000 0.05030  0.31326  0.13743  Biso   1.000  O
  O60      1.0000 0.89840  0.21936  0.20571  Biso   1.000  O
  O61      1.0000 0.00980  0.18385  0.02835  Biso   1.000  O
  O62      1.0000 0.61680  0.28733  0.16352  Biso   1.000  O
  O63      1.0000 0.93290  0.20248  0.11386  Biso   1.000  O
  O64      1.0000 0.64980  0.27564  0.05588  Biso   1.000  O
  O65      1.0000 0.82540  0.29536  0.13497  Biso   1.000  O
  O66      1.0000 0.15870  0.20529  0.11773  Biso   1.000  O
  O67      1.0000 0.74310  0.18962  0.13214  Biso   1.000  O
  O68      1.0000 0.64700  0.07451  0.13746  Biso   1.000  O
  O69      1.0000 0.78480  0.16134  0.03041  Biso   1.000  O
  O70      1.0000 0.53850  0.16881  0.16001  Biso   1.000  O
  O71      1.0000 0.76810  0.38611  0.06980  Biso   1.000  O
  O72      1.0000 0.06540  0.10102  0.11131  Biso   1.000  O
  O73      1.0000 0.90130  0.29444  0.04077  Biso   1.000  O
  O74      1.0000 0.57720  0.15595  0.05786  Biso   1.000  O
  O75      1.0000 0.66560  0.11306  0.22969  Biso   1.000  O
  Na3      1.0000 0.09020  0.45632  0.18590  Biso   1.000  Na
  Mo19     1.0000 0.43129  0.85793  0.09519  Biso   1.000  Mo
  Mo20     1.0000 0.54511  0.76301  0.07508  Biso   1.000  Mo
  Mo21     1.0000 0.07113  0.73176  0.10521  Biso   1.000  Mo
  Mo22     1.0000 0.21641  0.60438  0.07576  Biso   1.000  Mo
  Mo23     1.0000 0.15849  0.84050  0.11050  Biso   1.000  Mo
  Mo24     1.0000 0.42002  0.61745  0.06325  Biso   1.000  Mo
  Co4      1.0000 0.35188  0.06524  0.20699  Biso   1.000  Co
  P13      1.0000 0.35091  0.72611  0.14863  Biso   1.000  P
  P14      1.0000 0.08606  0.60469  0.17818  Biso   1.000  P
  P15      1.0000 0.64694  0.64406  0.14689  Biso   1.000  P
  P16      1.0000 0.33118  0.91451  0.19944  Biso   1.000  P
  O76      1.0000 0.35760  0.86814  0.24358  Biso   1.000  O
  O77      1.0000 0.33110  0.97785  0.22382  Biso   1.000  O
  O78      1.0000 0.21820  0.90053  0.16881  Biso   1.000  O
  O79      1.0000 0.75910  0.61076  0.15172  Biso   1.000  O
  O80      1.0000 0.99510  0.56009  0.18577  Biso   1.000  O
  O81      1.0000 0.41830  0.90984  0.16169  Biso   1.000  O
  O82      1.0000 0.61310  0.65561  0.19908  Biso   1.000  O
  O83      1.0000 0.35500  0.57728  0.11675  Biso   1.000  O
  O84      1.0000 0.55030  0.81326  0.13743  Biso   1.000  O
  O85      1.0000 0.39840  0.71936  0.20571  Biso   1.000  O
  O86      1.0000 0.50980  0.68385  0.02835  Biso   1.000  O
  O87      1.0000 0.11680  0.78733  0.16352  Biso   1.000  O
  O88      1.0000 0.43290  0.70248  0.11386  Biso   1.000  O
  O89      1.0000 0.14980  0.77564  0.05588  Biso   1.000  O
  O90      1.0000 0.32540  0.79536  0.13497  Biso   1.000  O
  O91      1.0000 0.65870  0.70529  0.11773  Biso   1.000  O
  O92      1.0000 0.24310  0.68962  0.13214  Biso   1.000  O
  O93      1.0000 0.14700  0.57451  0.13746  Biso   1.000  O
  O94      1.0000 0.28480  0.66134  0.03041  Biso   1.000  O
  O95      1.0000 0.03850  0.66881  0.16001  Biso   1.000  O
  O96      1.0000 0.26810  0.88611  0.06980  Biso   1.000  O
  O97      1.0000 0.56540  0.60102  0.11131  Biso   1.000  O
  O98      1.0000 0.40130  0.79444  0.04077  Biso   1.000  O
  O99      1.0000 0.07720  0.65595  0.05786  Biso   1.000  O
  O100     1.0000 0.16560  0.61306  0.22969  Biso   1.000  O
  Na4      1.0000 0.59020  0.95632  0.18590  Biso   1.000  Na
  Mo25     1.0000 0.93129  0.64207  0.59519  Biso   1.000  Mo
  Mo26     1.0000 0.04511  0.73699  0.57508  Biso   1.000  Mo
  Mo27     1.0000 0.57113  0.76824  0.60521  Biso   1.000  Mo
  Mo28     1.0000 0.71641  0.89562  0.57576  Biso   1.000  Mo
  Mo29     1.0000 0.65849  0.65950  0.61050  Biso   1.000  Mo
  Mo30     1.0000 0.92002  0.88255  0.56325  Biso   1.000  Mo
  Co5      1.0000 0.85188  0.43476  0.70699  Biso   1.000  Co
  P17      1.0000 0.85091  0.77389  0.64863  Biso   1.000  P
  P18      1.0000 0.58606  0.89531  0.67818  Biso   1.000  P
  P19      1.0000 0.14694  0.85594  0.64689  Biso   1.000  P
  P20      1.0000 0.83118  0.58549  0.69944  Biso   1.000  P
  O101     1.0000 0.85760  0.63186  0.74358  Biso   1.000  O
  O102     1.0000 0.83110  0.52215  0.72382  Biso   1.000  O
  O103     1.0000 0.71820  0.59947  0.66881  Biso   1.000  O
  O104     1.0000 0.25910  0.88924  0.65172  Biso   1.000  O
  O105     1.0000 0.49510  0.93991  0.68577  Biso   1.000  O
  O106     1.0000 0.91830  0.59016  0.66169  Biso   1.000  O
  O107     1.0000 0.11310  0.84439  0.69908  Biso   1.000  O
  O108     1.0000 0.85500  0.92272  0.61675  Biso   1.000  O
  O109     1.0000 0.05030  0.68674  0.63743  Biso   1.000  O
  O110     1.0000 0.89840  0.78064  0.70571  Biso   1.000  O
  O111     1.0000 0.00980  0.81615  0.52835  Biso   1.000  O
  O112     1.0000 0.61680  0.71267  0.66352  Biso   1.000  O
  O113     1.0000 0.93290  0.79752  0.61386  Biso   1.000  O
  O114     1.0000 0.64980  0.72436  0.55588  Biso   1.000  O
  O115     1.0000 0.82540  0.70464  0.63497  Biso   1.000  O
  O116     1.0000 0.15870  0.79471  0.61773  Biso   1.000  O
  O117     1.0000 0.74310  0.81038  0.63214  Biso   1.000  O
  O118     1.0000 0.64700  0.92549  0.63746  Biso   1.000  O
  O119     1.0000 0.78480  0.83866  0.53041  Biso   1.000  O
  O120     1.0000 0.53850  0.83119  0.66001  Biso   1.000  O
  O121     1.0000 0.76810  0.61389  0.56980  Biso   1.000  O
  O122     1.0000 0.06540  0.89898  0.61131  Biso   1.000  O
  O123     1.0000 0.90130  0.70556  0.54077  Biso   1.000  O
  O124     1.0000 0.57720  0.84405  0.55786  Biso   1.000  O
  O125     1.0000 0.66560  0.88694  0.72969  Biso   1.000  O
  Na5      1.0000 0.09020  0.54368  0.68590  Biso   1.000  Na
  Mo31     1.0000 0.43129  0.14207  0.59519  Biso   1.000  Mo
  Mo32     1.0000 0.54511  0.23699  0.57508  Biso   1.000  Mo
  Mo33     1.0000 0.07113  0.26824  0.60521  Biso   1.000  Mo
  Mo34     1.0000 0.21641  0.39562  0.57576  Biso   1.000  Mo
  Mo35     1.0000 0.15849  0.15950  0.61050  Biso   1.000  Mo
  Mo36     1.0000 0.42002  0.38255  0.56325  Biso   1.000  Mo
  Co6      1.0000 0.35188  0.93476  0.70699  Biso   1.000  Co
  P21      1.0000 0.35091  0.27389  0.64863  Biso   1.000  P
  P22      1.0000 0.08606  0.39531  0.67818  Biso   1.000  P
  P23      1.0000 0.64694  0.35594  0.64689  Biso   1.000  P
  P24      1.0000 0.33118  0.08549  0.69944  Biso   1.000  P
  O126     1.0000 0.35760  0.13186  0.74358  Biso   1.000  O
  O127     1.0000 0.33110  0.02215  0.72382  Biso   1.000  O
  O128     1.0000 0.21820  0.09947  0.66881  Biso   1.000  O
  O129     1.0000 0.75910  0.38924  0.65172  Biso   1.000  O
  O130     1.0000 0.99510  0.43991  0.68577  Biso   1.000  O
  O131     1.0000 0.41830  0.09016  0.66169  Biso   1.000  O
  O132     1.0000 0.61310  0.34439  0.69908  Biso   1.000  O
  O133     1.0000 0.35500  0.42272  0.61675  Biso   1.000  O
  O134     1.0000 0.55030  0.18674  0.63743  Biso   1.000  O
  O135     1.0000 0.39840  0.28064  0.70571  Biso   1.000  O
  O136     1.0000 0.50980  0.31615  0.52835  Biso   1.000  O
  O137     1.0000 0.11680  0.21267  0.66352  Biso   1.000  O
  O138     1.0000 0.43290  0.29752  0.61386  Biso   1.000  O
  O139     1.0000 0.14980  0.22436  0.55588  Biso   1.000  O
  O140     1.0000 0.32540  0.20464  0.63497  Biso   1.000  O
  O141     1.0000 0.65870  0.29471  0.61773  Biso   1.000  O
  O142     1.0000 0.24310  0.31038  0.63214  Biso   1.000  O
  O143     1.0000 0.14700  0.42549  0.63746  Biso   1.000  O
  O144     1.0000 0.28480  0.33866  0.53041  Biso   1.000  O
  O145     1.0000 0.03850  0.33119  0.66001  Biso   1.000  O
  O146     1.0000 0.26810  0.11389  0.56980  Biso   1.000  O
  O147     1.0000 0.56540  0.39898  0.61131  Biso   1.000  O
  O148     1.0000 0.40130  0.20556  0.54077  Biso   1.000  O
  O149     1.0000 0.07720  0.34405  0.55786  Biso   1.000  O
  O150     1.0000 0.16560  0.38694  0.72969  Biso   1.000  O
  Na6      1.0000 0.59020  0.04368  0.68590  Biso   1.000  Na
  Mo37     1.0000 0.06871  0.64207  0.90481  Biso   1.000  Mo
  Mo38     1.0000 0.95489  0.73699  0.92492  Biso   1.000  Mo
  Mo39     1.0000 0.42887  0.76824  0.89479  Biso   1.000  Mo
  Mo40     1.0000 0.28359  0.89562  0.92424  Biso   1.000  Mo
  Mo41     1.0000 0.34151  0.65950  0.88950  Biso   1.000  Mo
  Mo42     1.0000 0.07998  0.88255  0.93675  Biso   1.000  Mo
  Co7      1.0000 0.14812  0.43476  0.79301  Biso   1.000  Co
  P25      1.0000 0.14909  0.77389  0.85137  Biso   1.000  P
  P26      1.0000 0.41394  0.89531  0.82182  Biso   1.000  P
  P27      1.0000 0.85306  0.85594  0.85311  Biso   1.000  P
  P28      1.0000 0.16882  0.58549  0.80056  Biso   1.000  P
  O151     1.0000 0.14240  0.63186  0.75642  Biso   1.000  O
  O152     1.0000 0.16890  0.52215  0.77618  Biso   1.000  O
  O153     1.0000 0.28180  0.59947  0.83119  Biso   1.000  O
  O154     1.0000 0.74090  0.88924  0.84828  Biso   1.000  O
  O155     1.0000 0.50490  0.93991  0.81423  Biso   1.000  O
  O156     1.0000 0.08170  0.59016  0.83831  Biso   1.000  O
  O157     1.0000 0.88690  0.84439  0.80092  Biso   1.000  O
  O158     1.0000 0.14500  0.92272  0.88325  Biso   1.000  O
  O159     1.0000 0.94970  0.68674  0.86257  Biso   1.000  O
  O160     1.0000 0.10160  0.78064  0.79429  Biso   1.000  O
  O161     1.0000 0.99020  0.81615  0.97165  Biso   1.000  O
  O162     1.0000 0.38320  0.71267  0.83648  Biso   1.000  O
  O163     1.0000 0.06710  0.79752  0.88614  Biso   1.000  O
  O164     1.0000 0.35020  0.72436  0.94412  Biso   1.000  O
  O165     1.0000 0.17460  0.70464  0.86503  Biso   1.000  O
  O166     1.0000 0.84130  0.79471  0.88227  Biso   1.000  O
  O167     1.0000 0.25690  0.81038  0.86786  Biso   1.000  O
  O168     1.0000 0.35300  0.92549  0.86254  Biso   1.000  O
  O169     1.0000 0.21520  0.83866  0.96959  Biso   1.000  O
  O170     1.0000 0.46150  0.83119  0.83999  Biso   1.000  O
  O171     1.0000 0.23190  0.61389  0.93020  Biso   1.000  O
  O172     1.0000 0.93460  0.89898  0.88869  Biso   1.000  O
  O173     1.0000 0.09870  0.70556  0.95923  Biso   1.000  O
  O174     1.0000 0.42280  0.84405  0.94214  Biso   1.000  O
  O175     1.0000 0.33440  0.88694  0.77031  Biso   1.000  O
  Na7      1.0000 0.90980  0.54368  0.81410  Biso   1.000  Na
  Mo43     1.0000 0.56871  0.14207  0.90481  Biso   1.000  Mo
  Mo44     1.0000 0.45489  0.23699  0.92492  Biso   1.000  Mo
  Mo45     1.0000 0.92887  0.26824  0.89479  Biso   1.000  Mo
  Mo46     1.0000 0.78359  0.39562  0.92424  Biso   1.000  Mo
  Mo47     1.0000 0.84151  0.15950  0.88950  Biso   1.000  Mo
  Mo48     1.0000 0.57998  0.38255  0.93675  Biso   1.000  Mo
  Co8      1.0000 0.64812  0.93476  0.79301  Biso   1.000  Co
  P29      1.0000 0.64909  0.27389  0.85137  Biso   1.000  P
  P30      1.0000 0.91394  0.39531  0.82182  Biso   1.000  P
  P31      1.0000 0.35306  0.35594  0.85311  Biso   1.000  P
  P32      1.0000 0.66882  0.08549  0.80056  Biso   1.000  P
  O176     1.0000 0.64240  0.13186  0.75642  Biso   1.000  O
  O177     1.0000 0.66890  0.02215  0.77618  Biso   1.000  O
  O178     1.0000 0.78180  0.09947  0.83119  Biso   1.000  O
  O179     1.0000 0.24090  0.38924  0.84828  Biso   1.000  O
  O180     1.0000 0.00490  0.43991  0.81423  Biso   1.000  O
  O181     1.0000 0.58170  0.09016  0.83831  Biso   1.000  O
  O182     1.0000 0.38690  0.34439  0.80092  Biso   1.000  O
  O183     1.0000 0.64500  0.42272  0.88325  Biso   1.000  O
  O184     1.0000 0.44970  0.18674  0.86257  Biso   1.000  O
  O185     1.0000 0.60160  0.28064  0.79429  Biso   1.000  O
  O186     1.0000 0.49020  0.31615  0.97165  Biso   1.000  O
  O187     1.0000 0.88320  0.21267  0.83648  Biso   1.000  O
  O188     1.0000 0.56710  0.29752  0.88614  Biso   1.000  O
  O189     1.0000 0.85020  0.22436  0.94412  Biso   1.000  O
  O190     1.0000 0.67460  0.20464  0.86503  Biso   1.000  O
  O191     1.0000 0.34130  0.29471  0.88227  Biso   1.000  O
  O192     1.0000 0.75690  0.31038  0.86786  Biso   1.000  O
  O193     1.0000 0.85300  0.42549  0.86254  Biso   1.000  O
  O194     1.0000 0.71520  0.33866  0.96959  Biso   1.000  O
  O195     1.0000 0.96150  0.33119  0.83999  Biso   1.000  O
  O196     1.0000 0.73190  0.11389  0.93020  Biso   1.000  O
  O197     1.0000 0.43460  0.39898  0.88869  Biso   1.000  O
  O198     1.0000 0.59870  0.20556  0.95923  Biso   1.000  O
  O199     1.0000 0.92280  0.34405  0.94214  Biso   1.000  O
  O200     1.0000 0.83440  0.38694  0.77031  Biso   1.000  O
  Na8      1.0000 0.40980  0.04368  0.81410  Biso   1.000  Na
  Co9      1.0000 0.25000  0.25000  0.50000  Biso   1.000  Co
  Co10     1.0000 0.75000  0.25000  0.00000  Biso   1.000  Co
  Co11     1.0000 0.75000  0.75000  0.50000  Biso   1.000  Co
  Co12     1.0000 0.25000  0.75000  0.00000  Biso   1.000  Co
  Co13     1.0000 0.00000  0.15273  0.25000  Biso   1.000  Co
  Na9      1.0000 0.00000  0.30560  0.25000  Biso   1.000  Na
  Co14     1.0000 0.50000  0.65273  0.25000  Biso   1.000  Co
  Na10     1.0000 0.50000  0.80560  0.25000  Biso   1.000  Na
  Co15     1.0000 0.00000  0.84727  0.75000  Biso   1.000  Co
  Na11     1.0000 0.00000  0.69440  0.75000  Biso   1.000  Na
  Co16     1.0000 0.50000  0.34727  0.75000  Biso   1.000  Co
  Na12     1.0000 0.50000  0.19440  0.75000  Biso   1.000  Na
