data_IYICUP_clean
_audit_creation_date              2014-07-02
_audit_creation_method            'Materials Studio'
_symmetry_space_group_name_H-M    'P1'
_symmetry_Int_Tables_number       1
_symmetry_cell_setting            triclinic
loop_
_symmetry_equiv_pos_as_xyz
  x,y,z
_cell_length_a                    18.3139
_cell_length_b                    18.3139
_cell_length_c                    21.6853
_cell_angle_alpha                 110.3830
_cell_angle_beta                  110.3830
_cell_angle_gamma                 100.0900
loop_
_atom_site_label
_atom_site_type_symbol
_atom_site_fract_x
_atom_site_fract_y
_atom_site_fract_z
_atom_site_U_iso_or_equiv
_atom_site_adp_type
_atom_site_occupancy
La1    La    0.14669   0.39669   0.75000   0.01267  Uiso   1.00
La2    La    0.60331   0.85331   0.75000   0.01267  Uiso   1.00
La3    La    0.85331   0.60331   0.25000   0.01267  Uiso   1.00
La4    La    0.39669   0.14669   0.25000   0.01267  Uiso   1.00
Co1    Co    0.64138   0.35862   0.75000   0.01267  Uiso   1.00
Co2    Co    0.10862   0.89138   0.75000   0.01267  Uiso   1.00
Co3    Co    0.35862   0.64138   0.25000   0.01267  Uiso   1.00
Co4    Co    0.89138   0.10862   0.25000   0.01267  Uiso   1.00
H1     H     0.82090   0.41090   0.86260   0.01267  Uiso   1.00
H2     H     0.94450   0.41070   0.85700   0.01267  Uiso   1.00
H3     H     0.82700   0.32500   0.63800   0.01267  Uiso   1.00
H4     H     0.70730   0.30170   0.54500   0.01267  Uiso   1.00
H5     H     0.46290   0.26390   0.48480   0.01267  Uiso   1.00
H6     H     0.48870   0.30310   0.60640   0.01267  Uiso   1.00
H7     H     0.00880   0.75940   0.77320   0.01267  Uiso   1.00
H8     H     0.01820   0.63500   0.77360   0.01267  Uiso   1.00
H9     H     0.22920   0.67760   0.75040   0.01267  Uiso   1.00
H10    H     0.04170   0.95170   0.86260   0.01267  Uiso   1.00
H11    H     0.91250   0.94630   0.85700   0.01267  Uiso   1.00
H12    H     0.81100   0.81300   0.63800   0.01267  Uiso   1.00
H13    H     0.83770   0.74330   0.54500   0.01267  Uiso   1.00
H14    H     0.02190   0.72090   0.48480   0.01267  Uiso   1.00
H15    H     0.11770   0.80330   0.60640   0.01267  Uiso   1.00
H16    H     0.76440   0.51380   0.77320   0.01267  Uiso   1.00
H17    H     0.75540   0.63860   0.77360   0.01267  Uiso   1.00
H18    H     0.52120   0.57280   0.75040   0.01267  Uiso   1.00
H19    H     0.58910   0.17910   0.63740   0.01267  Uiso   1.00
H20    H     0.58930   0.05550   0.64300   0.01267  Uiso   1.00
H21    H     0.67500   0.17300   0.86200   0.01267  Uiso   1.00
H22    H     0.69830   0.29270   0.95500   0.01267  Uiso   1.00
H23    H     0.73610   0.53710   0.01520   0.01267  Uiso   1.00
H24    H     0.69690   0.51130   0.89360   0.01267  Uiso   1.00
H25    H     0.24060   0.99120   0.72680   0.01267  Uiso   1.00
H26    H     0.36500   0.98180   0.72640   0.01267  Uiso   1.00
H27    H     0.32240   0.77080   0.74960   0.01267  Uiso   1.00
H28    H     0.04830   0.95830   0.63740   0.01267  Uiso   1.00
H29    H     0.05370   0.08750   0.64300   0.01267  Uiso   1.00
H30    H     0.18700   0.18900   0.86200   0.01267  Uiso   1.00
H31    H     0.25670   0.16230   0.95500   0.01267  Uiso   1.00
H32    H     0.27910   0.97810   0.01520   0.01267  Uiso   1.00
H33    H     0.19670   0.88230   0.89360   0.01267  Uiso   1.00
H34    H     0.48620   0.23560   0.72680   0.01267  Uiso   1.00
H35    H     0.36140   0.24460   0.72640   0.01267  Uiso   1.00
H36    H     0.42720   0.47880   0.74960   0.01267  Uiso   1.00
H37    H     0.17910   0.58910   0.13740   0.01267  Uiso   1.00
H38    H     0.05550   0.58930   0.14300   0.01267  Uiso   1.00
H39    H     0.17300   0.67500   0.36200   0.01267  Uiso   1.00
H40    H     0.29270   0.69830   0.45500   0.01267  Uiso   1.00
H41    H     0.53710   0.73610   0.51520   0.01267  Uiso   1.00
H42    H     0.51130   0.69690   0.39360   0.01267  Uiso   1.00
H43    H     0.99120   0.24060   0.22680   0.01267  Uiso   1.00
H44    H     0.98180   0.36500   0.22640   0.01267  Uiso   1.00
H45    H     0.77080   0.32240   0.24960   0.01267  Uiso   1.00
H46    H     0.95830   0.04830   0.13740   0.01267  Uiso   1.00
H47    H     0.08750   0.05370   0.14300   0.01267  Uiso   1.00
H48    H     0.18900   0.18700   0.36200   0.01267  Uiso   1.00
H49    H     0.16230   0.25670   0.45500   0.01267  Uiso   1.00
H50    H     0.97810   0.27910   0.51520   0.01267  Uiso   1.00
H51    H     0.88230   0.19670   0.39360   0.01267  Uiso   1.00
H52    H     0.23560   0.48620   0.22680   0.01267  Uiso   1.00
H53    H     0.24460   0.36140   0.22640   0.01267  Uiso   1.00
H54    H     0.47880   0.42720   0.24960   0.01267  Uiso   1.00
H55    H     0.41090   0.82090   0.36260   0.01267  Uiso   1.00
H56    H     0.41070   0.94450   0.35700   0.01267  Uiso   1.00
H57    H     0.32500   0.82700   0.13800   0.01267  Uiso   1.00
H58    H     0.30170   0.70730   0.04500   0.01267  Uiso   1.00
H59    H     0.26390   0.46290   0.98480   0.01267  Uiso   1.00
H60    H     0.30310   0.48870   0.10640   0.01267  Uiso   1.00
H61    H     0.75940   0.00880   0.27320   0.01267  Uiso   1.00
H62    H     0.63500   0.01820   0.27360   0.01267  Uiso   1.00
H63    H     0.67760   0.22920   0.25040   0.01267  Uiso   1.00
H64    H     0.95170   0.04170   0.36260   0.01267  Uiso   1.00
H65    H     0.94630   0.91250   0.35700   0.01267  Uiso   1.00
H66    H     0.81300   0.81100   0.13800   0.01267  Uiso   1.00
H67    H     0.74330   0.83770   0.04500   0.01267  Uiso   1.00
H68    H     0.72090   0.02190   0.98480   0.01267  Uiso   1.00
H69    H     0.80330   0.11770   0.10640   0.01267  Uiso   1.00
H70    H     0.51380   0.76440   0.27320   0.01267  Uiso   1.00
H71    H     0.63860   0.75540   0.27360   0.01267  Uiso   1.00
H72    H     0.57280   0.52120   0.25040   0.01267  Uiso   1.00
C1     C     0.82180   0.39280   0.81620   0.01267  Uiso   1.00
C2     C     0.89570   0.39290   0.81320   0.01267  Uiso   1.00
C3     C     0.89860   0.36800   0.74880   0.01267  Uiso   1.00
C4     C     0.82620   0.34260   0.68440   0.01267  Uiso   1.00
C5     C     0.75284   0.34364   0.69028   0.01267  Uiso   1.00
C6     C     0.67320   0.32080   0.62840   0.01267  Uiso   1.00
C7     C     0.66180   0.30060   0.55660   0.01267  Uiso   1.00
C8     C     0.58192   0.27872   0.50204   0.01267  Uiso   1.00
C9     C     0.51760   0.27920   0.52120   0.01267  Uiso   1.00
C10    C     0.53320   0.30180   0.59360   0.01267  Uiso   1.00
C11    C     0.97924   0.36644   0.74368   0.01267  Uiso   1.00
C12    C     0.56890   0.26050   0.42480   0.01267  Uiso   1.00
C13    C     0.05300   0.74220   0.76720   0.01267  Uiso   1.00
C14    C     0.05880   0.66840   0.76780   0.01267  Uiso   1.00
C15    C     0.12340   0.64220   0.75960   0.01267  Uiso   1.00
C16    C     0.18320   0.69260   0.75380   0.01267  Uiso   1.00
C17    C     0.17430   0.76670   0.75320   0.01267  Uiso   1.00
C18    C     0.12920   0.55880   0.75680   0.01267  Uiso   1.00
C19    C     0.99440   0.92340   0.81620   0.01267  Uiso   1.00
C20    C     0.91750   0.92030   0.81320   0.01267  Uiso   1.00
C21    C     0.85020   0.88080   0.74880   0.01267  Uiso   1.00
C22    C     0.85820   0.84180   0.68440   0.01267  Uiso   1.00
C23    C     0.93744   0.84664   0.69028   0.01267  Uiso   1.00
C24    C     0.95520   0.80760   0.62840   0.01267  Uiso   1.00
C25    C     0.89480   0.75600   0.55660   0.01267  Uiso   1.00
C26    C     0.92012   0.72332   0.50204   0.01267  Uiso   1.00
C27    C     0.00360   0.74200   0.52120   0.01267  Uiso   1.00
C28    C     0.06040   0.79180   0.59360   0.01267  Uiso   1.00
C29    C     0.76444   0.87724   0.74368   0.01267  Uiso   1.00
C30    C     0.85590   0.66430   0.42480   0.01267  Uiso   1.00
C31    C     0.71420   0.52500   0.76720   0.01267  Uiso   1.00
C32    C     0.70900   0.59940   0.76780   0.01267  Uiso   1.00
C33    C     0.63620   0.61740   0.75960   0.01267  Uiso   1.00
C34    C     0.57060   0.56120   0.75380   0.01267  Uiso   1.00
C35    C     0.57890   0.48650   0.75320   0.01267  Uiso   1.00
C36    C     0.62760   0.69800   0.75680   0.01267  Uiso   1.00
C37    C     0.60720   0.17820   0.68380   0.01267  Uiso   1.00
C38    C     0.60710   0.10430   0.68680   0.01267  Uiso   1.00
C39    C     0.63200   0.10140   0.75120   0.01267  Uiso   1.00
C40    C     0.65740   0.17380   0.81560   0.01267  Uiso   1.00
C41    C     0.65636   0.24716   0.80972   0.01267  Uiso   1.00
C42    C     0.67920   0.32680   0.87160   0.01267  Uiso   1.00
C43    C     0.69940   0.33820   0.94340   0.01267  Uiso   1.00
C44    C     0.72128   0.41808   0.99796   0.01267  Uiso   1.00
C45    C     0.72080   0.48240   0.97880   0.01267  Uiso   1.00
C46    C     0.69820   0.46680   0.90640   0.01267  Uiso   1.00
C47    C     0.63356   0.02076   0.75632   0.01267  Uiso   1.00
C48    C     0.73950   0.43110   0.07520   0.01267  Uiso   1.00
C49    C     0.25780   0.94700   0.73280   0.01267  Uiso   1.00
C50    C     0.33160   0.94120   0.73220   0.01267  Uiso   1.00
C51    C     0.35780   0.87660   0.74040   0.01267  Uiso   1.00
C52    C     0.30740   0.81680   0.74620   0.01267  Uiso   1.00
C53    C     0.23330   0.82570   0.74680   0.01267  Uiso   1.00
C54    C     0.44120   0.87080   0.74320   0.01267  Uiso   1.00
C55    C     0.07660   0.00560   0.68380   0.01267  Uiso   1.00
C56    C     0.07970   0.08250   0.68680   0.01267  Uiso   1.00
C57    C     0.11920   0.14980   0.75120   0.01267  Uiso   1.00
C58    C     0.15820   0.14180   0.81560   0.01267  Uiso   1.00
C59    C     0.15336   0.06256   0.80972   0.01267  Uiso   1.00
C60    C     0.19240   0.04480   0.87160   0.01267  Uiso   1.00
C61    C     0.24400   0.10520   0.94340   0.01267  Uiso   1.00
C62    C     0.27668   0.07988   0.99796   0.01267  Uiso   1.00
C63    C     0.25800   0.99640   0.97880   0.01267  Uiso   1.00
C64    C     0.20820   0.93960   0.90640   0.01267  Uiso   1.00
C65    C     0.12276   0.23556   0.75632   0.01267  Uiso   1.00
C66    C     0.33570   0.14410   0.07520   0.01267  Uiso   1.00
C67    C     0.47500   0.28580   0.73280   0.01267  Uiso   1.00
C68    C     0.40060   0.29100   0.73220   0.01267  Uiso   1.00
C69    C     0.38260   0.36380   0.74040   0.01267  Uiso   1.00
C70    C     0.43880   0.42940   0.74620   0.01267  Uiso   1.00
C71    C     0.51350   0.42110   0.74680   0.01267  Uiso   1.00
C72    C     0.30200   0.37240   0.74320   0.01267  Uiso   1.00
C73    C     0.17820   0.60720   0.18380   0.01267  Uiso   1.00
C74    C     0.10430   0.60710   0.18680   0.01267  Uiso   1.00
C75    C     0.10140   0.63200   0.25120   0.01267  Uiso   1.00
C76    C     0.17380   0.65740   0.31560   0.01267  Uiso   1.00
C77    C     0.24716   0.65636   0.30972   0.01267  Uiso   1.00
C78    C     0.32680   0.67920   0.37160   0.01267  Uiso   1.00
C79    C     0.33820   0.69940   0.44340   0.01267  Uiso   1.00
C80    C     0.41808   0.72128   0.49796   0.01267  Uiso   1.00
C81    C     0.48240   0.72080   0.47880   0.01267  Uiso   1.00
C82    C     0.46680   0.69820   0.40640   0.01267  Uiso   1.00
C83    C     0.02076   0.63356   0.25632   0.01267  Uiso   1.00
C84    C     0.43110   0.73950   0.57520   0.01267  Uiso   1.00
C85    C     0.94700   0.25780   0.23280   0.01267  Uiso   1.00
C86    C     0.94120   0.33160   0.23220   0.01267  Uiso   1.00
C87    C     0.87660   0.35780   0.24040   0.01267  Uiso   1.00
C88    C     0.81680   0.30740   0.24620   0.01267  Uiso   1.00
C89    C     0.82570   0.23330   0.24680   0.01267  Uiso   1.00
C90    C     0.87080   0.44120   0.24320   0.01267  Uiso   1.00
C91    C     0.00560   0.07660   0.18380   0.01267  Uiso   1.00
C92    C     0.08250   0.07970   0.18680   0.01267  Uiso   1.00
C93    C     0.14980   0.11920   0.25120   0.01267  Uiso   1.00
C94    C     0.14180   0.15820   0.31560   0.01267  Uiso   1.00
C95    C     0.06256   0.15336   0.30972   0.01267  Uiso   1.00
C96    C     0.04480   0.19240   0.37160   0.01267  Uiso   1.00
C97    C     0.10520   0.24400   0.44340   0.01267  Uiso   1.00
C98    C     0.07988   0.27668   0.49796   0.01267  Uiso   1.00
C99    C     0.99640   0.25800   0.47880   0.01267  Uiso   1.00
C100   C     0.93960   0.20820   0.40640   0.01267  Uiso   1.00
C101   C     0.23556   0.12276   0.25632   0.01267  Uiso   1.00
C102   C     0.14410   0.33570   0.57520   0.01267  Uiso   1.00
C103   C     0.28580   0.47500   0.23280   0.01267  Uiso   1.00
C104   C     0.29100   0.40060   0.23220   0.01267  Uiso   1.00
C105   C     0.36380   0.38260   0.24040   0.01267  Uiso   1.00
C106   C     0.42940   0.43880   0.24620   0.01267  Uiso   1.00
C107   C     0.42110   0.51350   0.24680   0.01267  Uiso   1.00
C108   C     0.37240   0.30200   0.24320   0.01267  Uiso   1.00
C109   C     0.39280   0.82180   0.31620   0.01267  Uiso   1.00
C110   C     0.39290   0.89570   0.31320   0.01267  Uiso   1.00
C111   C     0.36800   0.89860   0.24880   0.01267  Uiso   1.00
C112   C     0.34260   0.82620   0.18440   0.01267  Uiso   1.00
C113   C     0.34364   0.75284   0.19028   0.01267  Uiso   1.00
C114   C     0.32080   0.67320   0.12840   0.01267  Uiso   1.00
C115   C     0.30060   0.66180   0.05660   0.01267  Uiso   1.00
C116   C     0.27872   0.58192   0.00204   0.01267  Uiso   1.00
C117   C     0.27920   0.51760   0.02120   0.01267  Uiso   1.00
C118   C     0.30180   0.53320   0.09360   0.01267  Uiso   1.00
C119   C     0.36644   0.97924   0.24368   0.01267  Uiso   1.00
C120   C     0.26050   0.56890   0.92480   0.01267  Uiso   1.00
C121   C     0.74220   0.05300   0.26720   0.01267  Uiso   1.00
C122   C     0.66840   0.05880   0.26780   0.01267  Uiso   1.00
C123   C     0.64220   0.12340   0.25960   0.01267  Uiso   1.00
C124   C     0.69260   0.18320   0.25380   0.01267  Uiso   1.00
C125   C     0.76670   0.17430   0.25320   0.01267  Uiso   1.00
C126   C     0.55880   0.12920   0.25680   0.01267  Uiso   1.00
C127   C     0.92340   0.99440   0.31620   0.01267  Uiso   1.00
C128   C     0.92030   0.91750   0.31320   0.01267  Uiso   1.00
C129   C     0.88080   0.85020   0.24880   0.01267  Uiso   1.00
C130   C     0.84180   0.85820   0.18440   0.01267  Uiso   1.00
C131   C     0.84664   0.93744   0.19028   0.01267  Uiso   1.00
C132   C     0.80760   0.95520   0.12840   0.01267  Uiso   1.00
C133   C     0.75600   0.89480   0.05660   0.01267  Uiso   1.00
C134   C     0.72332   0.92012   0.00204   0.01267  Uiso   1.00
C135   C     0.74200   0.00360   0.02120   0.01267  Uiso   1.00
C136   C     0.79180   0.06040   0.09360   0.01267  Uiso   1.00
C137   C     0.87724   0.76444   0.24368   0.01267  Uiso   1.00
C138   C     0.66430   0.85590   0.92480   0.01267  Uiso   1.00
C139   C     0.52500   0.71420   0.26720   0.01267  Uiso   1.00
C140   C     0.59940   0.70900   0.26780   0.01267  Uiso   1.00
C141   C     0.61740   0.63620   0.25960   0.01267  Uiso   1.00
C142   C     0.56120   0.57060   0.25380   0.01267  Uiso   1.00
C143   C     0.48650   0.57890   0.25320   0.01267  Uiso   1.00
C144   C     0.69800   0.62760   0.25680   0.01267  Uiso   1.00
N1     N     0.75113   0.36793   0.75546   0.01267  Uiso   1.00
N2     N     0.60900   0.32180   0.64640   0.01267  Uiso   1.00
N3     N     0.10929   0.79029   0.75858   0.01267  Uiso   1.00
N4     N     0.00433   0.88753   0.75546   0.01267  Uiso   1.00
N5     N     0.03740   0.82460   0.64640   0.01267  Uiso   1.00
N6     N     0.64929   0.46829   0.75858   0.01267  Uiso   1.00
N7     N     0.63207   0.24887   0.74454   0.01267  Uiso   1.00
N8     N     0.67820   0.39100   0.85360   0.01267  Uiso   1.00
N9     N     0.20971   0.89071   0.74142   0.01267  Uiso   1.00
N10    N     0.11247   0.99567   0.74454   0.01267  Uiso   1.00
N11    N     0.17540   0.96260   0.85360   0.01267  Uiso   1.00
N12    N     0.53171   0.35071   0.74142   0.01267  Uiso   1.00
N13    N     0.24887   0.63207   0.24454   0.01267  Uiso   1.00
N14    N     0.39100   0.67820   0.35360   0.01267  Uiso   1.00
N15    N     0.89071   0.20971   0.24142   0.01267  Uiso   1.00
N16    N     0.99567   0.11247   0.24454   0.01267  Uiso   1.00
N17    N     0.96260   0.17540   0.35360   0.01267  Uiso   1.00
N18    N     0.35071   0.53171   0.24142   0.01267  Uiso   1.00
N19    N     0.36793   0.75113   0.25546   0.01267  Uiso   1.00
N20    N     0.32180   0.60900   0.14640   0.01267  Uiso   1.00
N21    N     0.79029   0.10929   0.25858   0.01267  Uiso   1.00
N22    N     0.88753   0.00433   0.25546   0.01267  Uiso   1.00
N23    N     0.82460   0.03740   0.14640   0.01267  Uiso   1.00
N24    N     0.46829   0.64929   0.25858   0.01267  Uiso   1.00
O1     O     0.03789   0.37569   0.79878   0.01267  Uiso   1.00
O2     O     0.98383   0.35823   0.68486   0.01267  Uiso   1.00
O3     O     0.63172   0.27572   0.41304   0.01267  Uiso   1.00
O4     O     0.49519   0.23199   0.37778   0.01267  Uiso   1.00
O5     O     0.09000   0.52540   0.78400   0.01267  Uiso   1.00
O6     O     0.17251   0.53051   0.73082   0.01267  Uiso   1.00
O7     O     0.76089   0.92309   0.79878   0.01267  Uiso   1.00
O8     O     0.70103   0.82663   0.68486   0.01267  Uiso   1.00
O9     O     0.78132   0.63732   0.41304   0.01267  Uiso   1.00
O10    O     0.88259   0.64579   0.37778   0.01267  Uiso   1.00
O11    O     0.69400   0.75860   0.78400   0.01267  Uiso   1.00
O12    O     0.55831   0.70031   0.73082   0.01267  Uiso   1.00
O13    O     0.62431   0.96211   0.70122   0.01267  Uiso   1.00
O14    O     0.64177   0.01617   0.81514   0.01267  Uiso   1.00
O15    O     0.72428   0.36828   0.08696   0.01267  Uiso   1.00
O16    O     0.76801   0.50481   0.12222   0.01267  Uiso   1.00
O17    O     0.47460   0.91000   0.71600   0.01267  Uiso   1.00
O18    O     0.46949   0.82749   0.76918   0.01267  Uiso   1.00
O19    O     0.07691   0.23911   0.70122   0.01267  Uiso   1.00
O20    O     0.17337   0.29897   0.81514   0.01267  Uiso   1.00
O21    O     0.36268   0.21868   0.08696   0.01267  Uiso   1.00
O22    O     0.35421   0.11741   0.12222   0.01267  Uiso   1.00
O23    O     0.24140   0.30600   0.71600   0.01267  Uiso   1.00
O24    O     0.29969   0.44169   0.76918   0.01267  Uiso   1.00
O25    O     0.96211   0.62431   0.20122   0.01267  Uiso   1.00
O26    O     0.01617   0.64177   0.31514   0.01267  Uiso   1.00
O27    O     0.36828   0.72428   0.58696   0.01267  Uiso   1.00
O28    O     0.50481   0.76801   0.62222   0.01267  Uiso   1.00
O29    O     0.91000   0.47460   0.21600   0.01267  Uiso   1.00
O30    O     0.82749   0.46949   0.26918   0.01267  Uiso   1.00
O31    O     0.23911   0.07691   0.20122   0.01267  Uiso   1.00
O32    O     0.29897   0.17337   0.31514   0.01267  Uiso   1.00
O33    O     0.21868   0.36268   0.58696   0.01267  Uiso   1.00
O34    O     0.11741   0.35421   0.62222   0.01267  Uiso   1.00
O35    O     0.30600   0.24140   0.21600   0.01267  Uiso   1.00
O36    O     0.44169   0.29969   0.26918   0.01267  Uiso   1.00
O37    O     0.37569   0.03789   0.29878   0.01267  Uiso   1.00
O38    O     0.35823   0.98383   0.18486   0.01267  Uiso   1.00
O39    O     0.27572   0.63172   0.91304   0.01267  Uiso   1.00
O40    O     0.23199   0.49519   0.87778   0.01267  Uiso   1.00
O41    O     0.52540   0.09000   0.28400   0.01267  Uiso   1.00
O42    O     0.53051   0.17251   0.23082   0.01267  Uiso   1.00
O43    O     0.92309   0.76089   0.29878   0.01267  Uiso   1.00
O44    O     0.82663   0.70103   0.18486   0.01267  Uiso   1.00
O45    O     0.63732   0.78132   0.91304   0.01267  Uiso   1.00
O46    O     0.64579   0.88259   0.87778   0.01267  Uiso   1.00
O47    O     0.75860   0.69400   0.28400   0.01267  Uiso   1.00
O48    O     0.70031   0.55831   0.23082   0.01267  Uiso   1.00
