data_IYIGEC_clean
_audit_creation_date              2014-07-02
_audit_creation_method            'Materials Studio'
_symmetry_space_group_name_H-M    'P1'
_symmetry_Int_Tables_number       1
_symmetry_cell_setting            triclinic
loop_
_symmetry_equiv_pos_as_xyz
  x,y,z
_cell_length_a                    6.7338
_cell_length_b                    16.6903
_cell_length_c                    16.6903
_cell_angle_alpha                 87.6678
_cell_angle_beta                  78.3622
_cell_angle_gamma                 78.3620
loop_
_atom_site_label
_atom_site_type_symbol
_atom_site_fract_x
_atom_site_fract_y
_atom_site_fract_z
_atom_site_U_iso_or_equiv
_atom_site_adp_type
_atom_site_occupancy
Ag1    Ag    0.91632   0.89096   0.38256   0.01267  Uiso   1.00
Ag2    Ag    0.18984   0.60904   0.11744   0.01267  Uiso   1.00
Ag3    Ag    0.29888   0.11744   0.89096   0.01267  Uiso   1.00
Ag4    Ag    0.30728   0.38256   0.60904   0.01267  Uiso   1.00
Ag5    Ag    0.08368   0.10904   0.61744   0.01267  Uiso   1.00
Ag6    Ag    0.81016   0.39096   0.88256   0.01267  Uiso   1.00
Ag7    Ag    0.70112   0.88256   0.10904   0.01267  Uiso   1.00
Ag8    Ag    0.69272   0.61744   0.39096   0.01267  Uiso   1.00
H1     H     0.86960   0.76230   0.60090   0.01267  Uiso   1.00
H2     H     0.66430   0.82490   0.62230   0.01267  Uiso   1.00
H3     H     0.80920   0.89160   0.62540   0.01267  Uiso   1.00
H4     H     0.00910   0.83270   0.58570   0.01267  Uiso   1.00
H5     H     0.65300   0.99910   0.53970   0.01267  Uiso   1.00
H6     H     0.80330   0.01640   0.59480   0.01267  Uiso   1.00
H7     H     0.15250   0.94610   0.57310   0.01267  Uiso   1.00
H8     H     0.23680   0.88070   0.50310   0.01267  Uiso   1.00
H9     H     0.23680   0.72150   0.39030   0.01267  Uiso   1.00
H10    H     0.36960   0.78910   0.38770   0.01267  Uiso   1.00
H11    H     0.04200   0.71400   0.29000   0.01267  Uiso   1.00
H12    H     0.23280   0.73770   0.89910   0.01267  Uiso   1.00
H13    H     0.11150   0.67510   0.87770   0.01267  Uiso   1.00
H14    H     0.32620   0.60840   0.87460   0.01267  Uiso   1.00
H15    H     0.42750   0.66730   0.91430   0.01267  Uiso   1.00
H16    H     0.19180   0.50090   0.96030   0.01267  Uiso   1.00
H17    H     0.41450   0.48360   0.90520   0.01267  Uiso   1.00
H18    H     0.67170   0.55390   0.92690   0.01267  Uiso   1.00
H19    H     0.62060   0.61930   0.99690   0.01267  Uiso   1.00
H20    H     0.34860   0.77850   0.10970   0.01267  Uiso   1.00
H21    H     0.54640   0.71090   0.11230   0.01267  Uiso   1.00
H22    H     0.04600   0.78600   0.21000   0.01267  Uiso   1.00
H23    H     0.47050   0.89910   0.76230   0.01267  Uiso   1.00
H24    H     0.28660   0.87770   0.82490   0.01267  Uiso   1.00
H25    H     0.43460   0.87460   0.89160   0.01267  Uiso   1.00
H26    H     0.59480   0.91430   0.83270   0.01267  Uiso   1.00
H27    H     0.19270   0.96030   0.99910   0.01267  Uiso   1.00
H28    H     0.39810   0.90520   0.01640   0.01267  Uiso   1.00
H29    H     0.72560   0.92690   0.94610   0.01267  Uiso   1.00
H30    H     0.73990   0.99690   0.88070   0.01267  Uiso   1.00
H31    H     0.62710   0.10970   0.72150   0.01267  Uiso   1.00
H32    H     0.75730   0.11230   0.78910   0.01267  Uiso   1.00
H33    H     0.33200   0.21000   0.71400   0.01267  Uiso   1.00
H34    H     0.13190   0.60090   0.73770   0.01267  Uiso   1.00
H35    H     0.98920   0.62230   0.67510   0.01267  Uiso   1.00
H36    H     0.20080   0.62540   0.60840   0.01267  Uiso   1.00
H37    H     0.34180   0.58570   0.66730   0.01267  Uiso   1.00
H38    H     0.15210   0.53970   0.50090   0.01267  Uiso   1.00
H39    H     0.31970   0.59480   0.48360   0.01267  Uiso   1.00
H40    H     0.59860   0.57310   0.55390   0.01267  Uiso   1.00
H41    H     0.61750   0.50310   0.61930   0.01267  Uiso   1.00
H42    H     0.45830   0.39030   0.77850   0.01267  Uiso   1.00
H43    H     0.65870   0.38770   0.71090   0.01267  Uiso   1.00
H44    H     0.25600   0.29000   0.78600   0.01267  Uiso   1.00
H45    H     0.13040   0.23770   0.39910   0.01267  Uiso   1.00
H46    H     0.33570   0.17510   0.37770   0.01267  Uiso   1.00
H47    H     0.19080   0.10840   0.37460   0.01267  Uiso   1.00
H48    H     0.99090   0.16730   0.41430   0.01267  Uiso   1.00
H49    H     0.34700   0.00090   0.46030   0.01267  Uiso   1.00
H50    H     0.19670   0.98360   0.40520   0.01267  Uiso   1.00
H51    H     0.84750   0.05390   0.42690   0.01267  Uiso   1.00
H52    H     0.76320   0.11930   0.49690   0.01267  Uiso   1.00
H53    H     0.76320   0.27850   0.60970   0.01267  Uiso   1.00
H54    H     0.63040   0.21090   0.61230   0.01267  Uiso   1.00
H55    H     0.95800   0.28600   0.71000   0.01267  Uiso   1.00
H56    H     0.76720   0.26230   0.10090   0.01267  Uiso   1.00
H57    H     0.88850   0.32490   0.12230   0.01267  Uiso   1.00
H58    H     0.67380   0.39160   0.12540   0.01267  Uiso   1.00
H59    H     0.57250   0.33270   0.08570   0.01267  Uiso   1.00
H60    H     0.80820   0.49910   0.03970   0.01267  Uiso   1.00
H61    H     0.58550   0.51640   0.09480   0.01267  Uiso   1.00
H62    H     0.32830   0.44610   0.07310   0.01267  Uiso   1.00
H63    H     0.37940   0.38070   0.00310   0.01267  Uiso   1.00
H64    H     0.65140   0.22150   0.89030   0.01267  Uiso   1.00
H65    H     0.45360   0.28910   0.88770   0.01267  Uiso   1.00
H66    H     0.95400   0.21400   0.79000   0.01267  Uiso   1.00
H67    H     0.52950   0.10090   0.23770   0.01267  Uiso   1.00
H68    H     0.71340   0.12230   0.17510   0.01267  Uiso   1.00
H69    H     0.56540   0.12540   0.10840   0.01267  Uiso   1.00
H70    H     0.40520   0.08570   0.16730   0.01267  Uiso   1.00
H71    H     0.80730   0.03970   0.00090   0.01267  Uiso   1.00
H72    H     0.60190   0.09480   0.98360   0.01267  Uiso   1.00
H73    H     0.27440   0.07310   0.05390   0.01267  Uiso   1.00
H74    H     0.26010   0.00310   0.11930   0.01267  Uiso   1.00
H75    H     0.37290   0.89030   0.27850   0.01267  Uiso   1.00
H76    H     0.24270   0.88770   0.21090   0.01267  Uiso   1.00
H77    H     0.66800   0.79000   0.28600   0.01267  Uiso   1.00
H78    H     0.86810   0.39910   0.26230   0.01267  Uiso   1.00
H79    H     0.01080   0.37770   0.32490   0.01267  Uiso   1.00
H80    H     0.79920   0.37460   0.39160   0.01267  Uiso   1.00
H81    H     0.65820   0.41430   0.33270   0.01267  Uiso   1.00
H82    H     0.84790   0.46030   0.49910   0.01267  Uiso   1.00
H83    H     0.68030   0.40520   0.51640   0.01267  Uiso   1.00
H84    H     0.40140   0.42690   0.44610   0.01267  Uiso   1.00
H85    H     0.38250   0.49690   0.38070   0.01267  Uiso   1.00
H86    H     0.54170   0.60970   0.22150   0.01267  Uiso   1.00
H87    H     0.34130   0.61230   0.28910   0.01267  Uiso   1.00
H88    H     0.74400   0.71000   0.21400   0.01267  Uiso   1.00
C1     C     0.78350   0.80820   0.57880   0.01267  Uiso   1.00
C2     C     0.87570   0.86080   0.57580   0.01267  Uiso   1.00
C3     C     0.79510   0.00240   0.53980   0.01267  Uiso   1.00
C4     C     0.14260   0.93250   0.51830   0.01267  Uiso   1.00
C5     C     0.32140   0.75390   0.35410   0.01267  Uiso   1.00
C6     C     0.17050   0.69180   0.92120   0.01267  Uiso   1.00
C7     C     0.31230   0.63920   0.92420   0.01267  Uiso   1.00
C8     C     0.33730   0.49760   0.96020   0.01267  Uiso   1.00
C9     C     0.59340   0.56750   0.98170   0.01267  Uiso   1.00
C10    C     0.42940   0.74610   0.14590   0.01267  Uiso   1.00
C11    C     0.36230   0.92120   0.80820   0.01267  Uiso   1.00
C12    C     0.45150   0.92420   0.86080   0.01267  Uiso   1.00
C13    C     0.33490   0.96020   0.00240   0.01267  Uiso   1.00
C14    C     0.66090   0.98170   0.93250   0.01267  Uiso   1.00
C15    C     0.67550   0.14590   0.75390   0.01267  Uiso   1.00
C16    C     0.09170   0.57880   0.69180   0.01267  Uiso   1.00
C17    C     0.23650   0.57580   0.63920   0.01267  Uiso   1.00
C18    C     0.29750   0.53980   0.49760   0.01267  Uiso   1.00
C19    C     0.57510   0.51830   0.56750   0.01267  Uiso   1.00
C20    C     0.57530   0.35410   0.74610   0.01267  Uiso   1.00
C21    C     0.21650   0.19180   0.42120   0.01267  Uiso   1.00
C22    C     0.12430   0.13920   0.42420   0.01267  Uiso   1.00
C23    C     0.20490   0.99760   0.46020   0.01267  Uiso   1.00
C24    C     0.85740   0.06750   0.48170   0.01267  Uiso   1.00
C25    C     0.67860   0.24610   0.64590   0.01267  Uiso   1.00
C26    C     0.82950   0.30820   0.07880   0.01267  Uiso   1.00
C27    C     0.68770   0.36080   0.07580   0.01267  Uiso   1.00
C28    C     0.66270   0.50240   0.03980   0.01267  Uiso   1.00
C29    C     0.40660   0.43250   0.01830   0.01267  Uiso   1.00
C30    C     0.57060   0.25390   0.85410   0.01267  Uiso   1.00
C31    C     0.63770   0.07880   0.19180   0.01267  Uiso   1.00
C32    C     0.54850   0.07580   0.13920   0.01267  Uiso   1.00
C33    C     0.66510   0.03980   0.99760   0.01267  Uiso   1.00
C34    C     0.33910   0.01830   0.06750   0.01267  Uiso   1.00
C35    C     0.32450   0.85410   0.24610   0.01267  Uiso   1.00
C36    C     0.90830   0.42120   0.30820   0.01267  Uiso   1.00
C37    C     0.76350   0.42420   0.36080   0.01267  Uiso   1.00
C38    C     0.70250   0.46020   0.50240   0.01267  Uiso   1.00
C39    C     0.42490   0.48170   0.43250   0.01267  Uiso   1.00
C40    C     0.42470   0.64590   0.25390   0.01267  Uiso   1.00
C41    C     0.12240   0.75000   0.25000   0.01267  Uiso   1.00
C42    C     0.37240   0.25000   0.75000   0.01267  Uiso   1.00
C43    C     0.87760   0.25000   0.75000   0.01267  Uiso   1.00
C44    C     0.62760   0.75000   0.25000   0.01267  Uiso   1.00
S1     S     0.68369   0.76272   0.50610   0.01267  Uiso   1.00
S2     S     0.95251   0.73728   0.99390   0.01267  Uiso   1.00
S3     S     0.18979   0.99390   0.76272   0.01267  Uiso   1.00
S4     S     0.94641   0.50610   0.73728   0.01267  Uiso   1.00
S5     S     0.31631   0.23728   0.49390   0.01267  Uiso   1.00
S6     S     0.04749   0.26272   0.00610   0.01267  Uiso   1.00
S7     S     0.81021   0.00610   0.23728   0.01267  Uiso   1.00
S8     S     0.05359   0.49390   0.26272   0.01267  Uiso   1.00
N1     N     0.92800   0.92430   0.51710   0.01267  Uiso   1.00
N2     N     0.19350   0.80540   0.30100   0.01267  Uiso   1.00
N3     N     0.36940   0.57570   0.98290   0.01267  Uiso   1.00
N4     N     0.29990   0.69460   0.19900   0.01267  Uiso   1.00
N5     N     0.44510   0.98290   0.92430   0.01267  Uiso   1.00
N6     N     0.49450   0.19900   0.80540   0.01267  Uiso   1.00
N7     N     0.35230   0.51710   0.57570   0.01267  Uiso   1.00
N8     N     0.49890   0.30100   0.69460   0.01267  Uiso   1.00
N9     N     0.07200   0.07570   0.48290   0.01267  Uiso   1.00
N10    N     0.80650   0.19460   0.69900   0.01267  Uiso   1.00
N11    N     0.63060   0.42430   0.01710   0.01267  Uiso   1.00
N12    N     0.70010   0.30540   0.80100   0.01267  Uiso   1.00
N13    N     0.55490   0.01710   0.07570   0.01267  Uiso   1.00
N14    N     0.50550   0.80100   0.19460   0.01267  Uiso   1.00
N15    N     0.64770   0.48290   0.42430   0.01267  Uiso   1.00
N16    N     0.50110   0.69900   0.30540   0.01267  Uiso   1.00
O1     O     0.64710   0.82270   0.44110   0.01267  Uiso   1.00
O2     O     0.49260   0.74200   0.54500   0.01267  Uiso   1.00
O3     O     0.84040   0.69180   0.47900   0.01267  Uiso   1.00
O4     O     0.91090   0.67730   0.05890   0.01267  Uiso   1.00
O5     O     0.77960   0.75800   0.95500   0.01267  Uiso   1.00
O6     O     0.01120   0.80820   0.02100   0.01267  Uiso   1.00
O7     O     0.08820   0.05890   0.82270   0.01267  Uiso   1.00
O8     O     0.03760   0.95500   0.74200   0.01267  Uiso   1.00
O9     O     0.31940   0.02100   0.69180   0.01267  Uiso   1.00
O10    O     0.96980   0.44110   0.67730   0.01267  Uiso   1.00
O11    O     0.73460   0.54500   0.75800   0.01267  Uiso   1.00
O12    O     0.03220   0.47900   0.80820   0.01267  Uiso   1.00
O13    O     0.35290   0.17730   0.55890   0.01267  Uiso   1.00
O14    O     0.50740   0.25800   0.45500   0.01267  Uiso   1.00
O15    O     0.15960   0.30820   0.52100   0.01267  Uiso   1.00
O16    O     0.08910   0.32270   0.94110   0.01267  Uiso   1.00
O17    O     0.22040   0.24200   0.04500   0.01267  Uiso   1.00
O18    O     0.98880   0.19180   0.97900   0.01267  Uiso   1.00
O19    O     0.91180   0.94110   0.17730   0.01267  Uiso   1.00
O20    O     0.96240   0.04500   0.25800   0.01267  Uiso   1.00
O21    O     0.68060   0.97900   0.30820   0.01267  Uiso   1.00
O22    O     0.03020   0.55890   0.32270   0.01267  Uiso   1.00
O23    O     0.26540   0.45500   0.24200   0.01267  Uiso   1.00
O24    O     0.96780   0.52100   0.19180   0.01267  Uiso   1.00
