data_image0
_cell_length_a       10.3973
_cell_length_b       23.431
_cell_length_c       6.927
_cell_angle_alpha    90
_cell_angle_beta     90
_cell_angle_gamma    90

_symmetry_space_group_name_H-M    "P 1"
_symmetry_int_tables_number       1

loop_
  _symmetry_equiv_pos_as_xyz
  'x, y, z'

loop_
  _atom_site_label
  _atom_site_occupancy
  _atom_site_fract_x
  _atom_site_fract_y
  _atom_site_fract_z
  _atom_site_thermal_displace_type
  _atom_site_B_iso_or_equiv
  _atom_site_type_symbol
  Zn1      1.0000 0.50000  0.36596  0.25000  Biso   1.000  Zn
  O1       1.0000 0.50000  0.45170  0.25000  Biso   1.000  O
  Zn2      1.0000 0.00000  0.86596  0.25000  Biso   1.000  Zn
  O2       1.0000 0.00000  0.95170  0.25000  Biso   1.000  O
  Zn3      1.0000 0.50000  0.63404  0.75000  Biso   1.000  Zn
  O3       1.0000 0.50000  0.54830  0.75000  Biso   1.000  O
  Zn4      1.0000 0.00000  0.13404  0.75000  Biso   1.000  Zn
  O4       1.0000 0.00000  0.04830  0.75000  Biso   1.000  O
  Zn5      1.0000 0.50000  0.50000  0.00000  Biso   1.000  Zn
  Zn6      1.0000 0.00000  0.00000  0.00000  Biso   1.000  Zn
  Zn7      1.0000 0.50000  0.50000  0.50000  Biso   1.000  Zn
  Zn8      1.0000 0.00000  0.00000  0.50000  Biso   1.000  Zn
  O5       1.0000 0.34260  0.31970  0.25000  Biso   1.000  O
  O6       1.0000 0.23690  0.40070  0.25000  Biso   1.000  O
  C1       1.0000 0.11600  0.25590  0.25000  Biso   1.000  C
  H1       1.0000 0.19340  0.23610  0.25000  Biso   1.000  H
  C2       1.0000 0.11570  0.31540  0.25000  Biso   1.000  C
  C3       1.0000 0.24080  0.34870  0.25000  Biso   1.000  C
  O7       1.0000 0.84260  0.81970  0.25000  Biso   1.000  O
  O8       1.0000 0.73690  0.90070  0.25000  Biso   1.000  O
  C4       1.0000 0.61600  0.75590  0.25000  Biso   1.000  C
  H2       1.0000 0.69340  0.73610  0.25000  Biso   1.000  H
  C5       1.0000 0.61570  0.81540  0.25000  Biso   1.000  C
  C6       1.0000 0.74080  0.84870  0.25000  Biso   1.000  C
  O9       1.0000 0.65740  0.68030  0.75000  Biso   1.000  O
  O10      1.0000 0.76310  0.59930  0.75000  Biso   1.000  O
  C7       1.0000 0.88400  0.74410  0.75000  Biso   1.000  C
  H3       1.0000 0.80660  0.76390  0.75000  Biso   1.000  H
  C8       1.0000 0.88430  0.68460  0.75000  Biso   1.000  C
  C9       1.0000 0.75920  0.65130  0.75000  Biso   1.000  C
  O11      1.0000 0.15740  0.18030  0.75000  Biso   1.000  O
  O12      1.0000 0.26310  0.09930  0.75000  Biso   1.000  O
  C10      1.0000 0.38400  0.24410  0.75000  Biso   1.000  C
  H4       1.0000 0.30660  0.26390  0.75000  Biso   1.000  H
  C11      1.0000 0.38430  0.18460  0.75000  Biso   1.000  C
  C12      1.0000 0.25920  0.15130  0.75000  Biso   1.000  C
  O13      1.0000 0.65740  0.31970  0.25000  Biso   1.000  O
  O14      1.0000 0.76310  0.40070  0.25000  Biso   1.000  O
  C13      1.0000 0.88400  0.25590  0.25000  Biso   1.000  C
  H5       1.0000 0.80660  0.23610  0.25000  Biso   1.000  H
  C14      1.0000 0.88430  0.31540  0.25000  Biso   1.000  C
  C15      1.0000 0.75920  0.34870  0.25000  Biso   1.000  C
  O15      1.0000 0.15740  0.81970  0.25000  Biso   1.000  O
  O16      1.0000 0.26310  0.90070  0.25000  Biso   1.000  O
  C16      1.0000 0.38400  0.75590  0.25000  Biso   1.000  C
  H6       1.0000 0.30660  0.73610  0.25000  Biso   1.000  H
  C17      1.0000 0.38430  0.81540  0.25000  Biso   1.000  C
  C18      1.0000 0.25920  0.84870  0.25000  Biso   1.000  C
  O17      1.0000 0.34260  0.68030  0.75000  Biso   1.000  O
  O18      1.0000 0.23690  0.59930  0.75000  Biso   1.000  O
  C19      1.0000 0.11600  0.74410  0.75000  Biso   1.000  C
  H7       1.0000 0.19340  0.76390  0.75000  Biso   1.000  H
  C20      1.0000 0.11570  0.68460  0.75000  Biso   1.000  C
  C21      1.0000 0.24080  0.65130  0.75000  Biso   1.000  C
  O19      1.0000 0.84260  0.18030  0.75000  Biso   1.000  O
  O20      1.0000 0.73690  0.09930  0.75000  Biso   1.000  O
  C22      1.0000 0.61600  0.24410  0.75000  Biso   1.000  C
  H8       1.0000 0.69340  0.26390  0.75000  Biso   1.000  H
  C23      1.0000 0.61570  0.18460  0.75000  Biso   1.000  C
  C24      1.0000 0.74080  0.15130  0.75000  Biso   1.000  C
  N1       1.0000 0.00000  0.13073  0.40920  Biso   1.000  N
  N2       1.0000 0.00000  0.07700  0.34200  Biso   1.000  N
  N3       1.0000 0.50000  0.63073  0.40920  Biso   1.000  N
  N4       1.0000 0.50000  0.57700  0.34200  Biso   1.000  N
  N5       1.0000 0.00000  0.86927  0.90920  Biso   1.000  N
  N6       1.0000 0.00000  0.92300  0.84200  Biso   1.000  N
  N7       1.0000 0.50000  0.36927  0.90920  Biso   1.000  N
  N8       1.0000 0.50000  0.42300  0.84200  Biso   1.000  N
  N9       1.0000 0.00000  0.13073  0.09080  Biso   1.000  N
  N10      1.0000 0.00000  0.07700  0.15800  Biso   1.000  N
  N11      1.0000 0.50000  0.63073  0.09080  Biso   1.000  N
  N12      1.0000 0.50000  0.57700  0.15800  Biso   1.000  N
  N13      1.0000 0.00000  0.86927  0.59080  Biso   1.000  N
  N14      1.0000 0.00000  0.92300  0.65800  Biso   1.000  N
  N15      1.0000 0.50000  0.36927  0.59080  Biso   1.000  N
  N16      1.0000 0.50000  0.42300  0.65800  Biso   1.000  N
  C25      1.0000 0.00000  0.16230  0.25000  Biso   1.000  C
  C26      1.0000 0.00000  0.22640  0.25000  Biso   1.000  C
  C27      1.0000 0.00000  0.34530  0.25000  Biso   1.000  C
  H9       1.0000 0.00000  0.38500  0.25000  Biso   1.000  H
  C28      1.0000 0.50000  0.66230  0.25000  Biso   1.000  C
  C29      1.0000 0.50000  0.72640  0.25000  Biso   1.000  C
  C30      1.0000 0.50000  0.84530  0.25000  Biso   1.000  C
  H10      1.0000 0.50000  0.88500  0.25000  Biso   1.000  H
  C31      1.0000 0.00000  0.83770  0.75000  Biso   1.000  C
  C32      1.0000 0.00000  0.77360  0.75000  Biso   1.000  C
  C33      1.0000 0.00000  0.65470  0.75000  Biso   1.000  C
  H11      1.0000 0.00000  0.61500  0.75000  Biso   1.000  H
  C34      1.0000 0.50000  0.33770  0.75000  Biso   1.000  C
  C35      1.0000 0.50000  0.27360  0.75000  Biso   1.000  C
  C36      1.0000 0.50000  0.15470  0.75000  Biso   1.000  C
  H12      1.0000 0.50000  0.11500  0.75000  Biso   1.000  H
