data_image0
_cell_length_a       33.138
_cell_length_b       9.893
_cell_length_c       26.959
_cell_angle_alpha    90
_cell_angle_beta     106.751
_cell_angle_gamma    90

_symmetry_space_group_name_H-M    "P 1"
_symmetry_int_tables_number       1

loop_
  _symmetry_equiv_pos_as_xyz
  'x, y, z'

loop_
  _atom_site_label
  _atom_site_occupancy
  _atom_site_fract_x
  _atom_site_fract_y
  _atom_site_fract_z
  _atom_site_thermal_displace_type
  _atom_site_B_iso_or_equiv
  _atom_site_type_symbol
  Dy1      1.0000 0.05278  0.11324  0.50190  Biso   1.000  Dy
  O1       1.0000 0.11743  0.18190  0.56821  Biso   1.000  O
  O2       1.0000 0.12118  0.00690  0.52020  Biso   1.000  O
  O3       1.0000 0.47512  0.59370  0.52923  Biso   1.000  O
  O4       1.0000 0.52258  0.75560  0.55245  Biso   1.000  O
  O5       1.0000 0.44095  0.48000  0.92472  Biso   1.000  O
  O6       1.0000 0.49249  0.32560  0.93747  Biso   1.000  O
  N1       1.0000 0.33318  0.12340  0.69899  Biso   1.000  N
  C1       1.0000 0.45832  0.37910  0.91174  Biso   1.000  C
  C2       1.0000 0.18400  0.07570  0.58299  Biso   1.000  C
  C3       1.0000 0.13787  0.08940  0.55624  Biso   1.000  C
  N2       1.0000 0.33942  0.98570  0.62961  Biso   1.000  N
  C4       1.0000 0.27083  0.06210  0.63100  Biso   1.000  C
  C5       1.0000 0.48733  0.70340  0.55119  Biso   1.000  C
  C6       1.0000 0.39522  0.34740  0.83360  Biso   1.000  C
  H1       1.0000 0.38110  0.41630  0.84660  Biso   1.000  H
  C7       1.0000 0.31689  0.05630  0.65410  Biso   1.000  C
  C8       1.0000 0.20314  0.16000  0.62490  Biso   1.000  C
  H2       1.0000 0.18660  0.22300  0.63720  Biso   1.000  H
  C9       1.0000 0.47599  0.88360  0.61120  Biso   1.000  C
  H3       1.0000 0.50460  0.91010  0.61750  Biso   1.000  H
  C10      1.0000 0.43619  0.31150  0.86107  Biso   1.000  C
  C11      1.0000 0.45992  0.77850  0.57710  Biso   1.000  C
  C12      1.0000 0.25181  0.97690  0.59000  Biso   1.000  C
  H4       1.0000 0.26840  0.91430  0.57770  Biso   1.000  H
  C13      1.0000 0.24609  0.15150  0.64840  Biso   1.000  C
  H5       1.0000 0.25870  0.20850  0.67700  Biso   1.000  H
  N3       1.0000 0.40074  0.05140  0.69590  Biso   1.000  N
  C14      1.0000 0.37541  0.11710  0.71790  Biso   1.000  C
  C15      1.0000 0.20864  0.98280  0.56700  Biso   1.000  C
  H6       1.0000 0.19580  0.92180  0.53990  Biso   1.000  H
  C16      1.0000 0.45653  0.20980  0.84260  Biso   1.000  C
  H7       1.0000 0.48420  0.18310  0.86180  Biso   1.000  H
  C17      1.0000 0.41748  0.74180  0.56730  Biso   1.000  C
  H8       1.0000 0.40650  0.66870  0.54450  Biso   1.000  H
  C18      1.0000 0.39145  0.81170  0.59050  Biso   1.000  C
  H9       1.0000 0.36250  0.78880  0.58300  Biso   1.000  H
  C19      1.0000 0.37472  0.28330  0.78720  Biso   1.000  C
  H10      1.0000 0.34670  0.30770  0.76870  Biso   1.000  H
  C20      1.0000 0.43658  0.14690  0.79620  Biso   1.000  C
  H11      1.0000 0.45080  0.07820  0.78320  Biso   1.000  H
  C21      1.0000 0.38102  0.98720  0.65170  Biso   1.000  C
  C22      1.0000 0.39554  0.18390  0.76830  Biso   1.000  C
  C23      1.0000 0.40835  0.91540  0.62490  Biso   1.000  C
  C24      1.0000 0.45082  0.94920  0.63560  Biso   1.000  C
  H12      1.0000 0.46230  0.01830  0.66000  Biso   1.000  H
  Dy2      1.0000 0.55278  0.61324  0.50190  Biso   1.000  Dy
  O7       1.0000 0.61743  0.68190  0.56821  Biso   1.000  O
  O8       1.0000 0.62118  0.50690  0.52020  Biso   1.000  O
  O9       1.0000 0.97512  0.09370  0.52923  Biso   1.000  O
  O10      1.0000 0.02258  0.25560  0.55245  Biso   1.000  O
  O11      1.0000 0.94095  0.98000  0.92472  Biso   1.000  O
  O12      1.0000 0.99249  0.82560  0.93747  Biso   1.000  O
  N4       1.0000 0.83318  0.62340  0.69899  Biso   1.000  N
  C25      1.0000 0.95832  0.87910  0.91174  Biso   1.000  C
  C26      1.0000 0.68400  0.57570  0.58299  Biso   1.000  C
  C27      1.0000 0.63787  0.58940  0.55624  Biso   1.000  C
  N5       1.0000 0.83942  0.48570  0.62961  Biso   1.000  N
  C28      1.0000 0.77083  0.56210  0.63100  Biso   1.000  C
  C29      1.0000 0.98733  0.20340  0.55119  Biso   1.000  C
  C30      1.0000 0.89522  0.84740  0.83360  Biso   1.000  C
  H13      1.0000 0.88110  0.91630  0.84660  Biso   1.000  H
  C31      1.0000 0.81689  0.55630  0.65410  Biso   1.000  C
  C32      1.0000 0.70314  0.66000  0.62490  Biso   1.000  C
  H14      1.0000 0.68660  0.72300  0.63720  Biso   1.000  H
  C33      1.0000 0.97599  0.38360  0.61120  Biso   1.000  C
  H15      1.0000 0.00460  0.41010  0.61750  Biso   1.000  H
  C34      1.0000 0.93619  0.81150  0.86107  Biso   1.000  C
  C35      1.0000 0.95992  0.27850  0.57710  Biso   1.000  C
  C36      1.0000 0.75181  0.47690  0.59000  Biso   1.000  C
  H16      1.0000 0.76840  0.41430  0.57770  Biso   1.000  H
  C37      1.0000 0.74609  0.65150  0.64840  Biso   1.000  C
  H17      1.0000 0.75870  0.70850  0.67700  Biso   1.000  H
  N6       1.0000 0.90074  0.55140  0.69590  Biso   1.000  N
  C38      1.0000 0.87541  0.61710  0.71790  Biso   1.000  C
  C39      1.0000 0.70864  0.48280  0.56700  Biso   1.000  C
  H18      1.0000 0.69580  0.42180  0.53990  Biso   1.000  H
  C40      1.0000 0.95653  0.70980  0.84260  Biso   1.000  C
  H19      1.0000 0.98420  0.68310  0.86180  Biso   1.000  H
  C41      1.0000 0.91748  0.24180  0.56730  Biso   1.000  C
  H20      1.0000 0.90650  0.16870  0.54450  Biso   1.000  H
  C42      1.0000 0.89145  0.31170  0.59050  Biso   1.000  C
  H21      1.0000 0.86250  0.28880  0.58300  Biso   1.000  H
  C43      1.0000 0.87472  0.78330  0.78720  Biso   1.000  C
  H22      1.0000 0.84670  0.80770  0.76870  Biso   1.000  H
  C44      1.0000 0.93658  0.64690  0.79620  Biso   1.000  C
  H23      1.0000 0.95080  0.57820  0.78320  Biso   1.000  H
  C45      1.0000 0.88102  0.48720  0.65170  Biso   1.000  C
  C46      1.0000 0.89554  0.68390  0.76830  Biso   1.000  C
  C47      1.0000 0.90835  0.41540  0.62490  Biso   1.000  C
  C48      1.0000 0.95082  0.44920  0.63560  Biso   1.000  C
  H24      1.0000 0.96230  0.51830  0.66000  Biso   1.000  H
  Dy3      1.0000 0.94722  0.11324  0.99810  Biso   1.000  Dy
  O13      1.0000 0.88257  0.18190  0.93179  Biso   1.000  O
  O14      1.0000 0.87882  0.00690  0.97980  Biso   1.000  O
  O15      1.0000 0.52488  0.59370  0.97077  Biso   1.000  O
  O16      1.0000 0.47742  0.75560  0.94755  Biso   1.000  O
  O17      1.0000 0.55905  0.48000  0.57528  Biso   1.000  O
  O18      1.0000 0.50751  0.32560  0.56253  Biso   1.000  O
  N7       1.0000 0.66682  0.12340  0.80101  Biso   1.000  N
  C49      1.0000 0.54168  0.37910  0.58826  Biso   1.000  C
  C50      1.0000 0.81600  0.07570  0.91701  Biso   1.000  C
  C51      1.0000 0.86213  0.08940  0.94376  Biso   1.000  C
  N8       1.0000 0.66058  0.98570  0.87039  Biso   1.000  N
  C52      1.0000 0.72917  0.06210  0.86900  Biso   1.000  C
  C53      1.0000 0.51267  0.70340  0.94881  Biso   1.000  C
  C54      1.0000 0.60478  0.34740  0.66640  Biso   1.000  C
  H25      1.0000 0.61890  0.41630  0.65340  Biso   1.000  H
  C55      1.0000 0.68311  0.05630  0.84590  Biso   1.000  C
  C56      1.0000 0.79686  0.16000  0.87510  Biso   1.000  C
  H26      1.0000 0.81340  0.22300  0.86280  Biso   1.000  H
  C57      1.0000 0.52401  0.88360  0.88880  Biso   1.000  C
  H27      1.0000 0.49540  0.91010  0.88250  Biso   1.000  H
  C58      1.0000 0.56381  0.31150  0.63893  Biso   1.000  C
  C59      1.0000 0.54008  0.77850  0.92290  Biso   1.000  C
  C60      1.0000 0.74819  0.97690  0.91000  Biso   1.000  C
  H28      1.0000 0.73160  0.91430  0.92230  Biso   1.000  H
  C61      1.0000 0.75391  0.15150  0.85160  Biso   1.000  C
  H29      1.0000 0.74130  0.20850  0.82300  Biso   1.000  H
  N9       1.0000 0.59926  0.05140  0.80410  Biso   1.000  N
  C62      1.0000 0.62459  0.11710  0.78210  Biso   1.000  C
  C63      1.0000 0.79136  0.98280  0.93300  Biso   1.000  C
  H30      1.0000 0.80420  0.92180  0.96010  Biso   1.000  H
  C64      1.0000 0.54347  0.20980  0.65740  Biso   1.000  C
  H31      1.0000 0.51580  0.18310  0.63820  Biso   1.000  H
  C65      1.0000 0.58252  0.74180  0.93270  Biso   1.000  C
  H32      1.0000 0.59350  0.66870  0.95550  Biso   1.000  H
  C66      1.0000 0.60855  0.81170  0.90950  Biso   1.000  C
  H33      1.0000 0.63750  0.78880  0.91700  Biso   1.000  H
  C67      1.0000 0.62528  0.28330  0.71280  Biso   1.000  C
  H34      1.0000 0.65330  0.30770  0.73130  Biso   1.000  H
  C68      1.0000 0.56342  0.14690  0.70380  Biso   1.000  C
  H35      1.0000 0.54920  0.07820  0.71680  Biso   1.000  H
  C69      1.0000 0.61898  0.98720  0.84830  Biso   1.000  C
  C70      1.0000 0.60446  0.18390  0.73170  Biso   1.000  C
  C71      1.0000 0.59165  0.91540  0.87510  Biso   1.000  C
  C72      1.0000 0.54918  0.94920  0.86440  Biso   1.000  C
  H36      1.0000 0.53770  0.01830  0.84000  Biso   1.000  H
  Dy4      1.0000 0.44722  0.61324  0.99810  Biso   1.000  Dy
  O19      1.0000 0.38257  0.68190  0.93179  Biso   1.000  O
  O20      1.0000 0.37882  0.50690  0.97980  Biso   1.000  O
  O21      1.0000 0.02488  0.09370  0.97077  Biso   1.000  O
  O22      1.0000 0.97742  0.25560  0.94755  Biso   1.000  O
  O23      1.0000 0.05905  0.98000  0.57528  Biso   1.000  O
  O24      1.0000 0.00751  0.82560  0.56253  Biso   1.000  O
  N10      1.0000 0.16682  0.62340  0.80101  Biso   1.000  N
  C73      1.0000 0.04168  0.87910  0.58826  Biso   1.000  C
  C74      1.0000 0.31600  0.57570  0.91701  Biso   1.000  C
  C75      1.0000 0.36213  0.58940  0.94376  Biso   1.000  C
  N11      1.0000 0.16058  0.48570  0.87039  Biso   1.000  N
  C76      1.0000 0.22917  0.56210  0.86900  Biso   1.000  C
  C77      1.0000 0.01267  0.20340  0.94881  Biso   1.000  C
  C78      1.0000 0.10478  0.84740  0.66640  Biso   1.000  C
  H37      1.0000 0.11890  0.91630  0.65340  Biso   1.000  H
  C79      1.0000 0.18311  0.55630  0.84590  Biso   1.000  C
  C80      1.0000 0.29686  0.66000  0.87510  Biso   1.000  C
  H38      1.0000 0.31340  0.72300  0.86280  Biso   1.000  H
  C81      1.0000 0.02401  0.38360  0.88880  Biso   1.000  C
  H39      1.0000 0.99540  0.41010  0.88250  Biso   1.000  H
  C82      1.0000 0.06381  0.81150  0.63893  Biso   1.000  C
  C83      1.0000 0.04008  0.27850  0.92290  Biso   1.000  C
  C84      1.0000 0.24819  0.47690  0.91000  Biso   1.000  C
  H40      1.0000 0.23160  0.41430  0.92230  Biso   1.000  H
  C85      1.0000 0.25391  0.65150  0.85160  Biso   1.000  C
  H41      1.0000 0.24130  0.70850  0.82300  Biso   1.000  H
  N12      1.0000 0.09926  0.55140  0.80410  Biso   1.000  N
  C86      1.0000 0.12459  0.61710  0.78210  Biso   1.000  C
  C87      1.0000 0.29136  0.48280  0.93300  Biso   1.000  C
  H42      1.0000 0.30420  0.42180  0.96010  Biso   1.000  H
  C88      1.0000 0.04347  0.70980  0.65740  Biso   1.000  C
  H43      1.0000 0.01580  0.68310  0.63820  Biso   1.000  H
  C89      1.0000 0.08252  0.24180  0.93270  Biso   1.000  C
  H44      1.0000 0.09350  0.16870  0.95550  Biso   1.000  H
  C90      1.0000 0.10855  0.31170  0.90950  Biso   1.000  C
  H45      1.0000 0.13750  0.28880  0.91700  Biso   1.000  H
  C91      1.0000 0.12528  0.78330  0.71280  Biso   1.000  C
  H46      1.0000 0.15330  0.80770  0.73130  Biso   1.000  H
  C92      1.0000 0.06342  0.64690  0.70380  Biso   1.000  C
  H47      1.0000 0.04920  0.57820  0.71680  Biso   1.000  H
  C93      1.0000 0.11898  0.48720  0.84830  Biso   1.000  C
  C94      1.0000 0.10446  0.68390  0.73170  Biso   1.000  C
  C95      1.0000 0.09165  0.41540  0.87510  Biso   1.000  C
  C96      1.0000 0.04918  0.44920  0.86440  Biso   1.000  C
  H48      1.0000 0.03770  0.51830  0.84000  Biso   1.000  H
  Dy5      1.0000 0.94722  0.88676  0.49810  Biso   1.000  Dy
  O25      1.0000 0.88257  0.81810  0.43179  Biso   1.000  O
  O26      1.0000 0.87882  0.99310  0.47980  Biso   1.000  O
  O27      1.0000 0.52488  0.40630  0.47077  Biso   1.000  O
  O28      1.0000 0.47742  0.24440  0.44755  Biso   1.000  O
  O29      1.0000 0.55905  0.52000  0.07528  Biso   1.000  O
  O30      1.0000 0.50751  0.67440  0.06253  Biso   1.000  O
  N13      1.0000 0.66682  0.87660  0.30101  Biso   1.000  N
  C97      1.0000 0.54168  0.62090  0.08826  Biso   1.000  C
  C98      1.0000 0.81600  0.92430  0.41701  Biso   1.000  C
  C99      1.0000 0.86213  0.91060  0.44376  Biso   1.000  C
  N14      1.0000 0.66058  0.01430  0.37039  Biso   1.000  N
  C100     1.0000 0.72917  0.93790  0.36900  Biso   1.000  C
  C101     1.0000 0.51267  0.29660  0.44881  Biso   1.000  C
  C102     1.0000 0.60478  0.65260  0.16640  Biso   1.000  C
  H49      1.0000 0.61890  0.58370  0.15340  Biso   1.000  H
  C103     1.0000 0.68311  0.94370  0.34590  Biso   1.000  C
  C104     1.0000 0.79686  0.84000  0.37510  Biso   1.000  C
  H50      1.0000 0.81340  0.77700  0.36280  Biso   1.000  H
  C105     1.0000 0.52401  0.11640  0.38880  Biso   1.000  C
  H51      1.0000 0.49540  0.08990  0.38250  Biso   1.000  H
  C106     1.0000 0.56381  0.68850  0.13893  Biso   1.000  C
  C107     1.0000 0.54008  0.22150  0.42290  Biso   1.000  C
  C108     1.0000 0.74819  0.02310  0.41000  Biso   1.000  C
  H52      1.0000 0.73160  0.08570  0.42230  Biso   1.000  H
  C109     1.0000 0.75391  0.84850  0.35160  Biso   1.000  C
  H53      1.0000 0.74130  0.79150  0.32300  Biso   1.000  H
  N15      1.0000 0.59926  0.94860  0.30410  Biso   1.000  N
  C110     1.0000 0.62459  0.88290  0.28210  Biso   1.000  C
  C111     1.0000 0.79136  0.01720  0.43300  Biso   1.000  C
  H54      1.0000 0.80420  0.07820  0.46010  Biso   1.000  H
  C112     1.0000 0.54347  0.79020  0.15740  Biso   1.000  C
  H55      1.0000 0.51580  0.81690  0.13820  Biso   1.000  H
  C113     1.0000 0.58252  0.25820  0.43270  Biso   1.000  C
  H56      1.0000 0.59350  0.33130  0.45550  Biso   1.000  H
  C114     1.0000 0.60855  0.18830  0.40950  Biso   1.000  C
  H57      1.0000 0.63750  0.21120  0.41700  Biso   1.000  H
  C115     1.0000 0.62528  0.71670  0.21280  Biso   1.000  C
  H58      1.0000 0.65330  0.69230  0.23130  Biso   1.000  H
  C116     1.0000 0.56342  0.85310  0.20380  Biso   1.000  C
  H59      1.0000 0.54920  0.92180  0.21680  Biso   1.000  H
  C117     1.0000 0.61898  0.01280  0.34830  Biso   1.000  C
  C118     1.0000 0.60446  0.81610  0.23170  Biso   1.000  C
  C119     1.0000 0.59165  0.08460  0.37510  Biso   1.000  C
  C120     1.0000 0.54918  0.05080  0.36440  Biso   1.000  C
  H60      1.0000 0.53770  0.98170  0.34000  Biso   1.000  H
  Dy6      1.0000 0.44722  0.38676  0.49810  Biso   1.000  Dy
  O31      1.0000 0.38257  0.31810  0.43179  Biso   1.000  O
  O32      1.0000 0.37882  0.49310  0.47980  Biso   1.000  O
  O33      1.0000 0.02488  0.90630  0.47077  Biso   1.000  O
  O34      1.0000 0.97742  0.74440  0.44755  Biso   1.000  O
  O35      1.0000 0.05905  0.02000  0.07528  Biso   1.000  O
  O36      1.0000 0.00751  0.17440  0.06253  Biso   1.000  O
  N16      1.0000 0.16682  0.37660  0.30101  Biso   1.000  N
  C121     1.0000 0.04168  0.12090  0.08826  Biso   1.000  C
  C122     1.0000 0.31600  0.42430  0.41701  Biso   1.000  C
  C123     1.0000 0.36213  0.41060  0.44376  Biso   1.000  C
  N17      1.0000 0.16058  0.51430  0.37039  Biso   1.000  N
  C124     1.0000 0.22917  0.43790  0.36900  Biso   1.000  C
  C125     1.0000 0.01267  0.79660  0.44881  Biso   1.000  C
  C126     1.0000 0.10478  0.15260  0.16640  Biso   1.000  C
  H61      1.0000 0.11890  0.08370  0.15340  Biso   1.000  H
  C127     1.0000 0.18311  0.44370  0.34590  Biso   1.000  C
  C128     1.0000 0.29686  0.34000  0.37510  Biso   1.000  C
  H62      1.0000 0.31340  0.27700  0.36280  Biso   1.000  H
  C129     1.0000 0.02401  0.61640  0.38880  Biso   1.000  C
  H63      1.0000 0.99540  0.58990  0.38250  Biso   1.000  H
  C130     1.0000 0.06381  0.18850  0.13893  Biso   1.000  C
  C131     1.0000 0.04008  0.72150  0.42290  Biso   1.000  C
  C132     1.0000 0.24819  0.52310  0.41000  Biso   1.000  C
  H64      1.0000 0.23160  0.58570  0.42230  Biso   1.000  H
  C133     1.0000 0.25391  0.34850  0.35160  Biso   1.000  C
  H65      1.0000 0.24130  0.29150  0.32300  Biso   1.000  H
  N18      1.0000 0.09926  0.44860  0.30410  Biso   1.000  N
  C134     1.0000 0.12459  0.38290  0.28210  Biso   1.000  C
  C135     1.0000 0.29136  0.51720  0.43300  Biso   1.000  C
  H66      1.0000 0.30420  0.57820  0.46010  Biso   1.000  H
  C136     1.0000 0.04347  0.29020  0.15740  Biso   1.000  C
  H67      1.0000 0.01580  0.31690  0.13820  Biso   1.000  H
  C137     1.0000 0.08252  0.75820  0.43270  Biso   1.000  C
  H68      1.0000 0.09350  0.83130  0.45550  Biso   1.000  H
  C138     1.0000 0.10855  0.68830  0.40950  Biso   1.000  C
  H69      1.0000 0.13750  0.71120  0.41700  Biso   1.000  H
  C139     1.0000 0.12528  0.21670  0.21280  Biso   1.000  C
  H70      1.0000 0.15330  0.19230  0.23130  Biso   1.000  H
  C140     1.0000 0.06342  0.35310  0.20380  Biso   1.000  C
  H71      1.0000 0.04920  0.42180  0.21680  Biso   1.000  H
  C141     1.0000 0.11898  0.51280  0.34830  Biso   1.000  C
  C142     1.0000 0.10446  0.31610  0.23170  Biso   1.000  C
  C143     1.0000 0.09165  0.58460  0.37510  Biso   1.000  C
  C144     1.0000 0.04918  0.55080  0.36440  Biso   1.000  C
  H72      1.0000 0.03770  0.48170  0.34000  Biso   1.000  H
  Dy7      1.0000 0.05278  0.88676  0.00190  Biso   1.000  Dy
  O37      1.0000 0.11743  0.81810  0.06821  Biso   1.000  O
  O38      1.0000 0.12118  0.99310  0.02020  Biso   1.000  O
  O39      1.0000 0.47512  0.40630  0.02923  Biso   1.000  O
  O40      1.0000 0.52258  0.24440  0.05245  Biso   1.000  O
  O41      1.0000 0.44095  0.52000  0.42472  Biso   1.000  O
  O42      1.0000 0.49249  0.67440  0.43747  Biso   1.000  O
  N19      1.0000 0.33318  0.87660  0.19899  Biso   1.000  N
  C145     1.0000 0.45832  0.62090  0.41174  Biso   1.000  C
  C146     1.0000 0.18400  0.92430  0.08299  Biso   1.000  C
  C147     1.0000 0.13787  0.91060  0.05624  Biso   1.000  C
  N20      1.0000 0.33942  0.01430  0.12961  Biso   1.000  N
  C148     1.0000 0.27083  0.93790  0.13100  Biso   1.000  C
  C149     1.0000 0.48733  0.29660  0.05119  Biso   1.000  C
  C150     1.0000 0.39522  0.65260  0.33360  Biso   1.000  C
  H73      1.0000 0.38110  0.58370  0.34660  Biso   1.000  H
  C151     1.0000 0.31689  0.94370  0.15410  Biso   1.000  C
  C152     1.0000 0.20314  0.84000  0.12490  Biso   1.000  C
  H74      1.0000 0.18660  0.77700  0.13720  Biso   1.000  H
  C153     1.0000 0.47599  0.11640  0.11120  Biso   1.000  C
  H75      1.0000 0.50460  0.08990  0.11750  Biso   1.000  H
  C154     1.0000 0.43619  0.68850  0.36107  Biso   1.000  C
  C155     1.0000 0.45992  0.22150  0.07710  Biso   1.000  C
  C156     1.0000 0.25181  0.02310  0.09000  Biso   1.000  C
  H76      1.0000 0.26840  0.08570  0.07770  Biso   1.000  H
  C157     1.0000 0.24609  0.84850  0.14840  Biso   1.000  C
  H77      1.0000 0.25870  0.79150  0.17700  Biso   1.000  H
  N21      1.0000 0.40074  0.94860  0.19590  Biso   1.000  N
  C158     1.0000 0.37541  0.88290  0.21790  Biso   1.000  C
  C159     1.0000 0.20864  0.01720  0.06700  Biso   1.000  C
  H78      1.0000 0.19580  0.07820  0.03990  Biso   1.000  H
  C160     1.0000 0.45653  0.79020  0.34260  Biso   1.000  C
  H79      1.0000 0.48420  0.81690  0.36180  Biso   1.000  H
  C161     1.0000 0.41748  0.25820  0.06730  Biso   1.000  C
  H80      1.0000 0.40650  0.33130  0.04450  Biso   1.000  H
  C162     1.0000 0.39145  0.18830  0.09050  Biso   1.000  C
  H81      1.0000 0.36250  0.21120  0.08300  Biso   1.000  H
  C163     1.0000 0.37472  0.71670  0.28720  Biso   1.000  C
  H82      1.0000 0.34670  0.69230  0.26870  Biso   1.000  H
  C164     1.0000 0.43658  0.85310  0.29620  Biso   1.000  C
  H83      1.0000 0.45080  0.92180  0.28320  Biso   1.000  H
  C165     1.0000 0.38102  0.01280  0.15170  Biso   1.000  C
  C166     1.0000 0.39554  0.81610  0.26830  Biso   1.000  C
  C167     1.0000 0.40835  0.08460  0.12490  Biso   1.000  C
  C168     1.0000 0.45082  0.05080  0.13560  Biso   1.000  C
  H84      1.0000 0.46230  0.98170  0.16000  Biso   1.000  H
  Dy8      1.0000 0.55278  0.38676  0.00190  Biso   1.000  Dy
  O43      1.0000 0.61743  0.31810  0.06821  Biso   1.000  O
  O44      1.0000 0.62118  0.49310  0.02020  Biso   1.000  O
  O45      1.0000 0.97512  0.90630  0.02923  Biso   1.000  O
  O46      1.0000 0.02258  0.74440  0.05245  Biso   1.000  O
  O47      1.0000 0.94095  0.02000  0.42472  Biso   1.000  O
  O48      1.0000 0.99249  0.17440  0.43747  Biso   1.000  O
  N22      1.0000 0.83318  0.37660  0.19899  Biso   1.000  N
  C169     1.0000 0.95832  0.12090  0.41174  Biso   1.000  C
  C170     1.0000 0.68400  0.42430  0.08299  Biso   1.000  C
  C171     1.0000 0.63787  0.41060  0.05624  Biso   1.000  C
  N23      1.0000 0.83942  0.51430  0.12961  Biso   1.000  N
  C172     1.0000 0.77083  0.43790  0.13100  Biso   1.000  C
  C173     1.0000 0.98733  0.79660  0.05119  Biso   1.000  C
  C174     1.0000 0.89522  0.15260  0.33360  Biso   1.000  C
  H85      1.0000 0.88110  0.08370  0.34660  Biso   1.000  H
  C175     1.0000 0.81689  0.44370  0.15410  Biso   1.000  C
  C176     1.0000 0.70314  0.34000  0.12490  Biso   1.000  C
  H86      1.0000 0.68660  0.27700  0.13720  Biso   1.000  H
  C177     1.0000 0.97599  0.61640  0.11120  Biso   1.000  C
  H87      1.0000 0.00460  0.58990  0.11750  Biso   1.000  H
  C178     1.0000 0.93619  0.18850  0.36107  Biso   1.000  C
  C179     1.0000 0.95992  0.72150  0.07710  Biso   1.000  C
  C180     1.0000 0.75181  0.52310  0.09000  Biso   1.000  C
  H88      1.0000 0.76840  0.58570  0.07770  Biso   1.000  H
  C181     1.0000 0.74609  0.34850  0.14840  Biso   1.000  C
  H89      1.0000 0.75870  0.29150  0.17700  Biso   1.000  H
  N24      1.0000 0.90074  0.44860  0.19590  Biso   1.000  N
  C182     1.0000 0.87541  0.38290  0.21790  Biso   1.000  C
  C183     1.0000 0.70864  0.51720  0.06700  Biso   1.000  C
  H90      1.0000 0.69580  0.57820  0.03990  Biso   1.000  H
  C184     1.0000 0.95653  0.29020  0.34260  Biso   1.000  C
  H91      1.0000 0.98420  0.31690  0.36180  Biso   1.000  H
  C185     1.0000 0.91748  0.75820  0.06730  Biso   1.000  C
  H92      1.0000 0.90650  0.83130  0.04450  Biso   1.000  H
  C186     1.0000 0.89145  0.68830  0.09050  Biso   1.000  C
  H93      1.0000 0.86250  0.71120  0.08300  Biso   1.000  H
  C187     1.0000 0.87472  0.21670  0.28720  Biso   1.000  C
  H94      1.0000 0.84670  0.19230  0.26870  Biso   1.000  H
  C188     1.0000 0.93658  0.35310  0.29620  Biso   1.000  C
  H95      1.0000 0.95080  0.42180  0.28320  Biso   1.000  H
  C189     1.0000 0.88102  0.51280  0.15170  Biso   1.000  C
  C190     1.0000 0.89554  0.31610  0.26830  Biso   1.000  C
  C191     1.0000 0.90835  0.58460  0.12490  Biso   1.000  C
  C192     1.0000 0.95082  0.55080  0.13560  Biso   1.000  C
  H96      1.0000 0.96230  0.48170  0.16000  Biso   1.000  H
