data_image0
_cell_length_a       33.137
_cell_length_b       9.7145
_cell_length_c       27.314
_cell_angle_alpha    90
_cell_angle_beta     107.642
_cell_angle_gamma    90

_symmetry_space_group_name_H-M    "P 1"
_symmetry_int_tables_number       1

loop_
  _symmetry_equiv_pos_as_xyz
  'x, y, z'

loop_
  _atom_site_label
  _atom_site_occupancy
  _atom_site_fract_x
  _atom_site_fract_y
  _atom_site_fract_z
  _atom_site_thermal_displace_type
  _atom_site_B_iso_or_equiv
  _atom_site_type_symbol
  Tb1      1.0000 0.05228  0.11314  0.50238  Biso   1.000  Tb
  C1       1.0000 0.37642  0.11460  0.71760  Biso   1.000  C
  N1       1.0000 0.34090  0.98130  0.62906  Biso   1.000  N
  N2       1.0000 0.33419  0.12110  0.69799  Biso   1.000  N
  C2       1.0000 0.31809  0.05240  0.65359  Biso   1.000  C
  N3       1.0000 0.40183  0.04970  0.69557  Biso   1.000  N
  C3       1.0000 0.38248  0.98450  0.65170  Biso   1.000  C
  O1       1.0000 0.11825  0.17990  0.56719  Biso   1.000  O
  O2       1.0000 0.47755  0.59660  0.52943  Biso   1.000  O
  O3       1.0000 0.52448  0.76180  0.55432  Biso   1.000  O
  O4       1.0000 0.12095  0.00150  0.51977  Biso   1.000  O
  C4       1.0000 0.13832  0.08540  0.55488  Biso   1.000  C
  C5       1.0000 0.46147  0.78010  0.57813  Biso   1.000  C
  C6       1.0000 0.48944  0.70820  0.55206  Biso   1.000  C
  C7       1.0000 0.39362  0.81010  0.59090  Biso   1.000  C
  H1       1.0000 0.36450  0.78670  0.58270  Biso   1.000  H
  C8       1.0000 0.27171  0.05750  0.62978  Biso   1.000  C
  C9       1.0000 0.18476  0.07090  0.58212  Biso   1.000  C
  C10      1.0000 0.41913  0.74090  0.56770  Biso   1.000  C
  H2       1.0000 0.40800  0.66700  0.54470  Biso   1.000  H
  C11      1.0000 0.47754  0.88480  0.61230  Biso   1.000  C
  H3       1.0000 0.50620  0.91230  0.61890  Biso   1.000  H
  C12      1.0000 0.24725  0.14330  0.64850  Biso   1.000  C
  H4       1.0000 0.25990  0.19760  0.67810  Biso   1.000  H
  O5       1.0000 0.43968  0.47500  0.92443  Biso   1.000  O
  O6       1.0000 0.49186  0.32110  0.93705  Biso   1.000  O
  C13      1.0000 0.45731  0.37500  0.91192  Biso   1.000  C
  C14      1.0000 0.39431  0.34150  0.83341  Biso   1.000  C
  H5       1.0000 0.37950  0.40860  0.84660  Biso   1.000  H
  C15      1.0000 0.20363  0.15160  0.62430  Biso   1.000  C
  H6       1.0000 0.18690  0.21320  0.63710  Biso   1.000  H
  C16      1.0000 0.41004  0.91280  0.62570  Biso   1.000  C
  C17      1.0000 0.43561  0.30730  0.86082  Biso   1.000  C
  C18      1.0000 0.25292  0.97390  0.58780  Biso   1.000  C
  H7       1.0000 0.26980  0.91250  0.57530  Biso   1.000  H
  C19      1.0000 0.20939  0.97960  0.56390  Biso   1.000  C
  H8       1.0000 0.19650  0.92190  0.53530  Biso   1.000  H
  C20      1.0000 0.45253  0.94980  0.63700  Biso   1.000  C
  H9       1.0000 0.46410  0.01960  0.66160  Biso   1.000  H
  C21      1.0000 0.37461  0.27810  0.78680  Biso   1.000  C
  H10      1.0000 0.34610  0.30040  0.76850  Biso   1.000  H
  C22      1.0000 0.45708  0.20930  0.84190  Biso   1.000  C
  H11      1.0000 0.48520  0.18450  0.86100  Biso   1.000  H
  C23      1.0000 0.39625  0.18290  0.76700  Biso   1.000  C
  C24      1.0000 0.43777  0.14730  0.79520  Biso   1.000  C
  H12      1.0000 0.45270  0.08030  0.78210  Biso   1.000  H
  Tb2      1.0000 0.55228  0.61314  0.50238  Biso   1.000  Tb
  C25      1.0000 0.87642  0.61460  0.71760  Biso   1.000  C
  N4       1.0000 0.84090  0.48130  0.62906  Biso   1.000  N
  N5       1.0000 0.83419  0.62110  0.69799  Biso   1.000  N
  C26      1.0000 0.81809  0.55240  0.65359  Biso   1.000  C
  N6       1.0000 0.90183  0.54970  0.69557  Biso   1.000  N
  C27      1.0000 0.88248  0.48450  0.65170  Biso   1.000  C
  O7       1.0000 0.61825  0.67990  0.56719  Biso   1.000  O
  O8       1.0000 0.97755  0.09660  0.52943  Biso   1.000  O
  O9       1.0000 0.02448  0.26180  0.55432  Biso   1.000  O
  O10      1.0000 0.62095  0.50150  0.51977  Biso   1.000  O
  C28      1.0000 0.63832  0.58540  0.55488  Biso   1.000  C
  C29      1.0000 0.96147  0.28010  0.57813  Biso   1.000  C
  C30      1.0000 0.98944  0.20820  0.55206  Biso   1.000  C
  C31      1.0000 0.89362  0.31010  0.59090  Biso   1.000  C
  H13      1.0000 0.86450  0.28670  0.58270  Biso   1.000  H
  C32      1.0000 0.77171  0.55750  0.62978  Biso   1.000  C
  C33      1.0000 0.68476  0.57090  0.58212  Biso   1.000  C
  C34      1.0000 0.91913  0.24090  0.56770  Biso   1.000  C
  H14      1.0000 0.90800  0.16700  0.54470  Biso   1.000  H
  C35      1.0000 0.97754  0.38480  0.61230  Biso   1.000  C
  H15      1.0000 0.00620  0.41230  0.61890  Biso   1.000  H
  C36      1.0000 0.74725  0.64330  0.64850  Biso   1.000  C
  H16      1.0000 0.75990  0.69760  0.67810  Biso   1.000  H
  O11      1.0000 0.93968  0.97500  0.92443  Biso   1.000  O
  O12      1.0000 0.99186  0.82110  0.93705  Biso   1.000  O
  C37      1.0000 0.95731  0.87500  0.91192  Biso   1.000  C
  C38      1.0000 0.89431  0.84150  0.83341  Biso   1.000  C
  H17      1.0000 0.87950  0.90860  0.84660  Biso   1.000  H
  C39      1.0000 0.70363  0.65160  0.62430  Biso   1.000  C
  H18      1.0000 0.68690  0.71320  0.63710  Biso   1.000  H
  C40      1.0000 0.91004  0.41280  0.62570  Biso   1.000  C
  C41      1.0000 0.93561  0.80730  0.86082  Biso   1.000  C
  C42      1.0000 0.75292  0.47390  0.58780  Biso   1.000  C
  H19      1.0000 0.76980  0.41250  0.57530  Biso   1.000  H
  C43      1.0000 0.70939  0.47960  0.56390  Biso   1.000  C
  H20      1.0000 0.69650  0.42190  0.53530  Biso   1.000  H
  C44      1.0000 0.95253  0.44980  0.63700  Biso   1.000  C
  H21      1.0000 0.96410  0.51960  0.66160  Biso   1.000  H
  C45      1.0000 0.87461  0.77810  0.78680  Biso   1.000  C
  H22      1.0000 0.84610  0.80040  0.76850  Biso   1.000  H
  C46      1.0000 0.95708  0.70930  0.84190  Biso   1.000  C
  H23      1.0000 0.98520  0.68450  0.86100  Biso   1.000  H
  C47      1.0000 0.89625  0.68290  0.76700  Biso   1.000  C
  C48      1.0000 0.93777  0.64730  0.79520  Biso   1.000  C
  H24      1.0000 0.95270  0.58030  0.78210  Biso   1.000  H
  Tb3      1.0000 0.94772  0.11314  0.99762  Biso   1.000  Tb
  C49      1.0000 0.62358  0.11460  0.78240  Biso   1.000  C
  N7       1.0000 0.65910  0.98130  0.87094  Biso   1.000  N
  N8       1.0000 0.66581  0.12110  0.80201  Biso   1.000  N
  C50      1.0000 0.68191  0.05240  0.84641  Biso   1.000  C
  N9       1.0000 0.59817  0.04970  0.80443  Biso   1.000  N
  C51      1.0000 0.61752  0.98450  0.84830  Biso   1.000  C
  O13      1.0000 0.88175  0.17990  0.93281  Biso   1.000  O
  O14      1.0000 0.52245  0.59660  0.97057  Biso   1.000  O
  O15      1.0000 0.47552  0.76180  0.94568  Biso   1.000  O
  O16      1.0000 0.87905  0.00150  0.98023  Biso   1.000  O
  C52      1.0000 0.86168  0.08540  0.94512  Biso   1.000  C
  C53      1.0000 0.53853  0.78010  0.92187  Biso   1.000  C
  C54      1.0000 0.51056  0.70820  0.94794  Biso   1.000  C
  C55      1.0000 0.60638  0.81010  0.90910  Biso   1.000  C
  H25      1.0000 0.63550  0.78670  0.91730  Biso   1.000  H
  C56      1.0000 0.72829  0.05750  0.87022  Biso   1.000  C
  C57      1.0000 0.81524  0.07090  0.91788  Biso   1.000  C
  C58      1.0000 0.58087  0.74090  0.93230  Biso   1.000  C
  H26      1.0000 0.59200  0.66700  0.95530  Biso   1.000  H
  C59      1.0000 0.52246  0.88480  0.88770  Biso   1.000  C
  H27      1.0000 0.49380  0.91230  0.88110  Biso   1.000  H
  C60      1.0000 0.75275  0.14330  0.85150  Biso   1.000  C
  H28      1.0000 0.74010  0.19760  0.82190  Biso   1.000  H
  O17      1.0000 0.56032  0.47500  0.57557  Biso   1.000  O
  O18      1.0000 0.50814  0.32110  0.56295  Biso   1.000  O
  C61      1.0000 0.54269  0.37500  0.58808  Biso   1.000  C
  C62      1.0000 0.60569  0.34150  0.66659  Biso   1.000  C
  H29      1.0000 0.62050  0.40860  0.65340  Biso   1.000  H
  C63      1.0000 0.79637  0.15160  0.87570  Biso   1.000  C
  H30      1.0000 0.81310  0.21320  0.86290  Biso   1.000  H
  C64      1.0000 0.58996  0.91280  0.87430  Biso   1.000  C
  C65      1.0000 0.56439  0.30730  0.63918  Biso   1.000  C
  C66      1.0000 0.74708  0.97390  0.91220  Biso   1.000  C
  H31      1.0000 0.73020  0.91250  0.92470  Biso   1.000  H
  C67      1.0000 0.79061  0.97960  0.93610  Biso   1.000  C
  H32      1.0000 0.80350  0.92190  0.96470  Biso   1.000  H
  C68      1.0000 0.54747  0.94980  0.86300  Biso   1.000  C
  H33      1.0000 0.53590  0.01960  0.83840  Biso   1.000  H
  C69      1.0000 0.62539  0.27810  0.71320  Biso   1.000  C
  H34      1.0000 0.65390  0.30040  0.73150  Biso   1.000  H
  C70      1.0000 0.54292  0.20930  0.65810  Biso   1.000  C
  H35      1.0000 0.51480  0.18450  0.63900  Biso   1.000  H
  C71      1.0000 0.60375  0.18290  0.73300  Biso   1.000  C
  C72      1.0000 0.56223  0.14730  0.70480  Biso   1.000  C
  H36      1.0000 0.54730  0.08030  0.71790  Biso   1.000  H
  Tb4      1.0000 0.44772  0.61314  0.99762  Biso   1.000  Tb
  C73      1.0000 0.12358  0.61460  0.78240  Biso   1.000  C
  N10      1.0000 0.15910  0.48130  0.87094  Biso   1.000  N
  N11      1.0000 0.16581  0.62110  0.80201  Biso   1.000  N
  C74      1.0000 0.18191  0.55240  0.84641  Biso   1.000  C
  N12      1.0000 0.09817  0.54970  0.80443  Biso   1.000  N
  C75      1.0000 0.11752  0.48450  0.84830  Biso   1.000  C
  O19      1.0000 0.38175  0.67990  0.93281  Biso   1.000  O
  O20      1.0000 0.02245  0.09660  0.97057  Biso   1.000  O
  O21      1.0000 0.97552  0.26180  0.94568  Biso   1.000  O
  O22      1.0000 0.37905  0.50150  0.98023  Biso   1.000  O
  C76      1.0000 0.36168  0.58540  0.94512  Biso   1.000  C
  C77      1.0000 0.03853  0.28010  0.92187  Biso   1.000  C
  C78      1.0000 0.01056  0.20820  0.94794  Biso   1.000  C
  C79      1.0000 0.10638  0.31010  0.90910  Biso   1.000  C
  H37      1.0000 0.13550  0.28670  0.91730  Biso   1.000  H
  C80      1.0000 0.22829  0.55750  0.87022  Biso   1.000  C
  C81      1.0000 0.31524  0.57090  0.91788  Biso   1.000  C
  C82      1.0000 0.08087  0.24090  0.93230  Biso   1.000  C
  H38      1.0000 0.09200  0.16700  0.95530  Biso   1.000  H
  C83      1.0000 0.02246  0.38480  0.88770  Biso   1.000  C
  H39      1.0000 0.99380  0.41230  0.88110  Biso   1.000  H
  C84      1.0000 0.25275  0.64330  0.85150  Biso   1.000  C
  H40      1.0000 0.24010  0.69760  0.82190  Biso   1.000  H
  O23      1.0000 0.06032  0.97500  0.57557  Biso   1.000  O
  O24      1.0000 0.00814  0.82110  0.56295  Biso   1.000  O
  C85      1.0000 0.04269  0.87500  0.58808  Biso   1.000  C
  C86      1.0000 0.10569  0.84150  0.66659  Biso   1.000  C
  H41      1.0000 0.12050  0.90860  0.65340  Biso   1.000  H
  C87      1.0000 0.29637  0.65160  0.87570  Biso   1.000  C
  H42      1.0000 0.31310  0.71320  0.86290  Biso   1.000  H
  C88      1.0000 0.08996  0.41280  0.87430  Biso   1.000  C
  C89      1.0000 0.06439  0.80730  0.63918  Biso   1.000  C
  C90      1.0000 0.24708  0.47390  0.91220  Biso   1.000  C
  H43      1.0000 0.23020  0.41250  0.92470  Biso   1.000  H
  C91      1.0000 0.29061  0.47960  0.93610  Biso   1.000  C
  H44      1.0000 0.30350  0.42190  0.96470  Biso   1.000  H
  C92      1.0000 0.04747  0.44980  0.86300  Biso   1.000  C
  H45      1.0000 0.03590  0.51960  0.83840  Biso   1.000  H
  C93      1.0000 0.12539  0.77810  0.71320  Biso   1.000  C
  H46      1.0000 0.15390  0.80040  0.73150  Biso   1.000  H
  C94      1.0000 0.04292  0.70930  0.65810  Biso   1.000  C
  H47      1.0000 0.01480  0.68450  0.63900  Biso   1.000  H
  C95      1.0000 0.10375  0.68290  0.73300  Biso   1.000  C
  C96      1.0000 0.06223  0.64730  0.70480  Biso   1.000  C
  H48      1.0000 0.04730  0.58030  0.71790  Biso   1.000  H
  Tb5      1.0000 0.94772  0.88686  0.49762  Biso   1.000  Tb
  C97      1.0000 0.62358  0.88540  0.28240  Biso   1.000  C
  N13      1.0000 0.65910  0.01870  0.37094  Biso   1.000  N
  N14      1.0000 0.66581  0.87890  0.30201  Biso   1.000  N
  C98      1.0000 0.68191  0.94760  0.34641  Biso   1.000  C
  N15      1.0000 0.59817  0.95030  0.30443  Biso   1.000  N
  C99      1.0000 0.61752  0.01550  0.34830  Biso   1.000  C
  O25      1.0000 0.88175  0.82010  0.43281  Biso   1.000  O
  O26      1.0000 0.52245  0.40340  0.47057  Biso   1.000  O
  O27      1.0000 0.47552  0.23820  0.44568  Biso   1.000  O
  O28      1.0000 0.87905  0.99850  0.48023  Biso   1.000  O
  C100     1.0000 0.86168  0.91460  0.44512  Biso   1.000  C
  C101     1.0000 0.53853  0.21990  0.42187  Biso   1.000  C
  C102     1.0000 0.51056  0.29180  0.44794  Biso   1.000  C
  C103     1.0000 0.60638  0.18990  0.40910  Biso   1.000  C
  H49      1.0000 0.63550  0.21330  0.41730  Biso   1.000  H
  C104     1.0000 0.72829  0.94250  0.37022  Biso   1.000  C
  C105     1.0000 0.81524  0.92910  0.41788  Biso   1.000  C
  C106     1.0000 0.58087  0.25910  0.43230  Biso   1.000  C
  H50      1.0000 0.59200  0.33300  0.45530  Biso   1.000  H
  C107     1.0000 0.52246  0.11520  0.38770  Biso   1.000  C
  H51      1.0000 0.49380  0.08770  0.38110  Biso   1.000  H
  C108     1.0000 0.75275  0.85670  0.35150  Biso   1.000  C
  H52      1.0000 0.74010  0.80240  0.32190  Biso   1.000  H
  O29      1.0000 0.56032  0.52500  0.07557  Biso   1.000  O
  O30      1.0000 0.50814  0.67890  0.06295  Biso   1.000  O
  C109     1.0000 0.54269  0.62500  0.08808  Biso   1.000  C
  C110     1.0000 0.60569  0.65850  0.16659  Biso   1.000  C
  H53      1.0000 0.62050  0.59140  0.15340  Biso   1.000  H
  C111     1.0000 0.79637  0.84840  0.37570  Biso   1.000  C
  H54      1.0000 0.81310  0.78680  0.36290  Biso   1.000  H
  C112     1.0000 0.58996  0.08720  0.37430  Biso   1.000  C
  C113     1.0000 0.56439  0.69270  0.13918  Biso   1.000  C
  C114     1.0000 0.74708  0.02610  0.41220  Biso   1.000  C
  H55      1.0000 0.73020  0.08750  0.42470  Biso   1.000  H
  C115     1.0000 0.79061  0.02040  0.43610  Biso   1.000  C
  H56      1.0000 0.80350  0.07810  0.46470  Biso   1.000  H
  C116     1.0000 0.54747  0.05020  0.36300  Biso   1.000  C
  H57      1.0000 0.53590  0.98040  0.33840  Biso   1.000  H
  C117     1.0000 0.62539  0.72190  0.21320  Biso   1.000  C
  H58      1.0000 0.65390  0.69960  0.23150  Biso   1.000  H
  C118     1.0000 0.54292  0.79070  0.15810  Biso   1.000  C
  H59      1.0000 0.51480  0.81550  0.13900  Biso   1.000  H
  C119     1.0000 0.60375  0.81710  0.23300  Biso   1.000  C
  C120     1.0000 0.56223  0.85270  0.20480  Biso   1.000  C
  H60      1.0000 0.54730  0.91970  0.21790  Biso   1.000  H
  Tb6      1.0000 0.44772  0.38686  0.49762  Biso   1.000  Tb
  C121     1.0000 0.12358  0.38540  0.28240  Biso   1.000  C
  N16      1.0000 0.15910  0.51870  0.37094  Biso   1.000  N
  N17      1.0000 0.16581  0.37890  0.30201  Biso   1.000  N
  C122     1.0000 0.18191  0.44760  0.34641  Biso   1.000  C
  N18      1.0000 0.09817  0.45030  0.30443  Biso   1.000  N
  C123     1.0000 0.11752  0.51550  0.34830  Biso   1.000  C
  O31      1.0000 0.38175  0.32010  0.43281  Biso   1.000  O
  O32      1.0000 0.02245  0.90340  0.47057  Biso   1.000  O
  O33      1.0000 0.97552  0.73820  0.44568  Biso   1.000  O
  O34      1.0000 0.37905  0.49850  0.48023  Biso   1.000  O
  C124     1.0000 0.36168  0.41460  0.44512  Biso   1.000  C
  C125     1.0000 0.03853  0.71990  0.42187  Biso   1.000  C
  C126     1.0000 0.01056  0.79180  0.44794  Biso   1.000  C
  C127     1.0000 0.10638  0.68990  0.40910  Biso   1.000  C
  H61      1.0000 0.13550  0.71330  0.41730  Biso   1.000  H
  C128     1.0000 0.22829  0.44250  0.37022  Biso   1.000  C
  C129     1.0000 0.31524  0.42910  0.41788  Biso   1.000  C
  C130     1.0000 0.08087  0.75910  0.43230  Biso   1.000  C
  H62      1.0000 0.09200  0.83300  0.45530  Biso   1.000  H
  C131     1.0000 0.02246  0.61520  0.38770  Biso   1.000  C
  H63      1.0000 0.99380  0.58770  0.38110  Biso   1.000  H
  C132     1.0000 0.25275  0.35670  0.35150  Biso   1.000  C
  H64      1.0000 0.24010  0.30240  0.32190  Biso   1.000  H
  O35      1.0000 0.06032  0.02500  0.07557  Biso   1.000  O
  O36      1.0000 0.00814  0.17890  0.06295  Biso   1.000  O
  C133     1.0000 0.04269  0.12500  0.08808  Biso   1.000  C
  C134     1.0000 0.10569  0.15850  0.16659  Biso   1.000  C
  H65      1.0000 0.12050  0.09140  0.15340  Biso   1.000  H
  C135     1.0000 0.29637  0.34840  0.37570  Biso   1.000  C
  H66      1.0000 0.31310  0.28680  0.36290  Biso   1.000  H
  C136     1.0000 0.08996  0.58720  0.37430  Biso   1.000  C
  C137     1.0000 0.06439  0.19270  0.13918  Biso   1.000  C
  C138     1.0000 0.24708  0.52610  0.41220  Biso   1.000  C
  H67      1.0000 0.23020  0.58750  0.42470  Biso   1.000  H
  C139     1.0000 0.29061  0.52040  0.43610  Biso   1.000  C
  H68      1.0000 0.30350  0.57810  0.46470  Biso   1.000  H
  C140     1.0000 0.04747  0.55020  0.36300  Biso   1.000  C
  H69      1.0000 0.03590  0.48040  0.33840  Biso   1.000  H
  C141     1.0000 0.12539  0.22190  0.21320  Biso   1.000  C
  H70      1.0000 0.15390  0.19960  0.23150  Biso   1.000  H
  C142     1.0000 0.04292  0.29070  0.15810  Biso   1.000  C
  H71      1.0000 0.01480  0.31550  0.13900  Biso   1.000  H
  C143     1.0000 0.10375  0.31710  0.23300  Biso   1.000  C
  C144     1.0000 0.06223  0.35270  0.20480  Biso   1.000  C
  H72      1.0000 0.04730  0.41970  0.21790  Biso   1.000  H
  Tb7      1.0000 0.05228  0.88686  0.00238  Biso   1.000  Tb
  C145     1.0000 0.37642  0.88540  0.21760  Biso   1.000  C
  N19      1.0000 0.34090  0.01870  0.12906  Biso   1.000  N
  N20      1.0000 0.33419  0.87890  0.19799  Biso   1.000  N
  C146     1.0000 0.31809  0.94760  0.15359  Biso   1.000  C
  N21      1.0000 0.40183  0.95030  0.19557  Biso   1.000  N
  C147     1.0000 0.38248  0.01550  0.15170  Biso   1.000  C
  O37      1.0000 0.11825  0.82010  0.06719  Biso   1.000  O
  O38      1.0000 0.47755  0.40340  0.02943  Biso   1.000  O
  O39      1.0000 0.52448  0.23820  0.05432  Biso   1.000  O
  O40      1.0000 0.12095  0.99850  0.01977  Biso   1.000  O
  C148     1.0000 0.13832  0.91460  0.05488  Biso   1.000  C
  C149     1.0000 0.46147  0.21990  0.07813  Biso   1.000  C
  C150     1.0000 0.48944  0.29180  0.05206  Biso   1.000  C
  C151     1.0000 0.39362  0.18990  0.09090  Biso   1.000  C
  H73      1.0000 0.36450  0.21330  0.08270  Biso   1.000  H
  C152     1.0000 0.27171  0.94250  0.12978  Biso   1.000  C
  C153     1.0000 0.18476  0.92910  0.08212  Biso   1.000  C
  C154     1.0000 0.41913  0.25910  0.06770  Biso   1.000  C
  H74      1.0000 0.40800  0.33300  0.04470  Biso   1.000  H
  C155     1.0000 0.47754  0.11520  0.11230  Biso   1.000  C
  H75      1.0000 0.50620  0.08770  0.11890  Biso   1.000  H
  C156     1.0000 0.24725  0.85670  0.14850  Biso   1.000  C
  H76      1.0000 0.25990  0.80240  0.17810  Biso   1.000  H
  O41      1.0000 0.43968  0.52500  0.42443  Biso   1.000  O
  O42      1.0000 0.49186  0.67890  0.43705  Biso   1.000  O
  C157     1.0000 0.45731  0.62500  0.41192  Biso   1.000  C
  C158     1.0000 0.39431  0.65850  0.33341  Biso   1.000  C
  H77      1.0000 0.37950  0.59140  0.34660  Biso   1.000  H
  C159     1.0000 0.20363  0.84840  0.12430  Biso   1.000  C
  H78      1.0000 0.18690  0.78680  0.13710  Biso   1.000  H
  C160     1.0000 0.41004  0.08720  0.12570  Biso   1.000  C
  C161     1.0000 0.43561  0.69270  0.36082  Biso   1.000  C
  C162     1.0000 0.25292  0.02610  0.08780  Biso   1.000  C
  H79      1.0000 0.26980  0.08750  0.07530  Biso   1.000  H
  C163     1.0000 0.20939  0.02040  0.06390  Biso   1.000  C
  H80      1.0000 0.19650  0.07810  0.03530  Biso   1.000  H
  C164     1.0000 0.45253  0.05020  0.13700  Biso   1.000  C
  H81      1.0000 0.46410  0.98040  0.16160  Biso   1.000  H
  C165     1.0000 0.37461  0.72190  0.28680  Biso   1.000  C
  H82      1.0000 0.34610  0.69960  0.26850  Biso   1.000  H
  C166     1.0000 0.45708  0.79070  0.34190  Biso   1.000  C
  H83      1.0000 0.48520  0.81550  0.36100  Biso   1.000  H
  C167     1.0000 0.39625  0.81710  0.26700  Biso   1.000  C
  C168     1.0000 0.43777  0.85270  0.29520  Biso   1.000  C
  H84      1.0000 0.45270  0.91970  0.28210  Biso   1.000  H
  Tb8      1.0000 0.55228  0.38686  0.00238  Biso   1.000  Tb
  C169     1.0000 0.87642  0.38540  0.21760  Biso   1.000  C
  N22      1.0000 0.84090  0.51870  0.12906  Biso   1.000  N
  N23      1.0000 0.83419  0.37890  0.19799  Biso   1.000  N
  C170     1.0000 0.81809  0.44760  0.15359  Biso   1.000  C
  N24      1.0000 0.90183  0.45030  0.19557  Biso   1.000  N
  C171     1.0000 0.88248  0.51550  0.15170  Biso   1.000  C
  O43      1.0000 0.61825  0.32010  0.06719  Biso   1.000  O
  O44      1.0000 0.97755  0.90340  0.02943  Biso   1.000  O
  O45      1.0000 0.02448  0.73820  0.05432  Biso   1.000  O
  O46      1.0000 0.62095  0.49850  0.01977  Biso   1.000  O
  C172     1.0000 0.63832  0.41460  0.05488  Biso   1.000  C
  C173     1.0000 0.96147  0.71990  0.07813  Biso   1.000  C
  C174     1.0000 0.98944  0.79180  0.05206  Biso   1.000  C
  C175     1.0000 0.89362  0.68990  0.09090  Biso   1.000  C
  H85      1.0000 0.86450  0.71330  0.08270  Biso   1.000  H
  C176     1.0000 0.77171  0.44250  0.12978  Biso   1.000  C
  C177     1.0000 0.68476  0.42910  0.08212  Biso   1.000  C
  C178     1.0000 0.91913  0.75910  0.06770  Biso   1.000  C
  H86      1.0000 0.90800  0.83300  0.04470  Biso   1.000  H
  C179     1.0000 0.97754  0.61520  0.11230  Biso   1.000  C
  H87      1.0000 0.00620  0.58770  0.11890  Biso   1.000  H
  C180     1.0000 0.74725  0.35670  0.14850  Biso   1.000  C
  H88      1.0000 0.75990  0.30240  0.17810  Biso   1.000  H
  O47      1.0000 0.93968  0.02500  0.42443  Biso   1.000  O
  O48      1.0000 0.99186  0.17890  0.43705  Biso   1.000  O
  C181     1.0000 0.95731  0.12500  0.41192  Biso   1.000  C
  C182     1.0000 0.89431  0.15850  0.33341  Biso   1.000  C
  H89      1.0000 0.87950  0.09140  0.34660  Biso   1.000  H
  C183     1.0000 0.70363  0.34840  0.12430  Biso   1.000  C
  H90      1.0000 0.68690  0.28680  0.13710  Biso   1.000  H
  C184     1.0000 0.91004  0.58720  0.12570  Biso   1.000  C
  C185     1.0000 0.93561  0.19270  0.36082  Biso   1.000  C
  C186     1.0000 0.75292  0.52610  0.08780  Biso   1.000  C
  H91      1.0000 0.76980  0.58750  0.07530  Biso   1.000  H
  C187     1.0000 0.70939  0.52040  0.06390  Biso   1.000  C
  H92      1.0000 0.69650  0.57810  0.03530  Biso   1.000  H
  C188     1.0000 0.95253  0.55020  0.13700  Biso   1.000  C
  H93      1.0000 0.96410  0.48040  0.16160  Biso   1.000  H
  C189     1.0000 0.87461  0.22190  0.28680  Biso   1.000  C
  H94      1.0000 0.84610  0.19960  0.26850  Biso   1.000  H
  C190     1.0000 0.95708  0.29070  0.34190  Biso   1.000  C
  H95      1.0000 0.98520  0.31550  0.36100  Biso   1.000  H
  C191     1.0000 0.89625  0.31710  0.26700  Biso   1.000  C
  C192     1.0000 0.93777  0.35270  0.29520  Biso   1.000  C
  H96      1.0000 0.95270  0.41970  0.28210  Biso   1.000  H
