data_image0
_cell_length_a       16.285
_cell_length_b       11.9314
_cell_length_c       12.2099
_cell_angle_alpha    90
_cell_angle_beta     90
_cell_angle_gamma    90

_symmetry_space_group_name_H-M    "P 1"
_symmetry_int_tables_number       1

loop_
  _symmetry_equiv_pos_as_xyz
  'x, y, z'

loop_
  _atom_site_label
  _atom_site_occupancy
  _atom_site_fract_x
  _atom_site_fract_y
  _atom_site_fract_z
  _atom_site_thermal_displace_type
  _atom_site_B_iso_or_equiv
  _atom_site_type_symbol
  Eu1      1.0000 0.97045  0.16060  0.28216  Biso   1.000  Eu
  Br1      1.0000 0.96990  0.19500  0.51500  Biso   1.000  Br
  Cl1      1.0000 0.98730  0.20450  0.50000  Biso   1.000  Cl
  S1       1.0000 0.79013  0.52080  0.52090  Biso   1.000  S
  O1       1.0000 0.91650  0.35300  0.30200  Biso   1.000  O
  O2       1.0000 0.92270  0.73590  0.21530  Biso   1.000  O
  C1       1.0000 0.65090  0.50300  0.64170  Biso   1.000  C
  O3       1.0000 0.66840  0.59950  0.67760  Biso   1.000  O
  O4       1.0000 0.58060  0.46190  0.65870  Biso   1.000  O
  O5       1.0000 0.91400  0.52840  0.35740  Biso   1.000  O
  C2       1.0000 0.87240  0.68870  0.15340  Biso   1.000  C
  O6       1.0000 0.87590  0.58680  0.12820  Biso   1.000  O
  C3       1.0000 0.70900  0.44480  0.57160  Biso   1.000  C
  C4       1.0000 0.82000  0.40970  0.44290  Biso   1.000  C
  C5       1.0000 0.88820  0.42960  0.36530  Biso   1.000  C
  C6       1.0000 0.70650  0.33940  0.52850  Biso   1.000  C
  H1       1.0000 0.66580  0.28540  0.54650  Biso   1.000  H
  C7       1.0000 0.80210  0.75300  0.10850  Biso   1.000  C
  S2       1.0000 0.73328  0.68540  0.02360  Biso   1.000  S
  O7       1.0000 0.55560  0.88520  0.94110  Biso   1.000  O
  O8       1.0000 0.59440  0.71800  0.88130  Biso   1.000  O
  C8       1.0000 0.60330  0.80410  0.93650  Biso   1.000  C
  C9       1.0000 0.71080  0.89390  0.06460  Biso   1.000  C
  H2       1.0000 0.68840  0.96740  0.06600  Biso   1.000  H
  C10      1.0000 0.67620  0.80520  0.00850  Biso   1.000  C
  C11      1.0000 0.77100  0.31970  0.45430  Biso   1.000  C
  H3       1.0000 0.77910  0.25090  0.41670  Biso   1.000  H
  C12      1.0000 0.78350  0.86220  0.11980  Biso   1.000  C
  H4       1.0000 0.81620  0.91310  0.16080  Biso   1.000  H
  Eu2      1.0000 0.02955  0.83940  0.28216  Biso   1.000  Eu
  Br2      1.0000 0.03010  0.80500  0.51500  Biso   1.000  Br
  Cl2      1.0000 0.01270  0.79550  0.50000  Biso   1.000  Cl
  S3       1.0000 0.20987  0.47920  0.52090  Biso   1.000  S
  O9       1.0000 0.08350  0.64700  0.30200  Biso   1.000  O
  O10      1.0000 0.07730  0.26410  0.21530  Biso   1.000  O
  C13      1.0000 0.34910  0.49700  0.64170  Biso   1.000  C
  O11      1.0000 0.33160  0.40050  0.67760  Biso   1.000  O
  O12      1.0000 0.41940  0.53810  0.65870  Biso   1.000  O
  O13      1.0000 0.08600  0.47160  0.35740  Biso   1.000  O
  C14      1.0000 0.12760  0.31130  0.15340  Biso   1.000  C
  O14      1.0000 0.12410  0.41320  0.12820  Biso   1.000  O
  C15      1.0000 0.29100  0.55520  0.57160  Biso   1.000  C
  C16      1.0000 0.18000  0.59030  0.44290  Biso   1.000  C
  C17      1.0000 0.11180  0.57040  0.36530  Biso   1.000  C
  C18      1.0000 0.29350  0.66060  0.52850  Biso   1.000  C
  H5       1.0000 0.33420  0.71460  0.54650  Biso   1.000  H
  C19      1.0000 0.19790  0.24700  0.10850  Biso   1.000  C
  S4       1.0000 0.26672  0.31460  0.02360  Biso   1.000  S
  O15      1.0000 0.44440  0.11480  0.94110  Biso   1.000  O
  O16      1.0000 0.40560  0.28200  0.88130  Biso   1.000  O
  C20      1.0000 0.39670  0.19590  0.93650  Biso   1.000  C
  C21      1.0000 0.28920  0.10610  0.06460  Biso   1.000  C
  H6       1.0000 0.31160  0.03260  0.06600  Biso   1.000  H
  C22      1.0000 0.32380  0.19480  0.00850  Biso   1.000  C
  C23      1.0000 0.22900  0.68030  0.45430  Biso   1.000  C
  H7       1.0000 0.22090  0.74910  0.41670  Biso   1.000  H
  C24      1.0000 0.21650  0.13780  0.11980  Biso   1.000  C
  H8       1.0000 0.18380  0.08690  0.16080  Biso   1.000  H
  Eu3      1.0000 0.52955  0.66060  0.71784  Biso   1.000  Eu
  Br3      1.0000 0.53010  0.69500  0.48500  Biso   1.000  Br
  Cl3      1.0000 0.51270  0.70450  0.50000  Biso   1.000  Cl
  S5       1.0000 0.70987  0.02080  0.47910  Biso   1.000  S
  O17      1.0000 0.58350  0.85300  0.69800  Biso   1.000  O
  O18      1.0000 0.57730  0.23590  0.78470  Biso   1.000  O
  C25      1.0000 0.84910  0.00300  0.35830  Biso   1.000  C
  O19      1.0000 0.83160  0.09950  0.32240  Biso   1.000  O
  O20      1.0000 0.91940  0.96190  0.34130  Biso   1.000  O
  O21      1.0000 0.58600  0.02840  0.64260  Biso   1.000  O
  C26      1.0000 0.62760  0.18870  0.84660  Biso   1.000  C
  O22      1.0000 0.62410  0.08680  0.87180  Biso   1.000  O
  C27      1.0000 0.79100  0.94480  0.42840  Biso   1.000  C
  C28      1.0000 0.68000  0.90970  0.55710  Biso   1.000  C
  C29      1.0000 0.61180  0.92960  0.63470  Biso   1.000  C
  C30      1.0000 0.79350  0.83940  0.47150  Biso   1.000  C
  H9       1.0000 0.83420  0.78540  0.45350  Biso   1.000  H
  C31      1.0000 0.69790  0.25300  0.89150  Biso   1.000  C
  S6       1.0000 0.76672  0.18540  0.97640  Biso   1.000  S
  O23      1.0000 0.94440  0.38520  0.05890  Biso   1.000  O
  O24      1.0000 0.90560  0.21800  0.11870  Biso   1.000  O
  C32      1.0000 0.89670  0.30410  0.06350  Biso   1.000  C
  C33      1.0000 0.78920  0.39390  0.93540  Biso   1.000  C
  H10      1.0000 0.81160  0.46740  0.93400  Biso   1.000  H
  C34      1.0000 0.82380  0.30520  0.99150  Biso   1.000  C
  C35      1.0000 0.72900  0.81970  0.54570  Biso   1.000  C
  H11      1.0000 0.72090  0.75090  0.58330  Biso   1.000  H
  C36      1.0000 0.71650  0.36220  0.88020  Biso   1.000  C
  H12      1.0000 0.68380  0.41310  0.83920  Biso   1.000  H
  Eu4      1.0000 0.47045  0.33940  0.71784  Biso   1.000  Eu
  Br4      1.0000 0.46990  0.30500  0.48500  Biso   1.000  Br
  Cl4      1.0000 0.48730  0.29550  0.50000  Biso   1.000  Cl
  S7       1.0000 0.29013  0.97920  0.47910  Biso   1.000  S
  O25      1.0000 0.41650  0.14700  0.69800  Biso   1.000  O
  O26      1.0000 0.42270  0.76410  0.78470  Biso   1.000  O
  C37      1.0000 0.15090  0.99700  0.35830  Biso   1.000  C
  O27      1.0000 0.16840  0.90050  0.32240  Biso   1.000  O
  O28      1.0000 0.08060  0.03810  0.34130  Biso   1.000  O
  O29      1.0000 0.41400  0.97160  0.64260  Biso   1.000  O
  C38      1.0000 0.37240  0.81130  0.84660  Biso   1.000  C
  O30      1.0000 0.37590  0.91320  0.87180  Biso   1.000  O
  C39      1.0000 0.20900  0.05520  0.42840  Biso   1.000  C
  C40      1.0000 0.32000  0.09030  0.55710  Biso   1.000  C
  C41      1.0000 0.38820  0.07040  0.63470  Biso   1.000  C
  C42      1.0000 0.20650  0.16060  0.47150  Biso   1.000  C
  H13      1.0000 0.16580  0.21460  0.45350  Biso   1.000  H
  C43      1.0000 0.30210  0.74700  0.89150  Biso   1.000  C
  S8       1.0000 0.23328  0.81460  0.97640  Biso   1.000  S
  O31      1.0000 0.05560  0.61480  0.05890  Biso   1.000  O
  O32      1.0000 0.09440  0.78200  0.11870  Biso   1.000  O
  C44      1.0000 0.10330  0.69590  0.06350  Biso   1.000  C
  C45      1.0000 0.21080  0.60610  0.93540  Biso   1.000  C
  H14      1.0000 0.18840  0.53260  0.93400  Biso   1.000  H
  C46      1.0000 0.17620  0.69480  0.99150  Biso   1.000  C
  C47      1.0000 0.27100  0.18030  0.54570  Biso   1.000  C
  H15      1.0000 0.27910  0.24910  0.58330  Biso   1.000  H
  C48      1.0000 0.28350  0.63780  0.88020  Biso   1.000  C
  H16      1.0000 0.31620  0.58690  0.83920  Biso   1.000  H
  Eu5      1.0000 0.00000  0.50000  0.19727  Biso   1.000  Eu
  Eu6      1.0000 0.50000  0.00000  0.80273  Biso   1.000  Eu
  Cl5      1.0000 0.00000  0.00000  0.11970  Biso   1.000  Cl
  Cl6      1.0000 0.50000  0.50000  0.88030  Biso   1.000  Cl
