data_image0
_cell_length_a       8.1737
_cell_length_b       15.0092
_cell_length_c       37.574
_cell_angle_alpha    90
_cell_angle_beta     101.828
_cell_angle_gamma    90

_symmetry_space_group_name_H-M    "P 1"
_symmetry_int_tables_number       1

loop_
  _symmetry_equiv_pos_as_xyz
  'x, y, z'

loop_
  _atom_site_label
  _atom_site_occupancy
  _atom_site_fract_x
  _atom_site_fract_y
  _atom_site_fract_z
  _atom_site_thermal_displace_type
  _atom_site_B_iso_or_equiv
  _atom_site_type_symbol
  Eu1      1.0000 0.31991  0.09839  0.98555  Biso   1.000  Eu
  O1       1.0000 0.14980  0.08960  0.03367  Biso   1.000  O
  O2       1.0000 0.38960  0.24030  0.95459  Biso   1.000  O
  O3       1.0000 0.26550  0.21800  0.02674  Biso   1.000  O
  O4       1.0000 0.49650  0.02650  0.46520  Biso   1.000  O
  O5       1.0000 0.58850  0.17010  0.99217  Biso   1.000  O
  N1       1.0000 0.04540  0.47510  0.95270  Biso   1.000  N
  C1       1.0000 0.10740  0.20680  0.07340  Biso   1.000  C
  C2       1.0000 0.83040  0.29090  0.98250  Biso   1.000  C
  H1       1.0000 0.86190  0.24510  0.99910  Biso   1.000  H
  C3       1.0000 0.54260  0.23360  0.97020  Biso   1.000  C
  N2       1.0000 0.93250  0.14930  0.15413  Biso   1.000  N
  H2       1.0000 0.92280  0.09340  0.15820  Biso   1.000  H
  C4       1.0000 0.66820  0.29870  0.96340  Biso   1.000  C
  N3       1.0000 0.11350  0.36220  0.99112  Biso   1.000  N
  N4       1.0000 0.92500  0.29740  0.16173  Biso   1.000  N
  C5       1.0000 0.94420  0.35320  0.97610  Biso   1.000  C
  C6       1.0000 0.38900  0.54600  0.97340  Biso   1.000  C
  H3       1.0000 0.31540  0.57710  0.95550  Biso   1.000  H
  C7       1.0000 0.17710  0.16980  0.04310  Biso   1.000  C
  O6       1.0000 0.34600  0.94400  0.42256  Biso   1.000  O
  C8       1.0000 0.54360  0.19310  0.35370  Biso   1.000  C
  N5       1.0000 0.61470  0.08710  0.31743  Biso   1.000  N
  H4       1.0000 0.63230  0.03640  0.30820  Biso   1.000  H
  N6       1.0000 0.59920  0.23500  0.32540  Biso   1.000  N
  C9       1.0000 0.50880  0.04260  0.37290  Biso   1.000  C
  H5       1.0000 0.50870  0.98150  0.36880  Biso   1.000  H
  C10      1.0000 0.99010  0.18730  0.12560  Biso   1.000  C
  C11      1.0000 0.55490  0.10170  0.34850  Biso   1.000  C
  C12      1.0000 0.82900  0.20470  0.20800  Biso   1.000  C
  C13      1.0000 0.43350  0.01280  0.43150  Biso   1.000  C
  C14      1.0000 0.16610  0.43610  0.97600  Biso   1.000  C
  C15      1.0000 0.46340  0.07610  0.40330  Biso   1.000  C
  C16      1.0000 0.90330  0.42410  0.95210  Biso   1.000  C
  C17      1.0000 0.89510  0.21680  0.17420  Biso   1.000  C
  C18      1.0000 0.04870  0.14990  0.09690  Biso   1.000  C
  H6       1.0000 0.04860  0.08850  0.09360  Biso   1.000  H
  C19      1.0000 0.74390  0.10900  0.25200  Biso   1.000  C
  H7       1.0000 0.72870  0.05190  0.26040  Biso   1.000  H
  C20      1.0000 0.98670  0.27830  0.13090  Biso   1.000  C
  C21      1.0000 0.45290  0.16850  0.40860  Biso   1.000  C
  H8       1.0000 0.42020  0.18930  0.42940  Biso   1.000  H
  C22      1.0000 0.10390  0.29930  0.07860  Biso   1.000  C
  H9       1.0000 0.14390  0.33680  0.06270  Biso   1.000  H
  C23      1.0000 0.49010  0.22900  0.38370  Biso   1.000  C
  H10      1.0000 0.48000  0.29010  0.38670  Biso   1.000  H
  C24      1.0000 0.63970  0.16650  0.30470  Biso   1.000  C
  C25      1.0000 0.62470  0.36960  0.93820  Biso   1.000  C
  H11      1.0000 0.51530  0.37400  0.92510  Biso   1.000  H
  C26      1.0000 0.04220  0.33580  0.10700  Biso   1.000  C
  H12      1.0000 0.03800  0.39720  0.10990  Biso   1.000  H
  C27      1.0000 0.70700  0.18170  0.27120  Biso   1.000  C
  C28      1.0000 0.80420  0.12010  0.22000  Biso   1.000  C
  H13      1.0000 0.82720  0.07070  0.20690  Biso   1.000  H
  C29      1.0000 0.74140  0.43240  0.93250  Biso   1.000  C
  H14      1.0000 0.71140  0.47880  0.91610  Biso   1.000  H
  C30      1.0000 0.45100  0.42360  0.01470  Biso   1.000  C
  H15      1.0000 0.41770  0.37150  0.02460  Biso   1.000  H
  C31      1.0000 0.33700  0.46870  0.98810  Biso   1.000  C
  C32      1.0000 0.79170  0.27560  0.22740  Biso   1.000  C
  H16      1.0000 0.80640  0.33270  0.21890  Biso   1.000  H
  C33      1.0000 0.73360  0.26640  0.25880  Biso   1.000  C
  H17      1.0000 0.71210  0.31640  0.27170  Biso   1.000  H
  H18      1.0000 0.05300  0.52250  0.94030  Biso   1.000  H
  Eu2      1.0000 0.68009  0.09839  0.51446  Biso   1.000  Eu
  O7       1.0000 0.85020  0.08960  0.46633  Biso   1.000  O
  O8       1.0000 0.61040  0.24030  0.54541  Biso   1.000  O
  O9       1.0000 0.73450  0.21800  0.47326  Biso   1.000  O
  O10      1.0000 0.50350  0.02650  0.03480  Biso   1.000  O
  O11      1.0000 0.41150  0.17010  0.50783  Biso   1.000  O
  N7       1.0000 0.95460  0.47510  0.54730  Biso   1.000  N
  C34      1.0000 0.89260  0.20680  0.42660  Biso   1.000  C
  C35      1.0000 0.16960  0.29090  0.51750  Biso   1.000  C
  H19      1.0000 0.13810  0.24510  0.50090  Biso   1.000  H
  C36      1.0000 0.45740  0.23360  0.52980  Biso   1.000  C
  N8       1.0000 0.06750  0.14930  0.34587  Biso   1.000  N
  H20      1.0000 0.07720  0.09340  0.34180  Biso   1.000  H
  C37      1.0000 0.33180  0.29870  0.53660  Biso   1.000  C
  N9       1.0000 0.88650  0.36220  0.50888  Biso   1.000  N
  N10      1.0000 0.07500  0.29740  0.33827  Biso   1.000  N
  C38      1.0000 0.05580  0.35320  0.52390  Biso   1.000  C
  C39      1.0000 0.61100  0.54600  0.52660  Biso   1.000  C
  H21      1.0000 0.68460  0.57710  0.54450  Biso   1.000  H
  C40      1.0000 0.82290  0.16980  0.45690  Biso   1.000  C
  O12      1.0000 0.65400  0.94400  0.07744  Biso   1.000  O
  C41      1.0000 0.45640  0.19310  0.14630  Biso   1.000  C
  N11      1.0000 0.38530  0.08710  0.18257  Biso   1.000  N
  H22      1.0000 0.36770  0.03640  0.19180  Biso   1.000  H
  N12      1.0000 0.40080  0.23500  0.17460  Biso   1.000  N
  C42      1.0000 0.49120  0.04260  0.12710  Biso   1.000  C
  H23      1.0000 0.49130  0.98150  0.13120  Biso   1.000  H
  C43      1.0000 0.00990  0.18730  0.37440  Biso   1.000  C
  C44      1.0000 0.44510  0.10170  0.15150  Biso   1.000  C
  C45      1.0000 0.17100  0.20470  0.29200  Biso   1.000  C
  C46      1.0000 0.56650  0.01280  0.06850  Biso   1.000  C
  C47      1.0000 0.83390  0.43610  0.52400  Biso   1.000  C
  C48      1.0000 0.53660  0.07610  0.09670  Biso   1.000  C
  C49      1.0000 0.09670  0.42410  0.54790  Biso   1.000  C
  C50      1.0000 0.10490  0.21680  0.32580  Biso   1.000  C
  C51      1.0000 0.95130  0.14990  0.40310  Biso   1.000  C
  H24      1.0000 0.95140  0.08850  0.40640  Biso   1.000  H
  C52      1.0000 0.25610  0.10900  0.24800  Biso   1.000  C
  H25      1.0000 0.27130  0.05190  0.23960  Biso   1.000  H
  C53      1.0000 0.01330  0.27830  0.36910  Biso   1.000  C
  C54      1.0000 0.54710  0.16850  0.09140  Biso   1.000  C
  H26      1.0000 0.57980  0.18930  0.07060  Biso   1.000  H
  C55      1.0000 0.89610  0.29930  0.42140  Biso   1.000  C
  H27      1.0000 0.85610  0.33680  0.43730  Biso   1.000  H
  C56      1.0000 0.50990  0.22900  0.11630  Biso   1.000  C
  H28      1.0000 0.52000  0.29010  0.11330  Biso   1.000  H
  C57      1.0000 0.36030  0.16650  0.19530  Biso   1.000  C
  C58      1.0000 0.37530  0.36960  0.56180  Biso   1.000  C
  H29      1.0000 0.48470  0.37400  0.57490  Biso   1.000  H
  C59      1.0000 0.95780  0.33580  0.39300  Biso   1.000  C
  H30      1.0000 0.96200  0.39720  0.39010  Biso   1.000  H
  C60      1.0000 0.29300  0.18170  0.22880  Biso   1.000  C
  C61      1.0000 0.19580  0.12010  0.28000  Biso   1.000  C
  H31      1.0000 0.17280  0.07070  0.29310  Biso   1.000  H
  C62      1.0000 0.25860  0.43240  0.56750  Biso   1.000  C
  H32      1.0000 0.28860  0.47880  0.58390  Biso   1.000  H
  C63      1.0000 0.54900  0.42360  0.48530  Biso   1.000  C
  H33      1.0000 0.58230  0.37150  0.47540  Biso   1.000  H
  C64      1.0000 0.66300  0.46870  0.51190  Biso   1.000  C
  C65      1.0000 0.20830  0.27560  0.27260  Biso   1.000  C
  H34      1.0000 0.19360  0.33270  0.28110  Biso   1.000  H
  C66      1.0000 0.26640  0.26640  0.24120  Biso   1.000  C
  H35      1.0000 0.28790  0.31640  0.22830  Biso   1.000  H
  H36      1.0000 0.94700  0.52250  0.55970  Biso   1.000  H
  Eu3      1.0000 0.68009  0.90161  0.01445  Biso   1.000  Eu
  O13      1.0000 0.85020  0.91040  0.96633  Biso   1.000  O
  O14      1.0000 0.61040  0.75970  0.04541  Biso   1.000  O
  O15      1.0000 0.73450  0.78200  0.97326  Biso   1.000  O
  O16      1.0000 0.50350  0.97350  0.53480  Biso   1.000  O
  O17      1.0000 0.41150  0.82990  0.00783  Biso   1.000  O
  N13      1.0000 0.95460  0.52490  0.04730  Biso   1.000  N
  C67      1.0000 0.89260  0.79320  0.92660  Biso   1.000  C
  C68      1.0000 0.16960  0.70910  0.01750  Biso   1.000  C
  H37      1.0000 0.13810  0.75490  0.00090  Biso   1.000  H
  C69      1.0000 0.45740  0.76640  0.02980  Biso   1.000  C
  N14      1.0000 0.06750  0.85070  0.84587  Biso   1.000  N
  H38      1.0000 0.07720  0.90660  0.84180  Biso   1.000  H
  C70      1.0000 0.33180  0.70130  0.03660  Biso   1.000  C
  N15      1.0000 0.88650  0.63780  0.00888  Biso   1.000  N
  N16      1.0000 0.07500  0.70260  0.83827  Biso   1.000  N
  C71      1.0000 0.05580  0.64680  0.02390  Biso   1.000  C
  C72      1.0000 0.61100  0.45400  0.02660  Biso   1.000  C
  H39      1.0000 0.68460  0.42290  0.04450  Biso   1.000  H
  C73      1.0000 0.82290  0.83020  0.95690  Biso   1.000  C
  O18      1.0000 0.65400  0.05600  0.57744  Biso   1.000  O
  C74      1.0000 0.45640  0.80690  0.64630  Biso   1.000  C
  N17      1.0000 0.38530  0.91290  0.68257  Biso   1.000  N
  H40      1.0000 0.36770  0.96360  0.69180  Biso   1.000  H
  N18      1.0000 0.40080  0.76500  0.67460  Biso   1.000  N
  C75      1.0000 0.49120  0.95740  0.62710  Biso   1.000  C
  H41      1.0000 0.49130  0.01850  0.63120  Biso   1.000  H
  C76      1.0000 0.00990  0.81270  0.87440  Biso   1.000  C
  C77      1.0000 0.44510  0.89830  0.65150  Biso   1.000  C
  C78      1.0000 0.17100  0.79530  0.79200  Biso   1.000  C
  C79      1.0000 0.56650  0.98720  0.56850  Biso   1.000  C
  C80      1.0000 0.83390  0.56390  0.02400  Biso   1.000  C
  C81      1.0000 0.53660  0.92390  0.59670  Biso   1.000  C
  C82      1.0000 0.09670  0.57590  0.04790  Biso   1.000  C
  C83      1.0000 0.10490  0.78320  0.82580  Biso   1.000  C
  C84      1.0000 0.95130  0.85010  0.90310  Biso   1.000  C
  H42      1.0000 0.95140  0.91150  0.90640  Biso   1.000  H
  C85      1.0000 0.25610  0.89100  0.74800  Biso   1.000  C
  H43      1.0000 0.27130  0.94810  0.73960  Biso   1.000  H
  C86      1.0000 0.01330  0.72170  0.86910  Biso   1.000  C
  C87      1.0000 0.54710  0.83150  0.59140  Biso   1.000  C
  H44      1.0000 0.57980  0.81070  0.57060  Biso   1.000  H
  C88      1.0000 0.89610  0.70070  0.92140  Biso   1.000  C
  H45      1.0000 0.85610  0.66320  0.93730  Biso   1.000  H
  C89      1.0000 0.50990  0.77100  0.61630  Biso   1.000  C
  H46      1.0000 0.52000  0.70990  0.61330  Biso   1.000  H
  C90      1.0000 0.36030  0.83350  0.69530  Biso   1.000  C
  C91      1.0000 0.37530  0.63040  0.06180  Biso   1.000  C
  H47      1.0000 0.48470  0.62600  0.07490  Biso   1.000  H
  C92      1.0000 0.95780  0.66420  0.89300  Biso   1.000  C
  H48      1.0000 0.96200  0.60280  0.89010  Biso   1.000  H
  C93      1.0000 0.29300  0.81830  0.72880  Biso   1.000  C
  C94      1.0000 0.19580  0.87990  0.78000  Biso   1.000  C
  H49      1.0000 0.17280  0.92930  0.79310  Biso   1.000  H
  C95      1.0000 0.25860  0.56760  0.06750  Biso   1.000  C
  H50      1.0000 0.28860  0.52120  0.08390  Biso   1.000  H
  C96      1.0000 0.54900  0.57640  0.98530  Biso   1.000  C
  H51      1.0000 0.58230  0.62850  0.97540  Biso   1.000  H
  C97      1.0000 0.66300  0.53130  0.01190  Biso   1.000  C
  C98      1.0000 0.20830  0.72440  0.77260  Biso   1.000  C
  H52      1.0000 0.19360  0.66730  0.78110  Biso   1.000  H
  C99      1.0000 0.26640  0.73360  0.74120  Biso   1.000  C
  H53      1.0000 0.28790  0.68360  0.72830  Biso   1.000  H
  H54      1.0000 0.94700  0.47750  0.05970  Biso   1.000  H
  Eu4      1.0000 0.31991  0.90161  0.48555  Biso   1.000  Eu
  O19      1.0000 0.14980  0.91040  0.53367  Biso   1.000  O
  O20      1.0000 0.38960  0.75970  0.45459  Biso   1.000  O
  O21      1.0000 0.26550  0.78200  0.52674  Biso   1.000  O
  O22      1.0000 0.49650  0.97350  0.96520  Biso   1.000  O
  O23      1.0000 0.58850  0.82990  0.49217  Biso   1.000  O
  N19      1.0000 0.04540  0.52490  0.45270  Biso   1.000  N
  C100     1.0000 0.10740  0.79320  0.57340  Biso   1.000  C
  C101     1.0000 0.83040  0.70910  0.48250  Biso   1.000  C
  H55      1.0000 0.86190  0.75490  0.49910  Biso   1.000  H
  C102     1.0000 0.54260  0.76640  0.47020  Biso   1.000  C
  N20      1.0000 0.93250  0.85070  0.65413  Biso   1.000  N
  H56      1.0000 0.92280  0.90660  0.65820  Biso   1.000  H
  C103     1.0000 0.66820  0.70130  0.46340  Biso   1.000  C
  N21      1.0000 0.11350  0.63780  0.49112  Biso   1.000  N
  N22      1.0000 0.92500  0.70260  0.66173  Biso   1.000  N
  C104     1.0000 0.94420  0.64680  0.47610  Biso   1.000  C
  C105     1.0000 0.38900  0.45400  0.47340  Biso   1.000  C
  H57      1.0000 0.31540  0.42290  0.45550  Biso   1.000  H
  C106     1.0000 0.17710  0.83020  0.54310  Biso   1.000  C
  O24      1.0000 0.34600  0.05600  0.92256  Biso   1.000  O
  C107     1.0000 0.54360  0.80690  0.85370  Biso   1.000  C
  N23      1.0000 0.61470  0.91290  0.81743  Biso   1.000  N
  H58      1.0000 0.63230  0.96360  0.80820  Biso   1.000  H
  N24      1.0000 0.59920  0.76500  0.82540  Biso   1.000  N
  C108     1.0000 0.50880  0.95740  0.87290  Biso   1.000  C
  H59      1.0000 0.50870  0.01850  0.86880  Biso   1.000  H
  C109     1.0000 0.99010  0.81270  0.62560  Biso   1.000  C
  C110     1.0000 0.55490  0.89830  0.84850  Biso   1.000  C
  C111     1.0000 0.82900  0.79530  0.70800  Biso   1.000  C
  C112     1.0000 0.43350  0.98720  0.93150  Biso   1.000  C
  C113     1.0000 0.16610  0.56390  0.47600  Biso   1.000  C
  C114     1.0000 0.46340  0.92390  0.90330  Biso   1.000  C
  C115     1.0000 0.90330  0.57590  0.45210  Biso   1.000  C
  C116     1.0000 0.89510  0.78320  0.67420  Biso   1.000  C
  C117     1.0000 0.04870  0.85010  0.59690  Biso   1.000  C
  H60      1.0000 0.04860  0.91150  0.59360  Biso   1.000  H
  C118     1.0000 0.74390  0.89100  0.75200  Biso   1.000  C
  H61      1.0000 0.72870  0.94810  0.76040  Biso   1.000  H
  C119     1.0000 0.98670  0.72170  0.63090  Biso   1.000  C
  C120     1.0000 0.45290  0.83150  0.90860  Biso   1.000  C
  H62      1.0000 0.42020  0.81070  0.92940  Biso   1.000  H
  C121     1.0000 0.10390  0.70070  0.57860  Biso   1.000  C
  H63      1.0000 0.14390  0.66320  0.56270  Biso   1.000  H
  C122     1.0000 0.49010  0.77100  0.88370  Biso   1.000  C
  H64      1.0000 0.48000  0.70990  0.88670  Biso   1.000  H
  C123     1.0000 0.63970  0.83350  0.80470  Biso   1.000  C
  C124     1.0000 0.62470  0.63040  0.43820  Biso   1.000  C
  H65      1.0000 0.51530  0.62600  0.42510  Biso   1.000  H
  C125     1.0000 0.04220  0.66420  0.60700  Biso   1.000  C
  H66      1.0000 0.03800  0.60280  0.60990  Biso   1.000  H
  C126     1.0000 0.70700  0.81830  0.77120  Biso   1.000  C
  C127     1.0000 0.80420  0.87990  0.72000  Biso   1.000  C
  H67      1.0000 0.82720  0.92930  0.70690  Biso   1.000  H
  C128     1.0000 0.74140  0.56760  0.43250  Biso   1.000  C
  H68      1.0000 0.71140  0.52120  0.41610  Biso   1.000  H
  C129     1.0000 0.45100  0.57640  0.51470  Biso   1.000  C
  H69      1.0000 0.41770  0.62850  0.52460  Biso   1.000  H
  C130     1.0000 0.33700  0.53130  0.48810  Biso   1.000  C
  C131     1.0000 0.79170  0.72440  0.72740  Biso   1.000  C
  H70      1.0000 0.80640  0.66730  0.71890  Biso   1.000  H
  C132     1.0000 0.73360  0.73360  0.75880  Biso   1.000  C
  H71      1.0000 0.71210  0.68360  0.77170  Biso   1.000  H
  H72      1.0000 0.05300  0.47750  0.44030  Biso   1.000  H
