data_image0
_cell_length_a       29.162
_cell_length_b       21.924
_cell_length_c       14.955
_cell_angle_alpha    90
_cell_angle_beta     103.38
_cell_angle_gamma    90

_symmetry_space_group_name_H-M    "P 1"
_symmetry_int_tables_number       1

loop_
  _symmetry_equiv_pos_as_xyz
  'x, y, z'

loop_
  _atom_site_label
  _atom_site_occupancy
  _atom_site_fract_x
  _atom_site_fract_y
  _atom_site_fract_z
  _atom_site_thermal_displace_type
  _atom_site_B_iso_or_equiv
  _atom_site_type_symbol
  Dy1      1.0000 0.23540  0.75204  0.32745  Biso   1.000  Dy
  Dy2      1.0000 0.73402  0.26331  0.90554  Biso   1.000  Dy
  O1       1.0000 0.80220  0.26670  0.84170  Biso   1.000  O
  O2       1.0000 0.84200  0.22940  0.75040  Biso   1.000  O
  O3       1.0000 0.20180  0.82680  0.88410  Biso   1.000  O
  O4       1.0000 0.23420  0.82370  0.03140  Biso   1.000  O
  O5       1.0000 0.21040  0.80400  0.45020  Biso   1.000  O
  O6       1.0000 0.24220  0.86610  0.55800  Biso   1.000  O
  O7       1.0000 0.30110  0.76660  0.44920  Biso   1.000  O
  O8       1.0000 0.33890  0.72160  0.57680  Biso   1.000  O
  O9       1.0000 0.72390  0.32390  0.71320  Biso   1.000  O
  O10      1.0000 0.67820  0.32660  0.81410  Biso   1.000  O
  O11      1.0000 0.71520  0.30030  0.27360  Biso   1.000  O
  O12      1.0000 0.75580  0.35740  0.20020  Biso   1.000  O
  N1       1.0000 0.98390  0.16550  0.13540  Biso   1.000  N
  N2       1.0000 0.07400  0.02870  0.01480  Biso   1.000  N
  N3       1.0000 0.09360  0.05070  0.33380  Biso   1.000  N
  N4       1.0000 0.03970  0.10890  0.23340  Biso   1.000  N
  N5       1.0000 0.08520  0.03540  0.17530  Biso   1.000  N
  N6       1.0000 0.02810  0.09430  0.07060  Biso   1.000  N
  N7       1.0000 0.49220  0.67260  0.34320  Biso   1.000  N
  N8       1.0000 0.54850  0.61480  0.30160  Biso   1.000  N
  N9       1.0000 0.60680  0.55600  0.26400  Biso   1.000  N
  N10      1.0000 0.59000  0.54090  0.41010  Biso   1.000  N
  N11      1.0000 0.53130  0.59980  0.44900  Biso   1.000  N
  N12      1.0000 0.56970  0.52910  0.55010  Biso   1.000  N
  C1       1.0000 0.83910  0.24320  0.83000  Biso   1.000  C
  C2       1.0000 0.87910  0.22480  0.91060  Biso   1.000  C
  C3       1.0000 0.91420  0.18430  0.89530  Biso   1.000  C
  H1       1.0000 0.91290  0.17020  0.83620  Biso   1.000  H
  C4       1.0000 0.94890  0.16580  0.96430  Biso   1.000  C
  H2       1.0000 0.97230  0.14040  0.95220  Biso   1.000  H
  C5       1.0000 0.95100  0.18400  0.05400  Biso   1.000  C
  C6       1.0000 0.91790  0.22580  0.07090  Biso   1.000  C
  H3       1.0000 0.92040  0.24120  0.12980  Biso   1.000  H
  C7       1.0000 0.88060  0.24470  0.99790  Biso   1.000  C
  H4       1.0000 0.85720  0.27050  0.00910  Biso   1.000  H
  C8       1.0000 0.01780  0.12050  0.14380  Biso   1.000  C
  C9       1.0000 0.06980  0.06300  0.24400  Biso   1.000  C
  C10      1.0000 0.06200  0.05210  0.09360  Biso   1.000  C
  C11      1.0000 0.10670  0.98460  0.01110  Biso   1.000  C
  C12      1.0000 0.14400  0.96300  0.08140  Biso   1.000  C
  H5       1.0000 0.14850  0.97930  0.14010  Biso   1.000  H
  C13      1.0000 0.17320  0.91950  0.06510  Biso   1.000  C
  H6       1.0000 0.19570  0.90440  0.11460  Biso   1.000  H
  C14      1.0000 0.17180  0.89530  0.97740  Biso   1.000  C
  C15      1.0000 0.13800  0.91750  0.90840  Biso   1.000  C
  H7       1.0000 0.13600  0.90250  0.84950  Biso   1.000  H
  C16      1.0000 0.10630  0.96120  0.92060  Biso   1.000  C
  H8       1.0000 0.08430  0.97590  0.86990  Biso   1.000  H
  C17      1.0000 0.20560  0.84770  0.96710  Biso   1.000  C
  C18      1.0000 0.12510  0.00540  0.35970  Biso   1.000  C
  C19      1.0000 0.15760  0.01110  0.44560  Biso   1.000  C
  H9       1.0000 0.15860  0.04710  0.47880  Biso   1.000  H
  C20      1.0000 0.18740  0.96490  0.48030  Biso   1.000  C
  H10      1.0000 0.21110  0.97170  0.53280  Biso   1.000  H
  C21      1.0000 0.18330  0.90630  0.43830  Biso   1.000  C
  C22      1.0000 0.15070  0.89860  0.35680  Biso   1.000  C
  H11      1.0000 0.14880  0.86170  0.32540  Biso   1.000  H
  C23      1.0000 0.12050  0.94640  0.32140  Biso   1.000  C
  H12      1.0000 0.09620  0.93910  0.27010  Biso   1.000  H
  C24      1.0000 0.21370  0.85570  0.48500  Biso   1.000  C
  C25      1.0000 0.33690  0.73900  0.49850  Biso   1.000  C
  C26      1.0000 0.38070  0.72650  0.46130  Biso   1.000  C
  C27      1.0000 0.41360  0.68880  0.50980  Biso   1.000  C
  H13      1.0000 0.41140  0.67590  0.56780  Biso   1.000  H
  C28      1.0000 0.45270  0.66800  0.47230  Biso   1.000  C
  H14      1.0000 0.47450  0.63990  0.50340  Biso   1.000  H
  C29      1.0000 0.45590  0.69200  0.38820  Biso   1.000  C
  C30      1.0000 0.42170  0.72970  0.34090  Biso   1.000  C
  H15      1.0000 0.42380  0.74260  0.28270  Biso   1.000  H
  C31      1.0000 0.38410  0.74980  0.37480  Biso   1.000  C
  H16      1.0000 0.36220  0.77740  0.34240  Biso   1.000  H
  C32      1.0000 0.52330  0.62690  0.36720  Biso   1.000  C
  C33      1.0000 0.56250  0.55670  0.46760  Biso   1.000  C
  C34      1.0000 0.58090  0.57000  0.33020  Biso   1.000  C
  C35      1.0000 0.63560  0.50670  0.26690  Biso   1.000  C
  C36      1.0000 0.63010  0.45010  0.30440  Biso   1.000  C
  H17      1.0000 0.60520  0.44520  0.33290  Biso   1.000  H
  C37      1.0000 0.65880  0.40060  0.30240  Biso   1.000  C
  H18      1.0000 0.65430  0.36430  0.33160  Biso   1.000  H
  C38      1.0000 0.69470  0.40600  0.25550  Biso   1.000  C
  C39      1.0000 0.70010  0.46240  0.21400  Biso   1.000  C
  H19      1.0000 0.72320  0.46650  0.18090  Biso   1.000  H
  C40      1.0000 0.67220  0.51070  0.22110  Biso   1.000  C
  H20      1.0000 0.67760  0.54760  0.19470  Biso   1.000  H
  C41      1.0000 0.60070  0.48680  0.59370  Biso   1.000  C
  C42      1.0000 0.63930  0.46460  0.56460  Biso   1.000  C
  H21      1.0000 0.64650  0.48040  0.51180  Biso   1.000  H
  C43      1.0000 0.66700  0.41960  0.61310  Biso   1.000  C
  H22      1.0000 0.69190  0.40420  0.59090  Biso   1.000  H
  C44      1.0000 0.65890  0.39680  0.69370  Biso   1.000  C
  C45      1.0000 0.62150  0.41920  0.72240  Biso   1.000  C
  H23      1.0000 0.61540  0.40410  0.77650  Biso   1.000  H
  C46      1.0000 0.59290  0.46240  0.67600  Biso   1.000  C
  H24      1.0000 0.56760  0.47630  0.69860  Biso   1.000  H
  C47      1.0000 0.68720  0.34350  0.74170  Biso   1.000  C
  C48      1.0000 0.72200  0.35120  0.24110  Biso   1.000  C
  Dy3      1.0000 0.76460  0.25204  0.17255  Biso   1.000  Dy
  Dy4      1.0000 0.26598  0.76331  0.59446  Biso   1.000  Dy
  O13      1.0000 0.19780  0.76670  0.65830  Biso   1.000  O
  O14      1.0000 0.15800  0.72940  0.74960  Biso   1.000  O
  O15      1.0000 0.79820  0.32680  0.61590  Biso   1.000  O
  O16      1.0000 0.76580  0.32370  0.46860  Biso   1.000  O
  O17      1.0000 0.78960  0.30400  0.04980  Biso   1.000  O
  O18      1.0000 0.75780  0.36610  0.94200  Biso   1.000  O
  O19      1.0000 0.69890  0.26660  0.05080  Biso   1.000  O
  O20      1.0000 0.66110  0.22160  0.92320  Biso   1.000  O
  O21      1.0000 0.27610  0.82390  0.78680  Biso   1.000  O
  O22      1.0000 0.32180  0.82660  0.68590  Biso   1.000  O
  O23      1.0000 0.28480  0.80030  0.22640  Biso   1.000  O
  O24      1.0000 0.24420  0.85740  0.29980  Biso   1.000  O
  N13      1.0000 0.01610  0.66550  0.36460  Biso   1.000  N
  N14      1.0000 0.92600  0.52870  0.48520  Biso   1.000  N
  N15      1.0000 0.90640  0.55070  0.16620  Biso   1.000  N
  N16      1.0000 0.96030  0.60890  0.26660  Biso   1.000  N
  N17      1.0000 0.91480  0.53540  0.32470  Biso   1.000  N
  N18      1.0000 0.97190  0.59430  0.42940  Biso   1.000  N
  N19      1.0000 0.50780  0.17260  0.15680  Biso   1.000  N
  N20      1.0000 0.45150  0.11480  0.19840  Biso   1.000  N
  N21      1.0000 0.39320  0.05600  0.23600  Biso   1.000  N
  N22      1.0000 0.41000  0.04090  0.08990  Biso   1.000  N
  N23      1.0000 0.46870  0.09980  0.05100  Biso   1.000  N
  N24      1.0000 0.43030  0.02910  0.94990  Biso   1.000  N
  C49      1.0000 0.16090  0.74320  0.67000  Biso   1.000  C
  C50      1.0000 0.12090  0.72480  0.58940  Biso   1.000  C
  C51      1.0000 0.08580  0.68430  0.60470  Biso   1.000  C
  H25      1.0000 0.08710  0.67020  0.66380  Biso   1.000  H
  C52      1.0000 0.05110  0.66580  0.53570  Biso   1.000  C
  H26      1.0000 0.02770  0.64040  0.54780  Biso   1.000  H
  C53      1.0000 0.04900  0.68400  0.44600  Biso   1.000  C
  C54      1.0000 0.08210  0.72580  0.42910  Biso   1.000  C
  H27      1.0000 0.07960  0.74120  0.37020  Biso   1.000  H
  C55      1.0000 0.11940  0.74470  0.50210  Biso   1.000  C
  H28      1.0000 0.14280  0.77050  0.49090  Biso   1.000  H
  C56      1.0000 0.98220  0.62050  0.35620  Biso   1.000  C
  C57      1.0000 0.93020  0.56300  0.25600  Biso   1.000  C
  C58      1.0000 0.93800  0.55210  0.40640  Biso   1.000  C
  C59      1.0000 0.89330  0.48460  0.48890  Biso   1.000  C
  C60      1.0000 0.85600  0.46300  0.41860  Biso   1.000  C
  H29      1.0000 0.85150  0.47930  0.35990  Biso   1.000  H
  C61      1.0000 0.82680  0.41950  0.43490  Biso   1.000  C
  H30      1.0000 0.80430  0.40440  0.38540  Biso   1.000  H
  C62      1.0000 0.82820  0.39530  0.52260  Biso   1.000  C
  C63      1.0000 0.86200  0.41750  0.59160  Biso   1.000  C
  H31      1.0000 0.86400  0.40250  0.65050  Biso   1.000  H
  C64      1.0000 0.89370  0.46120  0.57940  Biso   1.000  C
  H32      1.0000 0.91570  0.47590  0.63010  Biso   1.000  H
  C65      1.0000 0.79440  0.34770  0.53290  Biso   1.000  C
  C66      1.0000 0.87490  0.50540  0.14030  Biso   1.000  C
  C67      1.0000 0.84240  0.51110  0.05440  Biso   1.000  C
  H33      1.0000 0.84140  0.54710  0.02120  Biso   1.000  H
  C68      1.0000 0.81260  0.46490  0.01970  Biso   1.000  C
  H34      1.0000 0.78890  0.47170  0.96720  Biso   1.000  H
  C69      1.0000 0.81670  0.40630  0.06170  Biso   1.000  C
  C70      1.0000 0.84930  0.39860  0.14320  Biso   1.000  C
  H35      1.0000 0.85120  0.36170  0.17460  Biso   1.000  H
  C71      1.0000 0.87950  0.44640  0.17860  Biso   1.000  C
  H36      1.0000 0.90380  0.43910  0.22990  Biso   1.000  H
  C72      1.0000 0.78630  0.35570  0.01500  Biso   1.000  C
  C73      1.0000 0.66310  0.23900  0.00150  Biso   1.000  C
  C74      1.0000 0.61930  0.22650  0.03870  Biso   1.000  C
  C75      1.0000 0.58640  0.18880  0.99020  Biso   1.000  C
  H37      1.0000 0.58860  0.17590  0.93220  Biso   1.000  H
  C76      1.0000 0.54730  0.16800  0.02770  Biso   1.000  C
  H38      1.0000 0.52550  0.13990  0.99660  Biso   1.000  H
  C77      1.0000 0.54410  0.19200  0.11180  Biso   1.000  C
  C78      1.0000 0.57830  0.22970  0.15910  Biso   1.000  C
  H39      1.0000 0.57620  0.24260  0.21730  Biso   1.000  H
  C79      1.0000 0.61590  0.24980  0.12520  Biso   1.000  C
  H40      1.0000 0.63780  0.27740  0.15760  Biso   1.000  H
  C80      1.0000 0.47670  0.12690  0.13280  Biso   1.000  C
  C81      1.0000 0.43750  0.05670  0.03240  Biso   1.000  C
  C82      1.0000 0.41910  0.07000  0.16980  Biso   1.000  C
  C83      1.0000 0.36440  0.00670  0.23310  Biso   1.000  C
  C84      1.0000 0.36990  0.95010  0.19560  Biso   1.000  C
  H41      1.0000 0.39480  0.94520  0.16710  Biso   1.000  H
  C85      1.0000 0.34120  0.90060  0.19760  Biso   1.000  C
  H42      1.0000 0.34570  0.86430  0.16840  Biso   1.000  H
  C86      1.0000 0.30530  0.90600  0.24450  Biso   1.000  C
  C87      1.0000 0.29990  0.96240  0.28600  Biso   1.000  C
  H43      1.0000 0.27680  0.96650  0.31910  Biso   1.000  H
  C88      1.0000 0.32780  0.01070  0.27890  Biso   1.000  C
  H44      1.0000 0.32240  0.04760  0.30530  Biso   1.000  H
  C89      1.0000 0.39930  0.98680  0.90630  Biso   1.000  C
  C90      1.0000 0.36070  0.96460  0.93540  Biso   1.000  C
  H45      1.0000 0.35350  0.98040  0.98820  Biso   1.000  H
  C91      1.0000 0.33300  0.91960  0.88690  Biso   1.000  C
  H46      1.0000 0.30810  0.90420  0.90910  Biso   1.000  H
  C92      1.0000 0.34110  0.89680  0.80630  Biso   1.000  C
  C93      1.0000 0.37850  0.91920  0.77760  Biso   1.000  C
  H47      1.0000 0.38460  0.90410  0.72350  Biso   1.000  H
  C94      1.0000 0.40710  0.96240  0.82400  Biso   1.000  C
  H48      1.0000 0.43240  0.97630  0.80140  Biso   1.000  H
  C95      1.0000 0.31280  0.84350  0.75830  Biso   1.000  C
  C96      1.0000 0.27800  0.85120  0.25890  Biso   1.000  C
  Dy5      1.0000 0.76460  0.24796  0.67255  Biso   1.000  Dy
  Dy6      1.0000 0.26598  0.73669  0.09446  Biso   1.000  Dy
  O25      1.0000 0.19780  0.73330  0.15830  Biso   1.000  O
  O26      1.0000 0.15800  0.77060  0.24960  Biso   1.000  O
  O27      1.0000 0.79820  0.17320  0.11590  Biso   1.000  O
  O28      1.0000 0.76580  0.17630  0.96860  Biso   1.000  O
  O29      1.0000 0.78960  0.19600  0.54980  Biso   1.000  O
  O30      1.0000 0.75780  0.13390  0.44200  Biso   1.000  O
  O31      1.0000 0.69890  0.23340  0.55080  Biso   1.000  O
  O32      1.0000 0.66110  0.27840  0.42320  Biso   1.000  O
  O33      1.0000 0.27610  0.67610  0.28680  Biso   1.000  O
  O34      1.0000 0.32180  0.67340  0.18590  Biso   1.000  O
  O35      1.0000 0.28480  0.69970  0.72640  Biso   1.000  O
  O36      1.0000 0.24420  0.64260  0.79980  Biso   1.000  O
  N25      1.0000 0.01610  0.83450  0.86460  Biso   1.000  N
  N26      1.0000 0.92600  0.97130  0.98520  Biso   1.000  N
  N27      1.0000 0.90640  0.94930  0.66620  Biso   1.000  N
  N28      1.0000 0.96030  0.89110  0.76660  Biso   1.000  N
  N29      1.0000 0.91480  0.96460  0.82470  Biso   1.000  N
  N30      1.0000 0.97190  0.90570  0.92940  Biso   1.000  N
  N31      1.0000 0.50780  0.32740  0.65680  Biso   1.000  N
  N32      1.0000 0.45150  0.38520  0.69840  Biso   1.000  N
  N33      1.0000 0.39320  0.44400  0.73600  Biso   1.000  N
  N34      1.0000 0.41000  0.45910  0.58990  Biso   1.000  N
  N35      1.0000 0.46870  0.40020  0.55100  Biso   1.000  N
  N36      1.0000 0.43030  0.47090  0.44990  Biso   1.000  N
  C97      1.0000 0.16090  0.75680  0.17000  Biso   1.000  C
  C98      1.0000 0.12090  0.77520  0.08940  Biso   1.000  C
  C99      1.0000 0.08580  0.81570  0.10470  Biso   1.000  C
  H49      1.0000 0.08710  0.82980  0.16380  Biso   1.000  H
  C100     1.0000 0.05110  0.83420  0.03570  Biso   1.000  C
  H50      1.0000 0.02770  0.85960  0.04780  Biso   1.000  H
  C101     1.0000 0.04900  0.81600  0.94600  Biso   1.000  C
  C102     1.0000 0.08210  0.77420  0.92910  Biso   1.000  C
  H51      1.0000 0.07960  0.75880  0.87020  Biso   1.000  H
  C103     1.0000 0.11940  0.75530  0.00210  Biso   1.000  C
  H52      1.0000 0.14280  0.72950  0.99090  Biso   1.000  H
  C104     1.0000 0.98220  0.87950  0.85620  Biso   1.000  C
  C105     1.0000 0.93020  0.93700  0.75600  Biso   1.000  C
  C106     1.0000 0.93800  0.94790  0.90640  Biso   1.000  C
  C107     1.0000 0.89330  0.01540  0.98890  Biso   1.000  C
  C108     1.0000 0.85600  0.03700  0.91860  Biso   1.000  C
  H53      1.0000 0.85150  0.02070  0.85990  Biso   1.000  H
  C109     1.0000 0.82680  0.08050  0.93490  Biso   1.000  C
  H54      1.0000 0.80430  0.09560  0.88540  Biso   1.000  H
  C110     1.0000 0.82820  0.10470  0.02260  Biso   1.000  C
  C111     1.0000 0.86200  0.08250  0.09160  Biso   1.000  C
  H55      1.0000 0.86400  0.09750  0.15050  Biso   1.000  H
  C112     1.0000 0.89370  0.03880  0.07940  Biso   1.000  C
  H56      1.0000 0.91570  0.02410  0.13010  Biso   1.000  H
  C113     1.0000 0.79440  0.15230  0.03290  Biso   1.000  C
  C114     1.0000 0.87490  0.99460  0.64030  Biso   1.000  C
  C115     1.0000 0.84240  0.98890  0.55440  Biso   1.000  C
  H57      1.0000 0.84140  0.95290  0.52120  Biso   1.000  H
  C116     1.0000 0.81260  0.03510  0.51970  Biso   1.000  C
  H58      1.0000 0.78890  0.02830  0.46720  Biso   1.000  H
  C117     1.0000 0.81670  0.09370  0.56170  Biso   1.000  C
  C118     1.0000 0.84930  0.10140  0.64320  Biso   1.000  C
  H59      1.0000 0.85120  0.13830  0.67460  Biso   1.000  H
  C119     1.0000 0.87950  0.05360  0.67860  Biso   1.000  C
  H60      1.0000 0.90380  0.06090  0.72990  Biso   1.000  H
  C120     1.0000 0.78630  0.14430  0.51500  Biso   1.000  C
  C121     1.0000 0.66310  0.26100  0.50150  Biso   1.000  C
  C122     1.0000 0.61930  0.27350  0.53870  Biso   1.000  C
  C123     1.0000 0.58640  0.31120  0.49020  Biso   1.000  C
  H61      1.0000 0.58860  0.32410  0.43220  Biso   1.000  H
  C124     1.0000 0.54730  0.33200  0.52770  Biso   1.000  C
  H62      1.0000 0.52550  0.36010  0.49660  Biso   1.000  H
  C125     1.0000 0.54410  0.30800  0.61180  Biso   1.000  C
  C126     1.0000 0.57830  0.27030  0.65910  Biso   1.000  C
  H63      1.0000 0.57620  0.25740  0.71730  Biso   1.000  H
  C127     1.0000 0.61590  0.25020  0.62520  Biso   1.000  C
  H64      1.0000 0.63780  0.22260  0.65760  Biso   1.000  H
  C128     1.0000 0.47670  0.37310  0.63280  Biso   1.000  C
  C129     1.0000 0.43750  0.44330  0.53240  Biso   1.000  C
  C130     1.0000 0.41910  0.43000  0.66980  Biso   1.000  C
  C131     1.0000 0.36440  0.49330  0.73310  Biso   1.000  C
  C132     1.0000 0.36990  0.54990  0.69560  Biso   1.000  C
  H65      1.0000 0.39480  0.55480  0.66710  Biso   1.000  H
  C133     1.0000 0.34120  0.59940  0.69760  Biso   1.000  C
  H66      1.0000 0.34570  0.63570  0.66840  Biso   1.000  H
  C134     1.0000 0.30530  0.59400  0.74450  Biso   1.000  C
  C135     1.0000 0.29990  0.53760  0.78600  Biso   1.000  C
  H67      1.0000 0.27680  0.53350  0.81910  Biso   1.000  H
  C136     1.0000 0.32780  0.48930  0.77890  Biso   1.000  C
  H68      1.0000 0.32240  0.45240  0.80530  Biso   1.000  H
  C137     1.0000 0.39930  0.51320  0.40630  Biso   1.000  C
  C138     1.0000 0.36070  0.53540  0.43540  Biso   1.000  C
  H69      1.0000 0.35350  0.51960  0.48820  Biso   1.000  H
  C139     1.0000 0.33300  0.58040  0.38690  Biso   1.000  C
  H70      1.0000 0.30810  0.59580  0.40910  Biso   1.000  H
  C140     1.0000 0.34110  0.60320  0.30630  Biso   1.000  C
  C141     1.0000 0.37850  0.58080  0.27760  Biso   1.000  C
  H71      1.0000 0.38460  0.59590  0.22350  Biso   1.000  H
  C142     1.0000 0.40710  0.53760  0.32400  Biso   1.000  C
  H72      1.0000 0.43240  0.52370  0.30140  Biso   1.000  H
  C143     1.0000 0.31280  0.65650  0.25830  Biso   1.000  C
  C144     1.0000 0.27800  0.64880  0.75890  Biso   1.000  C
  Dy7      1.0000 0.23540  0.74796  0.82745  Biso   1.000  Dy
  Dy8      1.0000 0.73402  0.23669  0.40554  Biso   1.000  Dy
  O37      1.0000 0.80220  0.23330  0.34170  Biso   1.000  O
  O38      1.0000 0.84200  0.27060  0.25040  Biso   1.000  O
  O39      1.0000 0.20180  0.67320  0.38410  Biso   1.000  O
  O40      1.0000 0.23420  0.67630  0.53140  Biso   1.000  O
  O41      1.0000 0.21040  0.69600  0.95020  Biso   1.000  O
  O42      1.0000 0.24220  0.63390  0.05800  Biso   1.000  O
  O43      1.0000 0.30110  0.73340  0.94920  Biso   1.000  O
  O44      1.0000 0.33890  0.77840  0.07680  Biso   1.000  O
  O45      1.0000 0.72390  0.17610  0.21320  Biso   1.000  O
  O46      1.0000 0.67820  0.17340  0.31410  Biso   1.000  O
  O47      1.0000 0.71520  0.19970  0.77360  Biso   1.000  O
  O48      1.0000 0.75580  0.14260  0.70020  Biso   1.000  O
  N37      1.0000 0.98390  0.33450  0.63540  Biso   1.000  N
  N38      1.0000 0.07400  0.47130  0.51480  Biso   1.000  N
  N39      1.0000 0.09360  0.44930  0.83380  Biso   1.000  N
  N40      1.0000 0.03970  0.39110  0.73340  Biso   1.000  N
  N41      1.0000 0.08520  0.46460  0.67530  Biso   1.000  N
  N42      1.0000 0.02810  0.40570  0.57060  Biso   1.000  N
  N43      1.0000 0.49220  0.82740  0.84320  Biso   1.000  N
  N44      1.0000 0.54850  0.88520  0.80160  Biso   1.000  N
  N45      1.0000 0.60680  0.94400  0.76400  Biso   1.000  N
  N46      1.0000 0.59000  0.95910  0.91010  Biso   1.000  N
  N47      1.0000 0.53130  0.90020  0.94900  Biso   1.000  N
  N48      1.0000 0.56970  0.97090  0.05010  Biso   1.000  N
  C145     1.0000 0.83910  0.25680  0.33000  Biso   1.000  C
  C146     1.0000 0.87910  0.27520  0.41060  Biso   1.000  C
  C147     1.0000 0.91420  0.31570  0.39530  Biso   1.000  C
  H73      1.0000 0.91290  0.32980  0.33620  Biso   1.000  H
  C148     1.0000 0.94890  0.33420  0.46430  Biso   1.000  C
  H74      1.0000 0.97230  0.35960  0.45220  Biso   1.000  H
  C149     1.0000 0.95100  0.31600  0.55400  Biso   1.000  C
  C150     1.0000 0.91790  0.27420  0.57090  Biso   1.000  C
  H75      1.0000 0.92040  0.25880  0.62980  Biso   1.000  H
  C151     1.0000 0.88060  0.25530  0.49790  Biso   1.000  C
  H76      1.0000 0.85720  0.22950  0.50910  Biso   1.000  H
  C152     1.0000 0.01780  0.37950  0.64380  Biso   1.000  C
  C153     1.0000 0.06980  0.43700  0.74400  Biso   1.000  C
  C154     1.0000 0.06200  0.44790  0.59360  Biso   1.000  C
  C155     1.0000 0.10670  0.51540  0.51110  Biso   1.000  C
  C156     1.0000 0.14400  0.53700  0.58140  Biso   1.000  C
  H77      1.0000 0.14850  0.52070  0.64010  Biso   1.000  H
  C157     1.0000 0.17320  0.58050  0.56510  Biso   1.000  C
  H78      1.0000 0.19570  0.59560  0.61460  Biso   1.000  H
  C158     1.0000 0.17180  0.60470  0.47740  Biso   1.000  C
  C159     1.0000 0.13800  0.58250  0.40840  Biso   1.000  C
  H79      1.0000 0.13600  0.59750  0.34950  Biso   1.000  H
  C160     1.0000 0.10630  0.53880  0.42060  Biso   1.000  C
  H80      1.0000 0.08430  0.52410  0.36990  Biso   1.000  H
  C161     1.0000 0.20560  0.65230  0.46710  Biso   1.000  C
  C162     1.0000 0.12510  0.49460  0.85970  Biso   1.000  C
  C163     1.0000 0.15760  0.48890  0.94560  Biso   1.000  C
  H81      1.0000 0.15860  0.45290  0.97880  Biso   1.000  H
  C164     1.0000 0.18740  0.53510  0.98030  Biso   1.000  C
  H82      1.0000 0.21110  0.52830  0.03280  Biso   1.000  H
  C165     1.0000 0.18330  0.59370  0.93830  Biso   1.000  C
  C166     1.0000 0.15070  0.60140  0.85680  Biso   1.000  C
  H83      1.0000 0.14880  0.63830  0.82540  Biso   1.000  H
  C167     1.0000 0.12050  0.55360  0.82140  Biso   1.000  C
  H84      1.0000 0.09620  0.56090  0.77010  Biso   1.000  H
  C168     1.0000 0.21370  0.64430  0.98500  Biso   1.000  C
  C169     1.0000 0.33690  0.76100  0.99850  Biso   1.000  C
  C170     1.0000 0.38070  0.77350  0.96130  Biso   1.000  C
  C171     1.0000 0.41360  0.81120  0.00980  Biso   1.000  C
  H85      1.0000 0.41140  0.82410  0.06780  Biso   1.000  H
  C172     1.0000 0.45270  0.83200  0.97230  Biso   1.000  C
  H86      1.0000 0.47450  0.86010  0.00340  Biso   1.000  H
  C173     1.0000 0.45590  0.80800  0.88820  Biso   1.000  C
  C174     1.0000 0.42170  0.77030  0.84090  Biso   1.000  C
  H87      1.0000 0.42380  0.75740  0.78270  Biso   1.000  H
  C175     1.0000 0.38410  0.75020  0.87480  Biso   1.000  C
  H88      1.0000 0.36220  0.72260  0.84240  Biso   1.000  H
  C176     1.0000 0.52330  0.87310  0.86720  Biso   1.000  C
  C177     1.0000 0.56250  0.94330  0.96760  Biso   1.000  C
  C178     1.0000 0.58090  0.93000  0.83020  Biso   1.000  C
  C179     1.0000 0.63560  0.99330  0.76690  Biso   1.000  C
  C180     1.0000 0.63010  0.04990  0.80440  Biso   1.000  C
  H89      1.0000 0.60520  0.05480  0.83290  Biso   1.000  H
  C181     1.0000 0.65880  0.09940  0.80240  Biso   1.000  C
  H90      1.0000 0.65430  0.13570  0.83160  Biso   1.000  H
  C182     1.0000 0.69470  0.09400  0.75550  Biso   1.000  C
  C183     1.0000 0.70010  0.03760  0.71400  Biso   1.000  C
  H91      1.0000 0.72320  0.03350  0.68090  Biso   1.000  H
  C184     1.0000 0.67220  0.98930  0.72110  Biso   1.000  C
  H92      1.0000 0.67760  0.95240  0.69470  Biso   1.000  H
  C185     1.0000 0.60070  0.01320  0.09370  Biso   1.000  C
  C186     1.0000 0.63930  0.03540  0.06460  Biso   1.000  C
  H93      1.0000 0.64650  0.01960  0.01180  Biso   1.000  H
  C187     1.0000 0.66700  0.08040  0.11310  Biso   1.000  C
  H94      1.0000 0.69190  0.09580  0.09090  Biso   1.000  H
  C188     1.0000 0.65890  0.10320  0.19370  Biso   1.000  C
  C189     1.0000 0.62150  0.08080  0.22240  Biso   1.000  C
  H95      1.0000 0.61540  0.09590  0.27650  Biso   1.000  H
  C190     1.0000 0.59290  0.03760  0.17600  Biso   1.000  C
  H96      1.0000 0.56760  0.02370  0.19860  Biso   1.000  H
  C191     1.0000 0.68720  0.15650  0.24170  Biso   1.000  C
  C192     1.0000 0.72200  0.14880  0.74110  Biso   1.000  C
