data_image0
_cell_length_a       12.3651
_cell_length_b       12.3651
_cell_length_c       37.4849
_cell_angle_alpha    90
_cell_angle_beta     90
_cell_angle_gamma    120

_symmetry_space_group_name_H-M    "P 1"
_symmetry_int_tables_number       1

loop_
  _symmetry_equiv_pos_as_xyz
  'x, y, z'

loop_
  _atom_site_label
  _atom_site_occupancy
  _atom_site_fract_x
  _atom_site_fract_y
  _atom_site_fract_z
  _atom_site_thermal_displace_type
  _atom_site_B_iso_or_equiv
  _atom_site_type_symbol
  In1      1.0000 0.55072  0.16662  0.38057  Biso   1.000  In
  O1       1.0000 0.59630  0.31130  0.34311  Biso   1.000  O
  O2       1.0000 0.39090  0.00330  0.35981  Biso   1.000  O
  O3       1.0000 0.39730  0.25330  0.33268  Biso   1.000  O
  O4       1.0000 0.25730  0.02750  0.39410  Biso   1.000  O
  O5       1.0000 0.73690  0.28670  0.40349  Biso   1.000  O
  N1       1.0000 0.51580  0.54430  0.25672  Biso   1.000  N
  N2       1.0000 0.12360  0.47620  0.40200  Biso   1.000  N
  C1       1.0000 0.12360  0.64740  0.43140  Biso   1.000  C
  N3       1.0000 0.11380  0.66390  0.32247  Biso   1.000  N
  C2       1.0000 0.20320  0.77180  0.33510  Biso   1.000  C
  H1       1.0000 0.28560  0.79850  0.32900  Biso   1.000  H
  C3       1.0000 0.48040  0.44510  0.27820  Biso   1.000  C
  H2       1.0000 0.39910  0.37850  0.27620  Biso   1.000  H
  C4       1.0000 0.55760  0.43660  0.30310  Biso   1.000  C
  C5       1.0000 0.05690  0.80510  0.36780  Biso   1.000  C
  H3       1.0000 0.03690  0.85250  0.38280  Biso   1.000  H
  C6       1.0000 0.50760  0.32240  0.32790  Biso   1.000  C
  C7       1.0000 0.99510  0.62240  0.33240  Biso   1.000  C
  H4       1.0000 0.93270  0.54650  0.32350  Biso   1.000  H
  C8       1.0000 0.63370  0.64170  0.26030  Biso   1.000  C
  H5       1.0000 0.66010  0.71220  0.24610  Biso   1.000  H
  C9       1.0000 0.67830  0.53540  0.30610  Biso   1.000  C
  H6       1.0000 0.73360  0.53240  0.32230  Biso   1.000  H
  C10      1.0000 0.71510  0.63750  0.28470  Biso   1.000  C
  H7       1.0000 0.79580  0.70490  0.28670  Biso   1.000  H
  C11      1.0000 0.28240  0.96980  0.37210  Biso   1.000  C
  C12      1.0000 0.96230  0.68750  0.35520  Biso   1.000  C
  H8       1.0000 0.87970  0.65530  0.36220  Biso   1.000  H
  C13      1.0000 0.99550  0.41020  0.40170  Biso   1.000  C
  C14      1.0000 0.17780  0.84790  0.35770  Biso   1.000  C
  In2      1.0000 0.83338  0.38410  0.04723  Biso   1.000  In
  O6       1.0000 0.68870  0.28500  0.00978  Biso   1.000  O
  O7       1.0000 0.99670  0.38760  0.02648  Biso   1.000  O
  O8       1.0000 0.74670  0.14400  0.99935  Biso   1.000  O
  O9       1.0000 0.97250  0.22980  0.06077  Biso   1.000  O
  O10      1.0000 0.71330  0.45020  0.07016  Biso   1.000  O
  N4       1.0000 0.45570  0.97150  0.92339  Biso   1.000  N
  N5       1.0000 0.52380  0.64740  0.06867  Biso   1.000  N
  C15      1.0000 0.35260  0.47620  0.09807  Biso   1.000  C
  N6       1.0000 0.33610  0.44990  0.98914  Biso   1.000  N
  C16      1.0000 0.22820  0.43140  0.00177  Biso   1.000  C
  H9       1.0000 0.20150  0.48710  0.99567  Biso   1.000  H
  C17      1.0000 0.55490  0.03530  0.94487  Biso   1.000  C
  H10      1.0000 0.62150  0.02060  0.94287  Biso   1.000  H
  C18      1.0000 0.56340  0.12100  0.96977  Biso   1.000  C
  C19      1.0000 0.19490  0.25180  0.03447  Biso   1.000  C
  H11      1.0000 0.14750  0.18440  0.04947  Biso   1.000  H
  C20      1.0000 0.67760  0.18520  0.99457  Biso   1.000  C
  C21      1.0000 0.37760  0.37270  0.99907  Biso   1.000  C
  H12      1.0000 0.45350  0.38620  0.99017  Biso   1.000  H
  C22      1.0000 0.35830  0.99200  0.92697  Biso   1.000  C
  H13      1.0000 0.28780  0.94790  0.91277  Biso   1.000  H
  C23      1.0000 0.46460  0.14290  0.97277  Biso   1.000  C
  H14      1.0000 0.46760  0.20120  0.98897  Biso   1.000  H
  C24      1.0000 0.36250  0.07760  0.95137  Biso   1.000  C
  H15      1.0000 0.29510  0.09090  0.95337  Biso   1.000  H
  C25      1.0000 0.03020  0.31260  0.03877  Biso   1.000  C
  C26      1.0000 0.31250  0.27480  0.02187  Biso   1.000  C
  H16      1.0000 0.34470  0.22440  0.02887  Biso   1.000  H
  C27      1.0000 0.58980  0.58530  0.06837  Biso   1.000  C
  C28      1.0000 0.15210  0.32990  0.02437  Biso   1.000  C
  In3      1.0000 0.61590  0.44928  0.71390  Biso   1.000  In
  O11      1.0000 0.71500  0.40370  0.67644  Biso   1.000  O
  O12      1.0000 0.61240  0.60910  0.69314  Biso   1.000  O
  O13      1.0000 0.85600  0.60270  0.66601  Biso   1.000  O
  O14      1.0000 0.77020  0.74270  0.72743  Biso   1.000  O
  O15      1.0000 0.54980  0.26310  0.73682  Biso   1.000  O
  N7       1.0000 0.02850  0.48420  0.59005  Biso   1.000  N
  N8       1.0000 0.35260  0.87640  0.73533  Biso   1.000  N
  C29      1.0000 0.52380  0.87640  0.76473  Biso   1.000  C
  N9       1.0000 0.55010  0.88620  0.65580  Biso   1.000  N
  C30      1.0000 0.56860  0.79680  0.66843  Biso   1.000  C
  H17      1.0000 0.51290  0.71440  0.66233  Biso   1.000  H
  C31      1.0000 0.96470  0.51960  0.61153  Biso   1.000  C
  H18      1.0000 0.97940  0.60090  0.60953  Biso   1.000  H
  C32      1.0000 0.87900  0.44240  0.63643  Biso   1.000  C
  C33      1.0000 0.74820  0.94310  0.70113  Biso   1.000  C
  H19      1.0000 0.81560  0.96310  0.71613  Biso   1.000  H
  C34      1.0000 0.81480  0.49240  0.66123  Biso   1.000  C
  C35      1.0000 0.62730  0.00490  0.66573  Biso   1.000  C
  H20      1.0000 0.61380  0.06730  0.65683  Biso   1.000  H
  C36      1.0000 0.00800  0.36630  0.59363  Biso   1.000  C
  H21      1.0000 0.05210  0.33990  0.57943  Biso   1.000  H
  C37      1.0000 0.85710  0.32170  0.63943  Biso   1.000  C
  H22      1.0000 0.79880  0.26640  0.65563  Biso   1.000  H
  C38      1.0000 0.92240  0.28490  0.61803  Biso   1.000  C
  H23      1.0000 0.90910  0.20420  0.62003  Biso   1.000  H
  C39      1.0000 0.68740  0.71760  0.70543  Biso   1.000  C
  C40      1.0000 0.72520  0.03770  0.68853  Biso   1.000  C
  H24      1.0000 0.77560  0.12030  0.69553  Biso   1.000  H
  C41      1.0000 0.41470  0.00450  0.73503  Biso   1.000  C
  C42      1.0000 0.67010  0.82220  0.69103  Biso   1.000  C
  In4      1.0000 0.44928  0.83338  0.88057  Biso   1.000  In
  O16      1.0000 0.40370  0.68870  0.84311  Biso   1.000  O
  O17      1.0000 0.60910  0.99670  0.85981  Biso   1.000  O
  O18      1.0000 0.60270  0.74670  0.83268  Biso   1.000  O
  O19      1.0000 0.74270  0.97250  0.89410  Biso   1.000  O
  O20      1.0000 0.26310  0.71330  0.90349  Biso   1.000  O
  N10      1.0000 0.48420  0.45570  0.75672  Biso   1.000  N
  N11      1.0000 0.87640  0.52380  0.90200  Biso   1.000  N
  C43      1.0000 0.87640  0.35260  0.93140  Biso   1.000  C
  N12      1.0000 0.88620  0.33610  0.82247  Biso   1.000  N
  C44      1.0000 0.79680  0.22820  0.83510  Biso   1.000  C
  H25      1.0000 0.71440  0.20150  0.82900  Biso   1.000  H
  C45      1.0000 0.51960  0.55490  0.77820  Biso   1.000  C
  H26      1.0000 0.60090  0.62150  0.77620  Biso   1.000  H
  C46      1.0000 0.44240  0.56340  0.80310  Biso   1.000  C
  C47      1.0000 0.94310  0.19490  0.86780  Biso   1.000  C
  H27      1.0000 0.96310  0.14750  0.88280  Biso   1.000  H
  C48      1.0000 0.49240  0.67760  0.82790  Biso   1.000  C
  C49      1.0000 0.00490  0.37760  0.83240  Biso   1.000  C
  H28      1.0000 0.06730  0.45350  0.82350  Biso   1.000  H
  C50      1.0000 0.36630  0.35830  0.76030  Biso   1.000  C
  H29      1.0000 0.33990  0.28780  0.74610  Biso   1.000  H
  C51      1.0000 0.32170  0.46460  0.80610  Biso   1.000  C
  H30      1.0000 0.26640  0.46760  0.82230  Biso   1.000  H
  C52      1.0000 0.28490  0.36250  0.78470  Biso   1.000  C
  H31      1.0000 0.20420  0.29510  0.78670  Biso   1.000  H
  C53      1.0000 0.71760  0.03020  0.87210  Biso   1.000  C
  C54      1.0000 0.03770  0.31250  0.85520  Biso   1.000  C
  H32      1.0000 0.12030  0.34470  0.86220  Biso   1.000  H
  C55      1.0000 0.00450  0.58980  0.90170  Biso   1.000  C
  C56      1.0000 0.82220  0.15210  0.85770  Biso   1.000  C
  In5      1.0000 0.16662  0.61590  0.54723  Biso   1.000  In
  O21      1.0000 0.31130  0.71500  0.50978  Biso   1.000  O
  O22      1.0000 0.00330  0.61240  0.52648  Biso   1.000  O
  O23      1.0000 0.25330  0.85600  0.49935  Biso   1.000  O
  O24      1.0000 0.02750  0.77020  0.56077  Biso   1.000  O
  O25      1.0000 0.28670  0.54980  0.57016  Biso   1.000  O
  N13      1.0000 0.54430  0.02850  0.42339  Biso   1.000  N
  N14      1.0000 0.47620  0.35260  0.56867  Biso   1.000  N
  C57      1.0000 0.64740  0.52380  0.59807  Biso   1.000  C
  N15      1.0000 0.66390  0.55010  0.48914  Biso   1.000  N
  C58      1.0000 0.77180  0.56860  0.50177  Biso   1.000  C
  H33      1.0000 0.79850  0.51290  0.49567  Biso   1.000  H
  C59      1.0000 0.44510  0.96470  0.44487  Biso   1.000  C
  H34      1.0000 0.37850  0.97940  0.44287  Biso   1.000  H
  C60      1.0000 0.43660  0.87900  0.46977  Biso   1.000  C
  C61      1.0000 0.80510  0.74820  0.53447  Biso   1.000  C
  H35      1.0000 0.85250  0.81560  0.54947  Biso   1.000  H
  C62      1.0000 0.32240  0.81480  0.49457  Biso   1.000  C
  C63      1.0000 0.62240  0.62730  0.49907  Biso   1.000  C
  H36      1.0000 0.54650  0.61380  0.49017  Biso   1.000  H
  C64      1.0000 0.64170  0.00800  0.42697  Biso   1.000  C
  H37      1.0000 0.71220  0.05210  0.41277  Biso   1.000  H
  C65      1.0000 0.53540  0.85710  0.47277  Biso   1.000  C
  H38      1.0000 0.53240  0.79880  0.48897  Biso   1.000  H
  C66      1.0000 0.63750  0.92240  0.45137  Biso   1.000  C
  H39      1.0000 0.70490  0.90910  0.45337  Biso   1.000  H
  C67      1.0000 0.96980  0.68740  0.53877  Biso   1.000  C
  C68      1.0000 0.68750  0.72520  0.52187  Biso   1.000  C
  H40      1.0000 0.65530  0.77560  0.52887  Biso   1.000  H
  C69      1.0000 0.41020  0.41470  0.56837  Biso   1.000  C
  C70      1.0000 0.84790  0.67010  0.52437  Biso   1.000  C
  In6      1.0000 0.38410  0.55072  0.21390  Biso   1.000  In
  O26      1.0000 0.28500  0.59630  0.17644  Biso   1.000  O
  O27      1.0000 0.38760  0.39090  0.19314  Biso   1.000  O
  O28      1.0000 0.14400  0.39730  0.16601  Biso   1.000  O
  O29      1.0000 0.22980  0.25730  0.22743  Biso   1.000  O
  O30      1.0000 0.45020  0.73690  0.23682  Biso   1.000  O
  N16      1.0000 0.97150  0.51580  0.09005  Biso   1.000  N
  N17      1.0000 0.64740  0.12360  0.23533  Biso   1.000  N
  C71      1.0000 0.47620  0.12360  0.26473  Biso   1.000  C
  N18      1.0000 0.44990  0.11380  0.15580  Biso   1.000  N
  C72      1.0000 0.43140  0.20320  0.16843  Biso   1.000  C
  H41      1.0000 0.48710  0.28560  0.16233  Biso   1.000  H
  C73      1.0000 0.03530  0.48040  0.11153  Biso   1.000  C
  H42      1.0000 0.02060  0.39910  0.10953  Biso   1.000  H
  C74      1.0000 0.12100  0.55760  0.13643  Biso   1.000  C
  C75      1.0000 0.25180  0.05690  0.20113  Biso   1.000  C
  H43      1.0000 0.18440  0.03690  0.21613  Biso   1.000  H
  C76      1.0000 0.18520  0.50760  0.16123  Biso   1.000  C
  C77      1.0000 0.37270  0.99510  0.16573  Biso   1.000  C
  H44      1.0000 0.38620  0.93270  0.15683  Biso   1.000  H
  C78      1.0000 0.99200  0.63370  0.09363  Biso   1.000  C
  H45      1.0000 0.94790  0.66010  0.07943  Biso   1.000  H
  C79      1.0000 0.14290  0.67830  0.13943  Biso   1.000  C
  H46      1.0000 0.20120  0.73360  0.15563  Biso   1.000  H
  C80      1.0000 0.07760  0.71510  0.11803  Biso   1.000  C
  H47      1.0000 0.09090  0.79580  0.12003  Biso   1.000  H
  C81      1.0000 0.31260  0.28240  0.20543  Biso   1.000  C
  C82      1.0000 0.27480  0.96230  0.18853  Biso   1.000  C
  H48      1.0000 0.22440  0.87970  0.19553  Biso   1.000  H
  C83      1.0000 0.58530  0.99550  0.23503  Biso   1.000  C
  C84      1.0000 0.32990  0.17780  0.19103  Biso   1.000  C
  In7      1.0000 0.16662  0.55072  0.28610  Biso   1.000  In
  O31      1.0000 0.31130  0.59630  0.32356  Biso   1.000  O
  O32      1.0000 0.00330  0.39090  0.30686  Biso   1.000  O
  O33      1.0000 0.25330  0.39730  0.33399  Biso   1.000  O
  O34      1.0000 0.02750  0.25730  0.27257  Biso   1.000  O
  O35      1.0000 0.28670  0.73690  0.26318  Biso   1.000  O
  N19      1.0000 0.54430  0.51580  0.40995  Biso   1.000  N
  N20      1.0000 0.66390  0.11380  0.34420  Biso   1.000  N
  C85      1.0000 0.77180  0.20320  0.33157  Biso   1.000  C
  H49      1.0000 0.79850  0.28560  0.33767  Biso   1.000  H
  C86      1.0000 0.44510  0.48040  0.38847  Biso   1.000  C
  H50      1.0000 0.37850  0.39910  0.39047  Biso   1.000  H
  C87      1.0000 0.43660  0.55760  0.36357  Biso   1.000  C
  C88      1.0000 0.80510  0.05690  0.29887  Biso   1.000  C
  H51      1.0000 0.85250  0.03690  0.28387  Biso   1.000  H
  C89      1.0000 0.32240  0.50760  0.33877  Biso   1.000  C
  C90      1.0000 0.62240  0.99510  0.33427  Biso   1.000  C
  H52      1.0000 0.54650  0.93270  0.34317  Biso   1.000  H
  C91      1.0000 0.64170  0.63370  0.40637  Biso   1.000  C
  H53      1.0000 0.71220  0.66010  0.42057  Biso   1.000  H
  C92      1.0000 0.53540  0.67830  0.36057  Biso   1.000  C
  H54      1.0000 0.53240  0.73360  0.34437  Biso   1.000  H
  C93      1.0000 0.63750  0.71510  0.38197  Biso   1.000  C
  H55      1.0000 0.70490  0.79580  0.37997  Biso   1.000  H
  C94      1.0000 0.96980  0.28240  0.29457  Biso   1.000  C
  C95      1.0000 0.68750  0.96230  0.31147  Biso   1.000  C
  H56      1.0000 0.65530  0.87970  0.30447  Biso   1.000  H
  C96      1.0000 0.41020  0.99550  0.26497  Biso   1.000  C
  C97      1.0000 0.84790  0.17780  0.30897  Biso   1.000  C
  In8      1.0000 0.38410  0.83338  0.61943  Biso   1.000  In
  O36      1.0000 0.28500  0.68870  0.65689  Biso   1.000  O
  O37      1.0000 0.38760  0.99670  0.64019  Biso   1.000  O
  O38      1.0000 0.14400  0.74670  0.66732  Biso   1.000  O
  O39      1.0000 0.22980  0.97250  0.60590  Biso   1.000  O
  O40      1.0000 0.45020  0.71330  0.59651  Biso   1.000  O
  N21      1.0000 0.97150  0.45570  0.74328  Biso   1.000  N
  N22      1.0000 0.44990  0.33610  0.67753  Biso   1.000  N
  C98      1.0000 0.43140  0.22820  0.66490  Biso   1.000  C
  H57      1.0000 0.48710  0.20150  0.67100  Biso   1.000  H
  C99      1.0000 0.03530  0.55490  0.72180  Biso   1.000  C
  H58      1.0000 0.02060  0.62150  0.72380  Biso   1.000  H
  C100     1.0000 0.12100  0.56340  0.69690  Biso   1.000  C
  C101     1.0000 0.25180  0.19490  0.63220  Biso   1.000  C
  H59      1.0000 0.18440  0.14750  0.61720  Biso   1.000  H
  C102     1.0000 0.18520  0.67760  0.67210  Biso   1.000  C
  C103     1.0000 0.37270  0.37760  0.66760  Biso   1.000  C
  H60      1.0000 0.38620  0.45350  0.67650  Biso   1.000  H
  C104     1.0000 0.99200  0.35830  0.73970  Biso   1.000  C
  H61      1.0000 0.94790  0.28780  0.75390  Biso   1.000  H
  C105     1.0000 0.14290  0.46460  0.69390  Biso   1.000  C
  H62      1.0000 0.20120  0.46760  0.67770  Biso   1.000  H
  C106     1.0000 0.07760  0.36250  0.71530  Biso   1.000  C
  H63      1.0000 0.09090  0.29510  0.71330  Biso   1.000  H
  C107     1.0000 0.31260  0.03020  0.62790  Biso   1.000  C
  C108     1.0000 0.27480  0.31250  0.64480  Biso   1.000  C
  H64      1.0000 0.22440  0.34470  0.63780  Biso   1.000  H
  C109     1.0000 0.58530  0.58980  0.59830  Biso   1.000  C
  C110     1.0000 0.32990  0.15210  0.64230  Biso   1.000  C
  In9      1.0000 0.44928  0.61590  0.95277  Biso   1.000  In
  O41      1.0000 0.40370  0.71500  0.99022  Biso   1.000  O
  O42      1.0000 0.60910  0.61240  0.97352  Biso   1.000  O
  O43      1.0000 0.60270  0.85600  0.00065  Biso   1.000  O
  O44      1.0000 0.74270  0.77020  0.93923  Biso   1.000  O
  O45      1.0000 0.26310  0.54980  0.92984  Biso   1.000  O
  N23      1.0000 0.48420  0.02850  0.07661  Biso   1.000  N
  N24      1.0000 0.88620  0.55010  0.01086  Biso   1.000  N
  C111     1.0000 0.79680  0.56860  0.99823  Biso   1.000  C
  H65      1.0000 0.71440  0.51290  0.00433  Biso   1.000  H
  C112     1.0000 0.51960  0.96470  0.05513  Biso   1.000  C
  H66      1.0000 0.60090  0.97940  0.05713  Biso   1.000  H
  C113     1.0000 0.44240  0.87900  0.03023  Biso   1.000  C
  C114     1.0000 0.94310  0.74820  0.96553  Biso   1.000  C
  H67      1.0000 0.96310  0.81560  0.95053  Biso   1.000  H
  C115     1.0000 0.49240  0.81480  0.00543  Biso   1.000  C
  C116     1.0000 0.00490  0.62730  0.00093  Biso   1.000  C
  H68      1.0000 0.06730  0.61380  0.00983  Biso   1.000  H
  C117     1.0000 0.36630  0.00800  0.07303  Biso   1.000  C
  H69      1.0000 0.33990  0.05210  0.08723  Biso   1.000  H
  C118     1.0000 0.32170  0.85710  0.02723  Biso   1.000  C
  H70      1.0000 0.26640  0.79880  0.01103  Biso   1.000  H
  C119     1.0000 0.28490  0.92240  0.04863  Biso   1.000  C
  H71      1.0000 0.20420  0.90910  0.04663  Biso   1.000  H
  C120     1.0000 0.71760  0.68740  0.96123  Biso   1.000  C
  C121     1.0000 0.03770  0.72520  0.97813  Biso   1.000  C
  H72      1.0000 0.12030  0.77560  0.97113  Biso   1.000  H
  C122     1.0000 0.00450  0.41470  0.93163  Biso   1.000  C
  C123     1.0000 0.82220  0.67010  0.97563  Biso   1.000  C
  In10     1.0000 0.83338  0.44928  0.78610  Biso   1.000  In
  O46      1.0000 0.68870  0.40370  0.82356  Biso   1.000  O
  O47      1.0000 0.99670  0.60910  0.80686  Biso   1.000  O
  O48      1.0000 0.74670  0.60270  0.83399  Biso   1.000  O
  O49      1.0000 0.97250  0.74270  0.77257  Biso   1.000  O
  O50      1.0000 0.71330  0.26310  0.76318  Biso   1.000  O
  N25      1.0000 0.45570  0.48420  0.90995  Biso   1.000  N
  N26      1.0000 0.33610  0.88620  0.84420  Biso   1.000  N
  C124     1.0000 0.22820  0.79680  0.83157  Biso   1.000  C
  H73      1.0000 0.20150  0.71440  0.83767  Biso   1.000  H
  C125     1.0000 0.55490  0.51960  0.88847  Biso   1.000  C
  H74      1.0000 0.62150  0.60090  0.89047  Biso   1.000  H
  C126     1.0000 0.56340  0.44240  0.86357  Biso   1.000  C
  C127     1.0000 0.19490  0.94310  0.79887  Biso   1.000  C
  H75      1.0000 0.14750  0.96310  0.78387  Biso   1.000  H
  C128     1.0000 0.67760  0.49240  0.83877  Biso   1.000  C
  C129     1.0000 0.37760  0.00490  0.83427  Biso   1.000  C
  H76      1.0000 0.45350  0.06730  0.84317  Biso   1.000  H
  C130     1.0000 0.35830  0.36630  0.90637  Biso   1.000  C
  H77      1.0000 0.28780  0.33990  0.92057  Biso   1.000  H
  C131     1.0000 0.46460  0.32170  0.86057  Biso   1.000  C
  H78      1.0000 0.46760  0.26640  0.84437  Biso   1.000  H
  C132     1.0000 0.36250  0.28490  0.88197  Biso   1.000  C
  H79      1.0000 0.29510  0.20420  0.87997  Biso   1.000  H
  C133     1.0000 0.03020  0.71760  0.79457  Biso   1.000  C
  C134     1.0000 0.31250  0.03770  0.81147  Biso   1.000  C
  H80      1.0000 0.34470  0.12030  0.80447  Biso   1.000  H
  C135     1.0000 0.58980  0.00450  0.76497  Biso   1.000  C
  C136     1.0000 0.15210  0.82220  0.80897  Biso   1.000  C
  In11     1.0000 0.61590  0.16662  0.11943  Biso   1.000  In
  O51      1.0000 0.71500  0.31130  0.15689  Biso   1.000  O
  O52      1.0000 0.61240  0.00330  0.14019  Biso   1.000  O
  O53      1.0000 0.85600  0.25330  0.16732  Biso   1.000  O
  O54      1.0000 0.77020  0.02750  0.10590  Biso   1.000  O
  O55      1.0000 0.54980  0.28670  0.09651  Biso   1.000  O
  N27      1.0000 0.02850  0.54430  0.24328  Biso   1.000  N
  N28      1.0000 0.55010  0.66390  0.17753  Biso   1.000  N
  C137     1.0000 0.56860  0.77180  0.16490  Biso   1.000  C
  H81      1.0000 0.51290  0.79850  0.17100  Biso   1.000  H
  C138     1.0000 0.96470  0.44510  0.22180  Biso   1.000  C
  H82      1.0000 0.97940  0.37850  0.22380  Biso   1.000  H
  C139     1.0000 0.87900  0.43660  0.19690  Biso   1.000  C
  C140     1.0000 0.74820  0.80510  0.13220  Biso   1.000  C
  H83      1.0000 0.81560  0.85250  0.11720  Biso   1.000  H
  C141     1.0000 0.81480  0.32240  0.17210  Biso   1.000  C
  C142     1.0000 0.62730  0.62240  0.16760  Biso   1.000  C
  H84      1.0000 0.61380  0.54650  0.17650  Biso   1.000  H
  C143     1.0000 0.00800  0.64170  0.23970  Biso   1.000  C
  H85      1.0000 0.05210  0.71220  0.25390  Biso   1.000  H
  C144     1.0000 0.85710  0.53540  0.19390  Biso   1.000  C
  H86      1.0000 0.79880  0.53240  0.17770  Biso   1.000  H
  C145     1.0000 0.92240  0.63750  0.21530  Biso   1.000  C
  H87      1.0000 0.90910  0.70490  0.21330  Biso   1.000  H
  C146     1.0000 0.68740  0.96980  0.12790  Biso   1.000  C
  C147     1.0000 0.72520  0.68750  0.14480  Biso   1.000  C
  H88      1.0000 0.77560  0.65530  0.13780  Biso   1.000  H
  C148     1.0000 0.41470  0.41020  0.09830  Biso   1.000  C
  C149     1.0000 0.67010  0.84790  0.14230  Biso   1.000  C
  In12     1.0000 0.55072  0.38410  0.45277  Biso   1.000  In
  O56      1.0000 0.59630  0.28500  0.49022  Biso   1.000  O
  O57      1.0000 0.39090  0.38760  0.47352  Biso   1.000  O
  O58      1.0000 0.39730  0.14400  0.50065  Biso   1.000  O
  O59      1.0000 0.25730  0.22980  0.43923  Biso   1.000  O
  O60      1.0000 0.73690  0.45020  0.42984  Biso   1.000  O
  N29      1.0000 0.51580  0.97150  0.57661  Biso   1.000  N
  N30      1.0000 0.11380  0.44990  0.51086  Biso   1.000  N
  C150     1.0000 0.20320  0.43140  0.49823  Biso   1.000  C
  H89      1.0000 0.28560  0.48710  0.50433  Biso   1.000  H
  C151     1.0000 0.48040  0.03530  0.55513  Biso   1.000  C
  H90      1.0000 0.39910  0.02060  0.55713  Biso   1.000  H
  C152     1.0000 0.55760  0.12100  0.53023  Biso   1.000  C
  C153     1.0000 0.05690  0.25180  0.46553  Biso   1.000  C
  H91      1.0000 0.03690  0.18440  0.45053  Biso   1.000  H
  C154     1.0000 0.50760  0.18520  0.50543  Biso   1.000  C
  C155     1.0000 0.99510  0.37270  0.50093  Biso   1.000  C
  H92      1.0000 0.93270  0.38620  0.50983  Biso   1.000  H
  C156     1.0000 0.63370  0.99200  0.57303  Biso   1.000  C
  H93      1.0000 0.66010  0.94790  0.58723  Biso   1.000  H
  C157     1.0000 0.67830  0.14290  0.52723  Biso   1.000  C
  H94      1.0000 0.73360  0.20120  0.51103  Biso   1.000  H
  C158     1.0000 0.71510  0.07760  0.54863  Biso   1.000  C
  H95      1.0000 0.79580  0.09090  0.54663  Biso   1.000  H
  C159     1.0000 0.28240  0.31260  0.46123  Biso   1.000  C
  C160     1.0000 0.96230  0.27480  0.47813  Biso   1.000  C
  H96      1.0000 0.87970  0.22440  0.47113  Biso   1.000  H
  C161     1.0000 0.99550  0.58530  0.43163  Biso   1.000  C
  C162     1.0000 0.17780  0.32990  0.47563  Biso   1.000  C
  O61      1.0000 0.47510  0.23755  0.41667  Biso   1.000  O
  C163     1.0000 0.79160  0.39580  0.41667  Biso   1.000  C
  C164     1.0000 0.18760  0.59380  0.41667  Biso   1.000  C
  C165     1.0000 0.93020  0.46510  0.41667  Biso   1.000  C
  O62      1.0000 0.76245  0.23755  0.08333  Biso   1.000  O
  C166     1.0000 0.60420  0.39580  0.08333  Biso   1.000  C
  C167     1.0000 0.40620  0.59380  0.08333  Biso   1.000  C
  C168     1.0000 0.53490  0.46510  0.08333  Biso   1.000  C
  O63      1.0000 0.76245  0.52490  0.75000  Biso   1.000  O
  C169     1.0000 0.60420  0.20840  0.75000  Biso   1.000  C
  C170     1.0000 0.40620  0.81240  0.75000  Biso   1.000  C
  C171     1.0000 0.53490  0.06980  0.75000  Biso   1.000  C
  O64      1.0000 0.52490  0.76245  0.91667  Biso   1.000  O
  C172     1.0000 0.20840  0.60420  0.91667  Biso   1.000  C
  C173     1.0000 0.81240  0.40620  0.91667  Biso   1.000  C
  C174     1.0000 0.06980  0.53490  0.91667  Biso   1.000  C
  O65      1.0000 0.23755  0.76245  0.58333  Biso   1.000  O
  C175     1.0000 0.39580  0.60420  0.58333  Biso   1.000  C
  C176     1.0000 0.59380  0.40620  0.58333  Biso   1.000  C
  C177     1.0000 0.46510  0.53490  0.58333  Biso   1.000  C
  O66      1.0000 0.23755  0.47510  0.25000  Biso   1.000  O
  C178     1.0000 0.39580  0.79160  0.25000  Biso   1.000  C
  C179     1.0000 0.59380  0.18760  0.25000  Biso   1.000  C
  C180     1.0000 0.46510  0.93020  0.25000  Biso   1.000  C
