data_IYUJAO_clean
_audit_creation_date              2014-07-02
_audit_creation_method            'Materials Studio'
_symmetry_space_group_name_H-M    'P1'
_symmetry_Int_Tables_number       1
_symmetry_cell_setting            triclinic
loop_
_symmetry_equiv_pos_as_xyz
  x,y,z
_cell_length_a                    16.1292
_cell_length_b                    16.1292
_cell_length_c                    16.1292
_cell_angle_alpha                 92.5495
_cell_angle_beta                  92.5495
_cell_angle_gamma                 92.5495
loop_
_atom_site_label
_atom_site_type_symbol
_atom_site_fract_x
_atom_site_fract_y
_atom_site_fract_z
_atom_site_U_iso_or_equiv
_atom_site_adp_type
_atom_site_occupancy
In1    In    0.74044   0.16109   0.40989   0.01267  Uiso   1.00
In2    In    0.40989   0.74044   0.16109   0.01267  Uiso   1.00
In3    In    0.16109   0.40989   0.74044   0.01267  Uiso   1.00
In4    In    0.83891   0.25956   0.59011   0.01267  Uiso   1.00
In5    In    0.25956   0.59011   0.83891   0.01267  Uiso   1.00
In6    In    0.59011   0.83891   0.25956   0.01267  Uiso   1.00
In7    In    0.65936   0.34064   0.50000   0.01267  Uiso   1.00
In8    In    0.50000   0.65936   0.34064   0.01267  Uiso   1.00
In9    In    0.34064   0.50000   0.65936   0.01267  Uiso   1.00
H1     H     0.49080   0.02690   0.38830   0.01267  Uiso   1.00
H2     H     0.35610   0.97750   0.35040   0.01267  Uiso   1.00
H3     H     0.28030   0.20820   0.35600   0.01267  Uiso   1.00
H4     H     0.41150   0.25690   0.40320   0.01267  Uiso   1.00
H5     H     0.97320   0.12810   0.28420   0.01267  Uiso   1.00
H6     H     0.09860   0.08390   0.23630   0.01267  Uiso   1.00
H7     H     0.19630   0.12760   0.47230   0.01267  Uiso   1.00
H8     H     0.07590   0.16800   0.51180   0.01267  Uiso   1.00
H9     H     0.65570   0.23490   0.16510   0.01267  Uiso   1.00
H10    H     0.60920   0.27990   0.03670   0.01267  Uiso   1.00
H11    H     0.59860   0.51170   0.13560   0.01267  Uiso   1.00
H12    H     0.63520   0.46660   0.26470   0.01267  Uiso   1.00
H13    H     0.38830   0.49080   0.02690   0.01267  Uiso   1.00
H14    H     0.35040   0.35610   0.97750   0.01267  Uiso   1.00
H15    H     0.35600   0.28030   0.20820   0.01267  Uiso   1.00
H16    H     0.40320   0.41150   0.25690   0.01267  Uiso   1.00
H17    H     0.28420   0.97320   0.12810   0.01267  Uiso   1.00
H18    H     0.23630   0.09860   0.08390   0.01267  Uiso   1.00
H19    H     0.47230   0.19630   0.12760   0.01267  Uiso   1.00
H20    H     0.51180   0.07590   0.16800   0.01267  Uiso   1.00
H21    H     0.16510   0.65570   0.23490   0.01267  Uiso   1.00
H22    H     0.03670   0.60920   0.27990   0.01267  Uiso   1.00
H23    H     0.13560   0.59860   0.51170   0.01267  Uiso   1.00
H24    H     0.26470   0.63520   0.46660   0.01267  Uiso   1.00
H25    H     0.02690   0.38830   0.49080   0.01267  Uiso   1.00
H26    H     0.97750   0.35040   0.35610   0.01267  Uiso   1.00
H27    H     0.20820   0.35600   0.28030   0.01267  Uiso   1.00
H28    H     0.25690   0.40320   0.41150   0.01267  Uiso   1.00
H29    H     0.12810   0.28420   0.97320   0.01267  Uiso   1.00
H30    H     0.08390   0.23630   0.09860   0.01267  Uiso   1.00
H31    H     0.12760   0.47230   0.19630   0.01267  Uiso   1.00
H32    H     0.16800   0.51180   0.07590   0.01267  Uiso   1.00
H33    H     0.23490   0.16510   0.65570   0.01267  Uiso   1.00
H34    H     0.27990   0.03670   0.60920   0.01267  Uiso   1.00
H35    H     0.51170   0.13560   0.59860   0.01267  Uiso   1.00
H36    H     0.46660   0.26470   0.63520   0.01267  Uiso   1.00
H37    H     0.97310   0.50920   0.61170   0.01267  Uiso   1.00
H38    H     0.02250   0.64390   0.64960   0.01267  Uiso   1.00
H39    H     0.79180   0.71970   0.64400   0.01267  Uiso   1.00
H40    H     0.74310   0.58850   0.59680   0.01267  Uiso   1.00
H41    H     0.87190   0.02680   0.71580   0.01267  Uiso   1.00
H42    H     0.91610   0.90140   0.76370   0.01267  Uiso   1.00
H43    H     0.87240   0.80370   0.52770   0.01267  Uiso   1.00
H44    H     0.83200   0.92410   0.48820   0.01267  Uiso   1.00
H45    H     0.76510   0.34430   0.83490   0.01267  Uiso   1.00
H46    H     0.72010   0.39080   0.96330   0.01267  Uiso   1.00
H47    H     0.48830   0.40140   0.86440   0.01267  Uiso   1.00
H48    H     0.53340   0.36480   0.73530   0.01267  Uiso   1.00
H49    H     0.50920   0.61170   0.97310   0.01267  Uiso   1.00
H50    H     0.64390   0.64960   0.02250   0.01267  Uiso   1.00
H51    H     0.71970   0.64400   0.79180   0.01267  Uiso   1.00
H52    H     0.58850   0.59680   0.74310   0.01267  Uiso   1.00
H53    H     0.02680   0.71580   0.87190   0.01267  Uiso   1.00
H54    H     0.90140   0.76370   0.91610   0.01267  Uiso   1.00
H55    H     0.80370   0.52770   0.87240   0.01267  Uiso   1.00
H56    H     0.92410   0.48820   0.83200   0.01267  Uiso   1.00
H57    H     0.34430   0.83490   0.76510   0.01267  Uiso   1.00
H58    H     0.39080   0.96330   0.72010   0.01267  Uiso   1.00
H59    H     0.40140   0.86440   0.48830   0.01267  Uiso   1.00
H60    H     0.36480   0.73530   0.53340   0.01267  Uiso   1.00
H61    H     0.61170   0.97310   0.50920   0.01267  Uiso   1.00
H62    H     0.64960   0.02250   0.64390   0.01267  Uiso   1.00
H63    H     0.64400   0.79180   0.71970   0.01267  Uiso   1.00
H64    H     0.59680   0.74310   0.58850   0.01267  Uiso   1.00
H65    H     0.71580   0.87190   0.02680   0.01267  Uiso   1.00
H66    H     0.76370   0.91610   0.90140   0.01267  Uiso   1.00
H67    H     0.52770   0.87240   0.80370   0.01267  Uiso   1.00
H68    H     0.48820   0.83200   0.92410   0.01267  Uiso   1.00
H69    H     0.83490   0.76510   0.34430   0.01267  Uiso   1.00
H70    H     0.96330   0.72010   0.39080   0.01267  Uiso   1.00
H71    H     0.86440   0.48830   0.40140   0.01267  Uiso   1.00
H72    H     0.73530   0.53340   0.36480   0.01267  Uiso   1.00
C1     C     0.55120   0.17980   0.43000   0.01267  Uiso   1.00
C2     C     0.46570   0.14770   0.40000   0.01267  Uiso   1.00
C3     C     0.44850   0.06390   0.38340   0.01267  Uiso   1.00
C4     C     0.36840   0.03410   0.35920   0.01267  Uiso   1.00
C5     C     0.30800   0.09020   0.34880   0.01267  Uiso   1.00
C6     C     0.32250   0.17150   0.36370   0.01267  Uiso   1.00
C7     C     0.40150   0.20040   0.39080   0.01267  Uiso   1.00
C8     C     0.93150   0.18380   0.43220   0.01267  Uiso   1.00
C9     C     0.01270   0.15250   0.40210   0.01267  Uiso   1.00
C10    C     0.01930   0.12690   0.32090   0.01267  Uiso   1.00
C11    C     0.09340   0.09930   0.29210   0.01267  Uiso   1.00
C12    C     0.15950   0.09510   0.34960   0.01267  Uiso   1.00
C13    C     0.15100   0.12590   0.43440   0.01267  Uiso   1.00
C14    C     0.08110   0.15050   0.45660   0.01267  Uiso   1.00
C15    C     0.67740   0.31740   0.31050   0.01267  Uiso   1.00
C16    C     0.64850   0.34610   0.22820   0.01267  Uiso   1.00
C17    C     0.64220   0.28990   0.15930   0.01267  Uiso   1.00
C18    C     0.61570   0.31680   0.08270   0.01267  Uiso   1.00
C19    C     0.59890   0.40210   0.07630   0.01267  Uiso   1.00
C20    C     0.60800   0.45590   0.14210   0.01267  Uiso   1.00
C21    C     0.63110   0.42930   0.21880   0.01267  Uiso   1.00
C22    C     0.43000   0.55120   0.17980   0.01267  Uiso   1.00
C23    C     0.40000   0.46570   0.14770   0.01267  Uiso   1.00
C24    C     0.38340   0.44850   0.06390   0.01267  Uiso   1.00
C25    C     0.35920   0.36840   0.03410   0.01267  Uiso   1.00
C26    C     0.34880   0.30800   0.09020   0.01267  Uiso   1.00
C27    C     0.36370   0.32250   0.17150   0.01267  Uiso   1.00
C28    C     0.39080   0.40150   0.20040   0.01267  Uiso   1.00
C29    C     0.43220   0.93150   0.18380   0.01267  Uiso   1.00
C30    C     0.40210   0.01270   0.15250   0.01267  Uiso   1.00
C31    C     0.32090   0.01930   0.12690   0.01267  Uiso   1.00
C32    C     0.29210   0.09340   0.09930   0.01267  Uiso   1.00
C33    C     0.34960   0.15950   0.09510   0.01267  Uiso   1.00
C34    C     0.43440   0.15100   0.12590   0.01267  Uiso   1.00
C35    C     0.45660   0.08110   0.15050   0.01267  Uiso   1.00
C36    C     0.31050   0.67740   0.31740   0.01267  Uiso   1.00
C37    C     0.22820   0.64850   0.34610   0.01267  Uiso   1.00
C38    C     0.15930   0.64220   0.28990   0.01267  Uiso   1.00
C39    C     0.08270   0.61570   0.31680   0.01267  Uiso   1.00
C40    C     0.07630   0.59890   0.40210   0.01267  Uiso   1.00
C41    C     0.14210   0.60800   0.45590   0.01267  Uiso   1.00
C42    C     0.21880   0.63110   0.42930   0.01267  Uiso   1.00
C43    C     0.17980   0.43000   0.55120   0.01267  Uiso   1.00
C44    C     0.14770   0.40000   0.46570   0.01267  Uiso   1.00
C45    C     0.06390   0.38340   0.44850   0.01267  Uiso   1.00
C46    C     0.03410   0.35920   0.36840   0.01267  Uiso   1.00
C47    C     0.09020   0.34880   0.30800   0.01267  Uiso   1.00
C48    C     0.17150   0.36370   0.32250   0.01267  Uiso   1.00
C49    C     0.20040   0.39080   0.40150   0.01267  Uiso   1.00
C50    C     0.18380   0.43220   0.93150   0.01267  Uiso   1.00
C51    C     0.15250   0.40210   0.01270   0.01267  Uiso   1.00
C52    C     0.12690   0.32090   0.01930   0.01267  Uiso   1.00
C53    C     0.09930   0.29210   0.09340   0.01267  Uiso   1.00
C54    C     0.09510   0.34960   0.15950   0.01267  Uiso   1.00
C55    C     0.12590   0.43440   0.15100   0.01267  Uiso   1.00
C56    C     0.15050   0.45660   0.08110   0.01267  Uiso   1.00
C57    C     0.31740   0.31050   0.67740   0.01267  Uiso   1.00
C58    C     0.34610   0.22820   0.64850   0.01267  Uiso   1.00
C59    C     0.28990   0.15930   0.64220   0.01267  Uiso   1.00
C60    C     0.31680   0.08270   0.61570   0.01267  Uiso   1.00
C61    C     0.40210   0.07630   0.59890   0.01267  Uiso   1.00
C62    C     0.45590   0.14210   0.60800   0.01267  Uiso   1.00
C63    C     0.42930   0.21880   0.63110   0.01267  Uiso   1.00
C64    C     0.82020   0.44880   0.57000   0.01267  Uiso   1.00
C65    C     0.85230   0.53430   0.60000   0.01267  Uiso   1.00
C66    C     0.93610   0.55150   0.61660   0.01267  Uiso   1.00
C67    C     0.96590   0.63160   0.64080   0.01267  Uiso   1.00
C68    C     0.90980   0.69200   0.65120   0.01267  Uiso   1.00
C69    C     0.82850   0.67750   0.63630   0.01267  Uiso   1.00
C70    C     0.79960   0.59850   0.60920   0.01267  Uiso   1.00
C71    C     0.81620   0.06850   0.56780   0.01267  Uiso   1.00
C72    C     0.84750   0.98730   0.59790   0.01267  Uiso   1.00
C73    C     0.87310   0.98070   0.67910   0.01267  Uiso   1.00
C74    C     0.90070   0.90660   0.70790   0.01267  Uiso   1.00
C75    C     0.90490   0.84050   0.65040   0.01267  Uiso   1.00
C76    C     0.87410   0.84900   0.56560   0.01267  Uiso   1.00
C77    C     0.84950   0.91890   0.54340   0.01267  Uiso   1.00
C78    C     0.68260   0.32260   0.68950   0.01267  Uiso   1.00
C79    C     0.65390   0.35150   0.77180   0.01267  Uiso   1.00
C80    C     0.71010   0.35780   0.84070   0.01267  Uiso   1.00
C81    C     0.68320   0.38430   0.91730   0.01267  Uiso   1.00
C82    C     0.59790   0.40110   0.92370   0.01267  Uiso   1.00
C83    C     0.54410   0.39200   0.85790   0.01267  Uiso   1.00
C84    C     0.57070   0.36890   0.78120   0.01267  Uiso   1.00
C85    C     0.44880   0.57000   0.82020   0.01267  Uiso   1.00
C86    C     0.53430   0.60000   0.85230   0.01267  Uiso   1.00
C87    C     0.55150   0.61660   0.93610   0.01267  Uiso   1.00
C88    C     0.63160   0.64080   0.96590   0.01267  Uiso   1.00
C89    C     0.69200   0.65120   0.90980   0.01267  Uiso   1.00
C90    C     0.67750   0.63630   0.82850   0.01267  Uiso   1.00
C91    C     0.59850   0.60920   0.79960   0.01267  Uiso   1.00
C92    C     0.06850   0.56780   0.81620   0.01267  Uiso   1.00
C93    C     0.98730   0.59790   0.84750   0.01267  Uiso   1.00
C94    C     0.98070   0.67910   0.87310   0.01267  Uiso   1.00
C95    C     0.90660   0.70790   0.90070   0.01267  Uiso   1.00
C96    C     0.84050   0.65040   0.90490   0.01267  Uiso   1.00
C97    C     0.84900   0.56560   0.87410   0.01267  Uiso   1.00
C98    C     0.91890   0.54340   0.84950   0.01267  Uiso   1.00
C99    C     0.32260   0.68950   0.68260   0.01267  Uiso   1.00
C100   C     0.35150   0.77180   0.65390   0.01267  Uiso   1.00
C101   C     0.35780   0.84070   0.71010   0.01267  Uiso   1.00
C102   C     0.38430   0.91730   0.68320   0.01267  Uiso   1.00
C103   C     0.40110   0.92370   0.59790   0.01267  Uiso   1.00
C104   C     0.39200   0.85790   0.54410   0.01267  Uiso   1.00
C105   C     0.36890   0.78120   0.57070   0.01267  Uiso   1.00
C106   C     0.57000   0.82020   0.44880   0.01267  Uiso   1.00
C107   C     0.60000   0.85230   0.53430   0.01267  Uiso   1.00
C108   C     0.61660   0.93610   0.55150   0.01267  Uiso   1.00
C109   C     0.64080   0.96590   0.63160   0.01267  Uiso   1.00
C110   C     0.65120   0.90980   0.69200   0.01267  Uiso   1.00
C111   C     0.63630   0.82850   0.67750   0.01267  Uiso   1.00
C112   C     0.60920   0.79960   0.59850   0.01267  Uiso   1.00
C113   C     0.56780   0.81620   0.06850   0.01267  Uiso   1.00
C114   C     0.59790   0.84750   0.98730   0.01267  Uiso   1.00
C115   C     0.67910   0.87310   0.98070   0.01267  Uiso   1.00
C116   C     0.70790   0.90070   0.90660   0.01267  Uiso   1.00
C117   C     0.65040   0.90490   0.84050   0.01267  Uiso   1.00
C118   C     0.56560   0.87410   0.84900   0.01267  Uiso   1.00
C119   C     0.54340   0.84950   0.91890   0.01267  Uiso   1.00
C120   C     0.68950   0.68260   0.32260   0.01267  Uiso   1.00
C121   C     0.77180   0.65390   0.35150   0.01267  Uiso   1.00
C122   C     0.84070   0.71010   0.35780   0.01267  Uiso   1.00
C123   C     0.91730   0.68320   0.38430   0.01267  Uiso   1.00
C124   C     0.92370   0.59790   0.40110   0.01267  Uiso   1.00
C125   C     0.85790   0.54410   0.39200   0.01267  Uiso   1.00
C126   C     0.78120   0.57070   0.36890   0.01267  Uiso   1.00
C127   C     0.68305  -0.00000   0.31695   0.01267  Uiso   1.00
C128   C     0.31695   0.68305  -0.00000   0.01267  Uiso   1.00
C129   C     0.00000   0.31695   0.68305   0.01267  Uiso   1.00
O1     O     0.55640   0.25560   0.45280   0.01267  Uiso   1.00
O2     O     0.60870   0.12830   0.42850   0.01267  Uiso   1.00
O3     O     0.23010   0.05670   0.32130   0.01267  Uiso   1.00
O4     O     0.93120   0.21690   0.50470   0.01267  Uiso   1.00
O5     O     0.86900   0.17850   0.38000   0.01267  Uiso   1.00
O6     O     0.67820   0.36990   0.37240   0.01267  Uiso   1.00
O7     O     0.69910   0.24200   0.31350   0.01267  Uiso   1.00
O8     O     0.73520   0.06160   0.31500   0.01267  Uiso   1.00
O9     O     0.45280   0.55640   0.25560   0.01267  Uiso   1.00
O10    O     0.42850   0.60870   0.12830   0.01267  Uiso   1.00
O11    O     0.32130   0.23010   0.05670   0.01267  Uiso   1.00
O12    O     0.50470   0.93120   0.21690   0.01267  Uiso   1.00
O13    O     0.38000   0.86900   0.17850   0.01267  Uiso   1.00
O14    O     0.37240   0.67820   0.36990   0.01267  Uiso   1.00
O15    O     0.31350   0.69910   0.24200   0.01267  Uiso   1.00
O16    O     0.31500   0.73520   0.06160   0.01267  Uiso   1.00
O17    O     0.25560   0.45280   0.55640   0.01267  Uiso   1.00
O18    O     0.12830   0.42850   0.60870   0.01267  Uiso   1.00
O19    O     0.05670   0.32130   0.23010   0.01267  Uiso   1.00
O20    O     0.21690   0.50470   0.93120   0.01267  Uiso   1.00
O21    O     0.17850   0.38000   0.86900   0.01267  Uiso   1.00
O22    O     0.36990   0.37240   0.67820   0.01267  Uiso   1.00
O23    O     0.24200   0.31350   0.69910   0.01267  Uiso   1.00
O24    O     0.06160   0.31500   0.73520   0.01267  Uiso   1.00
O25    O     0.74440   0.44360   0.54720   0.01267  Uiso   1.00
O26    O     0.87170   0.39130   0.57150   0.01267  Uiso   1.00
O27    O     0.94330   0.76990   0.67870   0.01267  Uiso   1.00
O28    O     0.78310   0.06880   0.49530   0.01267  Uiso   1.00
O29    O     0.82150   0.13100   0.62000   0.01267  Uiso   1.00
O30    O     0.63010   0.32180   0.62760   0.01267  Uiso   1.00
O31    O     0.75800   0.30090   0.68650   0.01267  Uiso   1.00
O32    O     0.93840   0.26480   0.68500   0.01267  Uiso   1.00
O33    O     0.44360   0.54720   0.74440   0.01267  Uiso   1.00
O34    O     0.39130   0.57150   0.87170   0.01267  Uiso   1.00
O35    O     0.76990   0.67870   0.94330   0.01267  Uiso   1.00
O36    O     0.06880   0.49530   0.78310   0.01267  Uiso   1.00
O37    O     0.13100   0.62000   0.82150   0.01267  Uiso   1.00
O38    O     0.32180   0.62760   0.63010   0.01267  Uiso   1.00
O39    O     0.30090   0.68650   0.75800   0.01267  Uiso   1.00
O40    O     0.26480   0.68500   0.93840   0.01267  Uiso   1.00
O41    O     0.54720   0.74440   0.44360   0.01267  Uiso   1.00
O42    O     0.57150   0.87170   0.39130   0.01267  Uiso   1.00
O43    O     0.67870   0.94330   0.76990   0.01267  Uiso   1.00
O44    O     0.49530   0.78310   0.06880   0.01267  Uiso   1.00
O45    O     0.62000   0.82150   0.13100   0.01267  Uiso   1.00
O46    O     0.62760   0.63010   0.32180   0.01267  Uiso   1.00
O47    O     0.68650   0.75800   0.30090   0.01267  Uiso   1.00
O48    O     0.68500   0.93840   0.26480   0.01267  Uiso   1.00
O49    O     0.74820   0.25180   0.50000   0.01267  Uiso   1.00
O50    O     0.50000   0.74820   0.25180   0.01267  Uiso   1.00
O51    O     0.25180   0.50000   0.74820   0.01267  Uiso   1.00
O52    O     0.56955   0.43045  -0.00000   0.01267  Uiso   1.00
O53    O     0.00000   0.56955   0.43045   0.01267  Uiso   1.00
O54    O     0.43045  -0.00000   0.56955   0.01267  Uiso   1.00
