data_IZEBEV_clean
_audit_creation_date              2014-07-02
_audit_creation_method            'Materials Studio'
_symmetry_space_group_name_H-M    'P1'
_symmetry_Int_Tables_number       1
_symmetry_cell_setting            triclinic
loop_
_symmetry_equiv_pos_as_xyz
  x,y,z
_cell_length_a                    6.7700
_cell_length_b                    14.4650
_cell_length_c                    17.7730
_cell_angle_alpha                 90.0000
_cell_angle_beta                  90.0000
_cell_angle_gamma                 91.2760
loop_
_atom_site_label
_atom_site_type_symbol
_atom_site_fract_x
_atom_site_fract_y
_atom_site_fract_z
_atom_site_U_iso_or_equiv
_atom_site_adp_type
_atom_site_occupancy
Cd1    Cd    0.55700   0.86316   0.46745   0.01267  Uiso   1.00
Cd2    Cd    0.94300   0.13684   0.96745   0.01267  Uiso   1.00
Cd3    Cd    0.44300   0.13684   0.53255   0.01267  Uiso   1.00
Cd4    Cd    0.05700   0.86316   0.03255   0.01267  Uiso   1.00
Cd5    Cd    0.00000   0.00000   0.50000   0.01267  Uiso   1.00
Cd6    Cd    0.50000   0.00000   0.00000   0.01267  Uiso   1.00
H1     H     0.13270   0.02260   0.26040   0.01267  Uiso   1.00
H2     H     0.27340   0.20000   0.09440   0.01267  Uiso   1.00
H3     H     0.33900   0.27750   0.31060   0.01267  Uiso   1.00
H4     H     0.49880   0.31200   0.07960   0.01267  Uiso   1.00
H5     H     0.29780   0.36440   0.07630   0.01267  Uiso   1.00
H6     H     0.80690   0.39470   0.07720   0.01267  Uiso   1.00
H7     H     0.97780   0.53780   0.06490   0.01267  Uiso   1.00
H8     H     0.47470   0.67360   0.10150   0.01267  Uiso   1.00
H9     H     0.31460   0.53400   0.12960   0.01267  Uiso   1.00
H10    H     0.36730   0.97740   0.76040   0.01267  Uiso   1.00
H11    H     0.22660   0.80000   0.59440   0.01267  Uiso   1.00
H12    H     0.16100   0.72250   0.81060   0.01267  Uiso   1.00
H13    H     0.00120   0.68800   0.57960   0.01267  Uiso   1.00
H14    H     0.20220   0.63560   0.57630   0.01267  Uiso   1.00
H15    H     0.69310   0.60530   0.57720   0.01267  Uiso   1.00
H16    H     0.52220   0.46220   0.56490   0.01267  Uiso   1.00
H17    H     0.02530   0.32640   0.60150   0.01267  Uiso   1.00
H18    H     0.18540   0.46600   0.62960   0.01267  Uiso   1.00
H19    H     0.86730   0.97740   0.73960   0.01267  Uiso   1.00
H20    H     0.72660   0.80000   0.90560   0.01267  Uiso   1.00
H21    H     0.66100   0.72250   0.68940   0.01267  Uiso   1.00
H22    H     0.50120   0.68800   0.92040   0.01267  Uiso   1.00
H23    H     0.70220   0.63560   0.92370   0.01267  Uiso   1.00
H24    H     0.19310   0.60530   0.92280   0.01267  Uiso   1.00
H25    H     0.02220   0.46220   0.93510   0.01267  Uiso   1.00
H26    H     0.52530   0.32640   0.89850   0.01267  Uiso   1.00
H27    H     0.68540   0.46600   0.87040   0.01267  Uiso   1.00
H28    H     0.63270   0.02260   0.23960   0.01267  Uiso   1.00
H29    H     0.77340   0.20000   0.40560   0.01267  Uiso   1.00
H30    H     0.83900   0.27750   0.18940   0.01267  Uiso   1.00
H31    H     0.99880   0.31200   0.42040   0.01267  Uiso   1.00
H32    H     0.79780   0.36440   0.42370   0.01267  Uiso   1.00
H33    H     0.30690   0.39470   0.42280   0.01267  Uiso   1.00
H34    H     0.47780   0.53780   0.43510   0.01267  Uiso   1.00
H35    H     0.97470   0.67360   0.39850   0.01267  Uiso   1.00
H36    H     0.81460   0.53400   0.37040   0.01267  Uiso   1.00
C1     C     0.23740   0.14750   0.29890   0.01267  Uiso   1.00
C2     C     0.18120   0.08020   0.24490   0.01267  Uiso   1.00
C3     C     0.19830   0.10000   0.16910   0.01267  Uiso   1.00
C4     C     0.26430   0.18680   0.14550   0.01267  Uiso   1.00
C5     C     0.31630   0.25360   0.19780   0.01267  Uiso   1.00
C6     C     0.30300   0.23280   0.27530   0.01267  Uiso   1.00
C7     C     0.22690   0.12250   0.38000   0.01267  Uiso   1.00
C8     C     0.14320   0.02810   0.11410   0.01267  Uiso   1.00
C9     C     0.85200   0.70900   0.07300   0.01267  Uiso   1.00
C10    C     0.74100   0.62010   0.08810   0.01267  Uiso   1.00
C11    C     0.42200   0.36020   0.10280   0.01267  Uiso   1.00
C12    C     0.53400   0.45100   0.09890   0.01267  Uiso   1.00
C13    C     0.74200   0.45020   0.08310   0.01267  Uiso   1.00
C14    C     0.84400   0.53590   0.07660   0.01267  Uiso   1.00
C15    C     0.54400   0.61870   0.10060   0.01267  Uiso   1.00
C16    C     0.44400   0.53430   0.11240   0.01267  Uiso   1.00
C17    C     0.26260   0.85250   0.79890   0.01267  Uiso   1.00
C18    C     0.31880   0.91980   0.74490   0.01267  Uiso   1.00
C19    C     0.30170   0.90000   0.66910   0.01267  Uiso   1.00
C20    C     0.23570   0.81320   0.64550   0.01267  Uiso   1.00
C21    C     0.18370   0.74640   0.69780   0.01267  Uiso   1.00
C22    C     0.19700   0.76720   0.77530   0.01267  Uiso   1.00
C23    C     0.27310   0.87750   0.88000   0.01267  Uiso   1.00
C24    C     0.35680   0.97190   0.61410   0.01267  Uiso   1.00
C25    C     0.64800   0.29100   0.57300   0.01267  Uiso   1.00
C26    C     0.75900   0.37990   0.58810   0.01267  Uiso   1.00
C27    C     0.07800   0.63980   0.60280   0.01267  Uiso   1.00
C28    C     0.96600   0.54900   0.59890   0.01267  Uiso   1.00
C29    C     0.75800   0.54980   0.58310   0.01267  Uiso   1.00
C30    C     0.65600   0.46410   0.57660   0.01267  Uiso   1.00
C31    C     0.95600   0.38130   0.60060   0.01267  Uiso   1.00
C32    C     0.05600   0.46570   0.61240   0.01267  Uiso   1.00
C33    C     0.76260   0.85250   0.70110   0.01267  Uiso   1.00
C34    C     0.81880   0.91980   0.75510   0.01267  Uiso   1.00
C35    C     0.80170   0.90000   0.83090   0.01267  Uiso   1.00
C36    C     0.73570   0.81320   0.85450   0.01267  Uiso   1.00
C37    C     0.68370   0.74640   0.80220   0.01267  Uiso   1.00
C38    C     0.69700   0.76720   0.72470   0.01267  Uiso   1.00
C39    C     0.77310   0.87750   0.62000   0.01267  Uiso   1.00
C40    C     0.85680   0.97190   0.88590   0.01267  Uiso   1.00
C41    C     0.14800   0.29100   0.92700   0.01267  Uiso   1.00
C42    C     0.25900   0.37990   0.91190   0.01267  Uiso   1.00
C43    C     0.57800   0.63980   0.89720   0.01267  Uiso   1.00
C44    C     0.46600   0.54900   0.90110   0.01267  Uiso   1.00
C45    C     0.25800   0.54980   0.91690   0.01267  Uiso   1.00
C46    C     0.15600   0.46410   0.92340   0.01267  Uiso   1.00
C47    C     0.45600   0.38130   0.89940   0.01267  Uiso   1.00
C48    C     0.55600   0.46570   0.88760   0.01267  Uiso   1.00
C49    C     0.73740   0.14750   0.20110   0.01267  Uiso   1.00
C50    C     0.68120   0.08020   0.25510   0.01267  Uiso   1.00
C51    C     0.69830   0.10000   0.33090   0.01267  Uiso   1.00
C52    C     0.76430   0.18680   0.35450   0.01267  Uiso   1.00
C53    C     0.81630   0.25360   0.30220   0.01267  Uiso   1.00
C54    C     0.80300   0.23280   0.22470   0.01267  Uiso   1.00
C55    C     0.72690   0.12250   0.12000   0.01267  Uiso   1.00
C56    C     0.64320   0.02810   0.38590   0.01267  Uiso   1.00
C57    C     0.35200   0.70900   0.42700   0.01267  Uiso   1.00
C58    C     0.24100   0.62010   0.41190   0.01267  Uiso   1.00
C59    C     0.92200   0.36020   0.39720   0.01267  Uiso   1.00
C60    C     0.03400   0.45100   0.40110   0.01267  Uiso   1.00
C61    C     0.24200   0.45020   0.41690   0.01267  Uiso   1.00
C62    C     0.34400   0.53590   0.42340   0.01267  Uiso   1.00
C63    C     0.04400   0.61870   0.39940   0.01267  Uiso   1.00
C64    C     0.94400   0.53430   0.38760   0.01267  Uiso   1.00
O1     O     0.13420   0.04920   0.39670   0.01267  Uiso   1.00
O2     O     0.31550   0.17620   0.42510   0.01267  Uiso   1.00
O3     O     0.18060   0.04090   0.04200   0.01267  Uiso   1.00
O4     O     0.06520   0.95270   0.13510   0.01267  Uiso   1.00
O5     O     0.38870   0.33950   0.17860   0.01267  Uiso   1.00
O6     O     0.76300   0.77780   0.04810   0.01267  Uiso   1.00
O7     O     0.03620   0.71250   0.07900   0.01267  Uiso   1.00
O8     O     0.36580   0.95080   0.89670   0.01267  Uiso   1.00
O9     O     0.18450   0.82380   0.92510   0.01267  Uiso   1.00
O10    O     0.31940   0.95910   0.54200   0.01267  Uiso   1.00
O11    O     0.43480   0.04730   0.63510   0.01267  Uiso   1.00
O12    O     0.11130   0.66050   0.67860   0.01267  Uiso   1.00
O13    O     0.73700   0.22220   0.54810   0.01267  Uiso   1.00
O14    O     0.46380   0.28750   0.57900   0.01267  Uiso   1.00
O15    O     0.86580   0.95080   0.60330   0.01267  Uiso   1.00
O16    O     0.68450   0.82380   0.57490   0.01267  Uiso   1.00
O17    O     0.81940   0.95910   0.95800   0.01267  Uiso   1.00
O18    O     0.93480   0.04730   0.86490   0.01267  Uiso   1.00
O19    O     0.61130   0.66050   0.82140   0.01267  Uiso   1.00
O20    O     0.23700   0.22220   0.95190   0.01267  Uiso   1.00
O21    O     0.96380   0.28750   0.92100   0.01267  Uiso   1.00
O22    O     0.63420   0.04920   0.10330   0.01267  Uiso   1.00
O23    O     0.81550   0.17620   0.07490   0.01267  Uiso   1.00
O24    O     0.68060   0.04090   0.45800   0.01267  Uiso   1.00
O25    O     0.56520   0.95270   0.36490   0.01267  Uiso   1.00
O26    O     0.88870   0.33950   0.32140   0.01267  Uiso   1.00
O27    O     0.26300   0.77780   0.45190   0.01267  Uiso   1.00
O28    O     0.53620   0.71250   0.42100   0.01267  Uiso   1.00
