data_IZEFEZ_charged
_audit_creation_date              2014-07-02
_audit_creation_method            'Materials Studio'
_symmetry_space_group_name_H-M    'P1'
_symmetry_Int_Tables_number       1
_symmetry_cell_setting            triclinic
loop_
_symmetry_equiv_pos_as_xyz
  x,y,z
_cell_length_a                    18.7929
_cell_length_b                    19.0242
_cell_length_c                    26.2547
_cell_angle_alpha                 74.8250
_cell_angle_beta                  78.0900
_cell_angle_gamma                 64.8430
loop_
_atom_site_label
_atom_site_type_symbol
_atom_site_fract_x
_atom_site_fract_y
_atom_site_fract_z
_atom_site_U_iso_or_equiv
_atom_site_adp_type
_atom_site_occupancy
Cd1    Cd    0.97804   0.40150   0.09670   0.01267  Uiso   1.00
Cd2    Cd    0.94987   0.29536   0.25732   0.01267  Uiso   1.00
Cd3    Cd    0.93479   0.19194   0.40046   0.01267  Uiso   1.00
Cd4    Cd    0.02196   0.59850   0.90330   0.01267  Uiso   1.00
Cd5    Cd    0.05013   0.70464   0.74268   0.01267  Uiso   1.00
Cd6    Cd    0.06521   0.80806   0.59954   0.01267  Uiso   1.00
Cd7    Cd    0.00000   0.00000   0.50000   0.01267  Uiso   1.00
H1     H     0.35100   0.59890   0.24310   0.01267  Uiso   1.00
H2     H     0.37080   0.55270   0.09860   0.01267  Uiso   1.00
H3     H     0.12780   0.65370   0.21430   0.01267  Uiso   1.00
H4     H     0.99620   0.66760   0.23330   0.01267  Uiso   1.00
H5     H     0.95370   0.59200   0.20120   0.01267  Uiso   1.00
H6     H     0.17310   0.49060   0.12680   0.01267  Uiso   1.00
H7     H     0.46120   0.60750   0.27400   0.01267  Uiso   1.00
H8     H     0.53800   0.60510   0.23450   0.01267  Uiso   1.00
H9     H     0.36190   0.93530   0.19150   0.01267  Uiso   1.00
H10    H     0.33500   0.73480   0.26560   0.01267  Uiso   1.00
H11    H     0.13840   0.01720   0.26420   0.01267  Uiso   1.00
H12    H     0.91960   0.01980   0.30380   0.01267  Uiso   1.00
H13    H     0.96710   0.89050   0.29420   0.01267  Uiso   1.00
H14    H     0.09950   0.82460   0.26920   0.01267  Uiso   1.00
H15    H     0.49400   0.93170   0.16000   0.01267  Uiso   1.00
H16    H     0.56350   0.85090   0.14940   0.01267  Uiso   1.00
H17    H     0.40060   0.01110   0.09670   0.01267  Uiso   1.00
H18    H     0.42890   0.95480   0.95690   0.01267  Uiso   1.00
H19    H     0.20820   0.17950   0.03500   0.01267  Uiso   1.00
H20    H     0.08240   0.34150   0.91870   0.01267  Uiso   1.00
H21    H     0.16470   0.26700   0.85680   0.01267  Uiso   1.00
H22    H     0.27270   0.15270   0.88260   0.01267  Uiso   1.00
H23    H     0.60790   0.78090   0.98080   0.01267  Uiso   1.00
H24    H     0.55600   0.84010   0.93520   0.01267  Uiso   1.00
H25    H     0.45420   0.81080   0.91220   0.01267  Uiso   1.00
H26    H     0.41820   0.61270   0.98180   0.01267  Uiso   1.00
H27    H     0.30930   0.82820   0.80890   0.01267  Uiso   1.00
H28    H     0.21240   0.85900   0.75460   0.01267  Uiso   1.00
H29    H     0.13150   0.78880   0.77510   0.01267  Uiso   1.00
H30    H     0.24510   0.65730   0.90280   0.01267  Uiso   1.00
H31    H     0.50100   0.51280   0.04660   0.01267  Uiso   1.00
H32    H     0.57060   0.52580   0.06260   0.01267  Uiso   1.00
H33    H     0.05340   0.39880   0.56920   0.01267  Uiso   1.00
H34    H     0.17180   0.52390   0.47220   0.01267  Uiso   1.00
H35    H     0.18010   0.46740   0.32980   0.01267  Uiso   1.00
H36    H     0.16450   0.41930   0.26120   0.01267  Uiso   1.00
H37    H     0.08730   0.34570   0.27810   0.01267  Uiso   1.00
H38    H     0.04070   0.36850   0.43140   0.01267  Uiso   1.00
H39    H     0.04940   0.45720   0.68770   0.01267  Uiso   1.00
H40    H     0.00740   0.41940   0.66260   0.01267  Uiso   1.00
H41    H     0.08130   0.28020   0.64810   0.01267  Uiso   1.00
H42    H     0.27970   0.13850   0.71820   0.01267  Uiso   1.00
H43    H     0.13470   0.07620   0.60610   0.01267  Uiso   1.00
H44    H     0.22970   0.84400   0.60190   0.01267  Uiso   1.00
H45    H     0.32830   0.82310   0.65110   0.01267  Uiso   1.00
H46    H     0.32980   0.92980   0.67910   0.01267  Uiso   1.00
H47    H     0.31750   0.18910   0.78200   0.01267  Uiso   1.00
H48    H     0.28050   0.28120   0.78170   0.01267  Uiso   1.00
H49    H     0.43930   0.13170   0.73130   0.01267  Uiso   1.00
H50    H     0.55390   0.26330   0.63860   0.01267  Uiso   1.00
H51    H     0.64800   0.96920   0.72120   0.01267  Uiso   1.00
H52    H     0.75590   0.84720   0.72070   0.01267  Uiso   1.00
H53    H     0.86770   0.84160   0.65870   0.01267  Uiso   1.00
H54    H     0.76040   0.07610   0.60640   0.01267  Uiso   1.00
H55    H     0.50260   0.40430   0.63380   0.01267  Uiso   1.00
H56    H     0.42000   0.44710   0.66530   0.01267  Uiso   1.00
H57    H     0.50780   0.39500   0.54100   0.01267  Uiso   1.00
H58    H     0.32110   0.53780   0.46090   0.01267  Uiso   1.00
H59    H     0.67780   0.34010   0.41970   0.01267  Uiso   1.00
H60    H     0.69140   0.33870   0.26530   0.01267  Uiso   1.00
H61    H     0.55500   0.38670   0.27140   0.01267  Uiso   1.00
H62    H     0.47900   0.42080   0.35050   0.01267  Uiso   1.00
H63    H     0.19060   0.61410   0.56720   0.01267  Uiso   1.00
H64    H     0.19860   0.61880   0.50520   0.01267  Uiso   1.00
H65    H     0.58290   0.59350   0.16340   0.01267  Uiso   1.00
H66    H     0.57950   0.74000   0.14750   0.01267  Uiso   1.00
H67    H     0.57020   0.74760   0.06840   0.01267  Uiso   1.00
H68    H     0.58710   0.62220   0.06860   0.01267  Uiso   1.00
H69    H     0.17600   0.53410   0.63970   0.01267  Uiso   1.00
H70    H     0.21270   0.37740   0.74660   0.01267  Uiso   1.00
H71    H     0.28080   0.37960   0.73070   0.01267  Uiso   1.00
H72    H     0.29020   0.46670   0.65820   0.01267  Uiso   1.00
H73    H     0.10520   0.19770   0.19670   0.01267  Uiso   1.00
H74    H     0.29760   0.13130   0.17660   0.01267  Uiso   1.00
H75    H     0.22880   0.11490   0.16250   0.01267  Uiso   1.00
H76    H     0.27150   0.16310   0.11850   0.01267  Uiso   1.00
H77    H     0.17860   0.33450   0.18490   0.01267  Uiso   1.00
H78    H     0.26680   0.27150   0.18830   0.01267  Uiso   1.00
H79    H     0.23460   0.31360   0.13230   0.01267  Uiso   1.00
H80    H     0.79380   0.23930   0.48140   0.01267  Uiso   1.00
H81    H     0.68540   0.27580   0.54080   0.01267  Uiso   1.00
H82    H     0.69410   0.22170   0.59820   0.01267  Uiso   1.00
H83    H     0.70080   0.30480   0.58730   0.01267  Uiso   1.00
H84    H     0.90230   0.15810   0.58800   0.01267  Uiso   1.00
H85    H     0.84360   0.22540   0.61930   0.01267  Uiso   1.00
H86    H     0.83000   0.14640   0.62700   0.01267  Uiso   1.00
H87    H     0.93610   0.45050   0.22880   0.01267  Uiso   1.00
H88    H     0.90200   0.45140   0.27870   0.01267  Uiso   1.00
H89    H     0.64900   0.40110   0.75690   0.01267  Uiso   1.00
H90    H     0.62920   0.44730   0.90140   0.01267  Uiso   1.00
H91    H     0.87220   0.34630   0.78570   0.01267  Uiso   1.00
H92    H     0.00380   0.33240   0.76670   0.01267  Uiso   1.00
H93    H     0.04630   0.40800   0.79880   0.01267  Uiso   1.00
H94    H     0.82690   0.50940   0.87320   0.01267  Uiso   1.00
H95    H     0.53880   0.39250   0.72600   0.01267  Uiso   1.00
H96    H     0.46200   0.39490   0.76550   0.01267  Uiso   1.00
H97    H     0.63810   0.06470   0.80850   0.01267  Uiso   1.00
H98    H     0.66500   0.26520   0.73440   0.01267  Uiso   1.00
H99    H     0.86160   0.98280   0.73580   0.01267  Uiso   1.00
H100   H     0.08040   0.98020   0.69620   0.01267  Uiso   1.00
H101   H     0.03290   0.10950   0.70580   0.01267  Uiso   1.00
H102   H     0.90050   0.17540   0.73080   0.01267  Uiso   1.00
H103   H     0.50600   0.06830   0.84000   0.01267  Uiso   1.00
H104   H     0.43650   0.14910   0.85060   0.01267  Uiso   1.00
H105   H     0.59940   0.98890   0.90330   0.01267  Uiso   1.00
H106   H     0.57110   0.04520   0.04310   0.01267  Uiso   1.00
H107   H     0.79180   0.82050   0.96500   0.01267  Uiso   1.00
H108   H     0.91760   0.65850   0.08130   0.01267  Uiso   1.00
H109   H     0.83530   0.73300   0.14320   0.01267  Uiso   1.00
H110   H     0.72730   0.84730   0.11740   0.01267  Uiso   1.00
H111   H     0.39210   0.21910   0.01920   0.01267  Uiso   1.00
H112   H     0.44400   0.15990   0.06480   0.01267  Uiso   1.00
H113   H     0.54580   0.18920   0.08780   0.01267  Uiso   1.00
H114   H     0.58180   0.38730   0.01820   0.01267  Uiso   1.00
H115   H     0.69070   0.17180   0.19110   0.01267  Uiso   1.00
H116   H     0.78760   0.14100   0.24540   0.01267  Uiso   1.00
H117   H     0.86850   0.21120   0.22490   0.01267  Uiso   1.00
H118   H     0.75490   0.34270   0.09720   0.01267  Uiso   1.00
H119   H     0.49900   0.48720   0.95340   0.01267  Uiso   1.00
H120   H     0.42940   0.47420   0.93740   0.01267  Uiso   1.00
H121   H     0.94660   0.60120   0.43080   0.01267  Uiso   1.00
H122   H     0.82820   0.47610   0.52780   0.01267  Uiso   1.00
H123   H     0.81990   0.53260   0.67020   0.01267  Uiso   1.00
H124   H     0.83550   0.58070   0.73880   0.01267  Uiso   1.00
H125   H     0.91270   0.65430   0.72190   0.01267  Uiso   1.00
H126   H     0.95930   0.63150   0.56860   0.01267  Uiso   1.00
H127   H     0.95060   0.54280   0.31230   0.01267  Uiso   1.00
H128   H     0.99260   0.58060   0.33740   0.01267  Uiso   1.00
H129   H     0.91870   0.71980   0.35190   0.01267  Uiso   1.00
H130   H     0.72030   0.86150   0.28180   0.01267  Uiso   1.00
H131   H     0.86530   0.92380   0.39390   0.01267  Uiso   1.00
H132   H     0.77030   0.15600   0.39810   0.01267  Uiso   1.00
H133   H     0.67170   0.17690   0.34890   0.01267  Uiso   1.00
H134   H     0.67020   0.07020   0.32090   0.01267  Uiso   1.00
H135   H     0.68250   0.81090   0.21800   0.01267  Uiso   1.00
H136   H     0.71950   0.71880   0.21830   0.01267  Uiso   1.00
H137   H     0.56070   0.86830   0.26870   0.01267  Uiso   1.00
H138   H     0.44610   0.73670   0.36140   0.01267  Uiso   1.00
H139   H     0.35200   0.03080   0.27880   0.01267  Uiso   1.00
H140   H     0.24410   0.15280   0.27930   0.01267  Uiso   1.00
H141   H     0.13230   0.15840   0.34130   0.01267  Uiso   1.00
H142   H     0.23960   0.92390   0.39360   0.01267  Uiso   1.00
H143   H     0.49740   0.59570   0.36620   0.01267  Uiso   1.00
H144   H     0.58000   0.55290   0.33470   0.01267  Uiso   1.00
H145   H     0.49220   0.60500   0.45900   0.01267  Uiso   1.00
H146   H     0.67890   0.46220   0.53910   0.01267  Uiso   1.00
H147   H     0.32220   0.65990   0.58030   0.01267  Uiso   1.00
H148   H     0.30860   0.66130   0.73470   0.01267  Uiso   1.00
H149   H     0.44500   0.61330   0.72860   0.01267  Uiso   1.00
H150   H     0.52100   0.57920   0.64950   0.01267  Uiso   1.00
H151   H     0.80940   0.38590   0.43280   0.01267  Uiso   1.00
H152   H     0.80140   0.38120   0.49480   0.01267  Uiso   1.00
H153   H     0.41710   0.40650   0.83660   0.01267  Uiso   1.00
H154   H     0.42050   0.26000   0.85250   0.01267  Uiso   1.00
H155   H     0.42980   0.25240   0.93160   0.01267  Uiso   1.00
H156   H     0.41290   0.37780   0.93140   0.01267  Uiso   1.00
H157   H     0.82400   0.46590   0.36030   0.01267  Uiso   1.00
H158   H     0.78730   0.62260   0.25340   0.01267  Uiso   1.00
H159   H     0.71920   0.62040   0.26930   0.01267  Uiso   1.00
H160   H     0.70980   0.53330   0.34180   0.01267  Uiso   1.00
H161   H     0.89480   0.80230   0.80330   0.01267  Uiso   1.00
H162   H     0.70240   0.86870   0.82340   0.01267  Uiso   1.00
H163   H     0.77120   0.88510   0.83750   0.01267  Uiso   1.00
H164   H     0.72850   0.83690   0.88150   0.01267  Uiso   1.00
H165   H     0.82140   0.66550   0.81510   0.01267  Uiso   1.00
H166   H     0.73320   0.72850   0.81170   0.01267  Uiso   1.00
H167   H     0.76540   0.68640   0.86770   0.01267  Uiso   1.00
H168   H     0.20620   0.76070   0.51860   0.01267  Uiso   1.00
H169   H     0.31460   0.72420   0.45920   0.01267  Uiso   1.00
H170   H     0.30590   0.77830   0.40180   0.01267  Uiso   1.00
H171   H     0.29920   0.69520   0.41270   0.01267  Uiso   1.00
H172   H     0.09770   0.84190   0.41200   0.01267  Uiso   1.00
H173   H     0.15640   0.77460   0.38070   0.01267  Uiso   1.00
H174   H     0.17000   0.85360   0.37300   0.01267  Uiso   1.00
H175   H     0.06390   0.54950   0.77120   0.01267  Uiso   1.00
H176   H     0.09800   0.54860   0.72130   0.01267  Uiso   1.00
C1     C     0.49780   0.58030   0.15090   0.01267  Uiso   1.00
C2     C     0.45440   0.59620   0.19920   0.01267  Uiso   1.00
C3     C     0.38030   0.59140   0.20990   0.01267  Uiso   1.00
C4     C     0.34890   0.57560   0.17250   0.01267  Uiso   1.00
C5     C     0.39250   0.56240   0.12400   0.01267  Uiso   1.00
C6     C     0.46840   0.56320   0.11220   0.01267  Uiso   1.00
C7     C     0.16340   0.56930   0.17000   0.01267  Uiso   1.00
C8     C     0.11050   0.62300   0.20100   0.01267  Uiso   1.00
C9     C     0.03190   0.63130   0.21230   0.01267  Uiso   1.00
C10    C     0.00660   0.58670   0.19280   0.01267  Uiso   1.00
C11    C     0.05820   0.53340   0.16070   0.01267  Uiso   1.00
C12    C     0.13770   0.52540   0.14880   0.01267  Uiso   1.00
C13    C     0.02970   0.48620   0.13830   0.01267  Uiso   1.00
C14    C     0.48020   0.62630   0.23750   0.01267  Uiso   1.00
C15    C     0.49340   0.75670   0.19460   0.01267  Uiso   1.00
C16    C     0.46060   0.83820   0.18310   0.01267  Uiso   1.00
C17    C     0.38310   0.87970   0.20020   0.01267  Uiso   1.00
C18    C     0.33890   0.84370   0.22790   0.01267  Uiso   1.00
C19    C     0.36740   0.75990   0.24400   0.01267  Uiso   1.00
C20    C     0.44800   0.71540   0.22590   0.01267  Uiso   1.00
C21    C     0.13030   0.91320   0.26580   0.01267  Uiso   1.00
C22    C     0.10300   0.99190   0.27060   0.01267  Uiso   1.00
C23    C     0.02410   0.03210   0.28480   0.01267  Uiso   1.00
C24    C     0.97380   0.99310   0.29370   0.01267  Uiso   1.00
C25    C     0.00180   0.91640   0.28810   0.01267  Uiso   1.00
C26    C     0.08030   0.87720   0.27370   0.01267  Uiso   1.00
C27    C     0.99160   0.11710   0.29290   0.01267  Uiso   1.00
C28    C     0.50680   0.88290   0.14770   0.01267  Uiso   1.00
C29    C     0.52700   0.85000   0.05870   0.01267  Uiso   1.00
C30    C     0.48880   0.90310   0.09170   0.01267  Uiso   1.00
C31    C     0.42690   0.97450   0.07410   0.01267  Uiso   1.00
C32    C     0.40490   0.99120   0.02630   0.01267  Uiso   1.00
C33    C     0.44400   0.94130   0.99130   0.01267  Uiso   1.00
C34    C     0.50910   0.86710   0.00800   0.01267  Uiso   1.00
C35    C     0.25120   0.15630   0.96050   0.01267  Uiso   1.00
C36    C     0.19930   0.19840   0.99900   0.01267  Uiso   1.00
C37    C     0.13530   0.26760   0.98430   0.01267  Uiso   1.00
C38    C     0.12440   0.29360   0.92980   0.01267  Uiso   1.00
C39    C     0.17430   0.25000   0.89260   0.01267  Uiso   1.00
C40    C     0.23810   0.18190   0.90800   0.01267  Uiso   1.00
C41    C     0.08010   0.31530   0.02370   0.01267  Uiso   1.00
C42    C     0.55360   0.80990   0.97150   0.01267  Uiso   1.00
C43    C     0.53390   0.67950   0.01210   0.01267  Uiso   1.00
C44    C     0.51900   0.75000   0.97260   0.01267  Uiso   1.00
C45    C     0.46560   0.76460   0.93870   0.01267  Uiso   1.00
C46    C     0.42730   0.71460   0.94140   0.01267  Uiso   1.00
C47    C     0.44380   0.64650   0.97980   0.01267  Uiso   1.00
C48    C     0.49710   0.62670   0.01550   0.01267  Uiso   1.00
C49    C     0.28580   0.73910   0.86170   0.01267  Uiso   1.00
C50    C     0.27650   0.79990   0.81710   0.01267  Uiso   1.00
C51    C     0.21870   0.81830   0.78490   0.01267  Uiso   1.00
C52    C     0.17020   0.77680   0.79740   0.01267  Uiso   1.00
C53    C     0.17800   0.71850   0.84170   0.01267  Uiso   1.00
C54    C     0.23790   0.69900   0.87320   0.01267  Uiso   1.00
C55    C     0.12400   0.67520   0.85890   0.01267  Uiso   1.00
C56    C     0.51400   0.55020   0.05870   0.01267  Uiso   1.00
C57    C     0.12640   0.50700   0.59990   0.01267  Uiso   1.00
C58    C     0.08690   0.45630   0.60820   0.01267  Uiso   1.00
C59    C     0.07970   0.43290   0.56440   0.01267  Uiso   1.00
C60    C     0.10990   0.45840   0.51410   0.01267  Uiso   1.00
C61    C     0.15020   0.50740   0.50650   0.01267  Uiso   1.00
C62    C     0.15870   0.53230   0.54920   0.01267  Uiso   1.00
C63    C     0.11320   0.42190   0.38660   0.01267  Uiso   1.00
C64    C     0.14910   0.43750   0.33660   0.01267  Uiso   1.00
C65    C     0.13970   0.40880   0.29560   0.01267  Uiso   1.00
C66    C     0.09380   0.36500   0.30560   0.01267  Uiso   1.00
C67    C     0.05730   0.34950   0.35660   0.01267  Uiso   1.00
C68    C     0.06610   0.37820   0.39710   0.01267  Uiso   1.00
C69    C     0.00870   0.30060   0.37020   0.01267  Uiso   1.00
C70    C     0.05800   0.42250   0.66330   0.01267  Uiso   1.00
C71    C     0.17810   0.32830   0.71280   0.01267  Uiso   1.00
C72    C     0.11880   0.33990   0.68300   0.01267  Uiso   1.00
C73    C     0.12130   0.27390   0.66740   0.01267  Uiso   1.00
C74    C     0.18050   0.19980   0.67960   0.01267  Uiso   1.00
C75    C     0.23960   0.18900   0.70950   0.01267  Uiso   1.00
C76    C     0.23900   0.25320   0.72640   0.01267  Uiso   1.00
C77    C     0.23140   0.01240   0.64610   0.01267  Uiso   1.00
C78    C     0.17360   0.02510   0.61540   0.01267  Uiso   1.00
C79    C     0.17370   0.96230   0.59850   0.01267  Uiso   1.00
C80    C     0.23080   0.88680   0.61260   0.01267  Uiso   1.00
C81    C     0.28920   0.87420   0.64230   0.01267  Uiso   1.00
C82    C     0.28990   0.93770   0.65910   0.01267  Uiso   1.00
C83    C     0.10920   0.97560   0.56610   0.01267  Uiso   1.00
C84    C     0.30220   0.24170   0.75890   0.01267  Uiso   1.00
C85    C     0.37720   0.32440   0.70140   0.01267  Uiso   1.00
C86    C     0.37430   0.24940   0.72480   0.01267  Uiso   1.00
C87    C     0.44040   0.18170   0.71580   0.01267  Uiso   1.00
C88    C     0.50640   0.18640   0.68500   0.01267  Uiso   1.00
C89    C     0.50860   0.26050   0.66060   0.01267  Uiso   1.00
C90    C     0.44490   0.32940   0.66860   0.01267  Uiso   1.00
C91    C     0.69400   0.03190   0.66300   0.01267  Uiso   1.00
C92    C     0.69290   0.96630   0.69670   0.01267  Uiso   1.00
C93    C     0.75740   0.89300   0.69670   0.01267  Uiso   1.00
C94    C     0.82380   0.88970   0.66010   0.01267  Uiso   1.00
C95    C     0.82350   0.95810   0.62630   0.01267  Uiso   1.00
C96    C     0.75880   0.02920   0.62880   0.01267  Uiso   1.00
C97    C     0.89380   0.95650   0.58640   0.01267  Uiso   1.00
C98    C     0.44740   0.40990   0.64110   0.01267  Uiso   1.00
C99    C     0.32910   0.49330   0.58830   0.01267  Uiso   1.00
C100   C     0.40960   0.44490   0.58900   0.01267  Uiso   1.00
C101   C     0.45410   0.42910   0.54130   0.01267  Uiso   1.00
C102   C     0.42070   0.46290   0.49360   0.01267  Uiso   1.00
C103   C     0.34260   0.51380   0.49350   0.01267  Uiso   1.00
C104   C     0.29450   0.53080   0.54030   0.01267  Uiso   1.00
C105   C     0.57160   0.38320   0.39250   0.01267  Uiso   1.00
C106   C     0.65310   0.35130   0.38920   0.01267  Uiso   1.00
C107   C     0.69910   0.33560   0.34210   0.01267  Uiso   1.00
C108   C     0.66120   0.34960   0.29770   0.01267  Uiso   1.00
C109   C     0.57990   0.37920   0.30120   0.01267  Uiso   1.00
C110   C     0.53450   0.39810   0.34860   0.01267  Uiso   1.00
C111   C     0.78740   0.30740   0.33830   0.01267  Uiso   1.00
C112   C     0.20770   0.58240   0.53960   0.01267  Uiso   1.00
C113   C     0.11990   0.24050   0.19250   0.01267  Uiso   1.00
C114   C     0.25320   0.15270   0.15590   0.01267  Uiso   1.00
C115   C     0.22090   0.29260   0.16910   0.01267  Uiso   1.00
C116   C     0.82900   0.21950   0.50740   0.01267  Uiso   1.00
C117   C     0.71230   0.25900   0.57230   0.01267  Uiso   1.00
C118   C     0.84770   0.18460   0.60180   0.01267  Uiso   1.00
C119   C     0.83660   0.52570   0.02070   0.01267  Uiso   1.00
C120   C     0.82870   0.49790   0.97870   0.01267  Uiso   1.00
C121   C     0.50220   0.41970   0.84910   0.01267  Uiso   1.00
C122   C     0.54560   0.40380   0.80080   0.01267  Uiso   1.00
C123   C     0.61970   0.40860   0.79010   0.01267  Uiso   1.00
C124   C     0.65110   0.42440   0.82750   0.01267  Uiso   1.00
C125   C     0.60750   0.43760   0.87600   0.01267  Uiso   1.00
C126   C     0.53160   0.43680   0.88780   0.01267  Uiso   1.00
C127   C     0.83660   0.43070   0.83000   0.01267  Uiso   1.00
C128   C     0.88950   0.37700   0.79900   0.01267  Uiso   1.00
C129   C     0.96810   0.36870   0.78770   0.01267  Uiso   1.00
C130   C     0.99340   0.41330   0.80720   0.01267  Uiso   1.00
C131   C     0.94180   0.46660   0.83930   0.01267  Uiso   1.00
C132   C     0.86230   0.47460   0.85120   0.01267  Uiso   1.00
C133   C     0.97030   0.51380   0.86170   0.01267  Uiso   1.00
C134   C     0.51980   0.37370   0.76250   0.01267  Uiso   1.00
C135   C     0.50660   0.24330   0.80540   0.01267  Uiso   1.00
C136   C     0.53940   0.16180   0.81690   0.01267  Uiso   1.00
C137   C     0.61690   0.12030   0.79980   0.01267  Uiso   1.00
C138   C     0.66110   0.15630   0.77210   0.01267  Uiso   1.00
C139   C     0.63260   0.24010   0.75600   0.01267  Uiso   1.00
C140   C     0.55200   0.28460   0.77410   0.01267  Uiso   1.00
C141   C     0.86970   0.08680   0.73420   0.01267  Uiso   1.00
C142   C     0.89700   0.00810   0.72940   0.01267  Uiso   1.00
C143   C     0.97590   0.96790   0.71520   0.01267  Uiso   1.00
C144   C     0.02620   0.00690   0.70630   0.01267  Uiso   1.00
C145   C     0.99820   0.08360   0.71190   0.01267  Uiso   1.00
C146   C     0.91970   0.12280   0.72630   0.01267  Uiso   1.00
C147   C     0.00840   0.88290   0.70710   0.01267  Uiso   1.00
C148   C     0.49320   0.11710   0.85230   0.01267  Uiso   1.00
C149   C     0.47300   0.15000   0.94130   0.01267  Uiso   1.00
C150   C     0.51120   0.09690   0.90830   0.01267  Uiso   1.00
C151   C     0.57310   0.02550   0.92590   0.01267  Uiso   1.00
C152   C     0.59510   0.00880   0.97370   0.01267  Uiso   1.00
C153   C     0.55600   0.05870   0.00870   0.01267  Uiso   1.00
C154   C     0.49090   0.13290   0.99200   0.01267  Uiso   1.00
C155   C     0.74880   0.84370   0.03950   0.01267  Uiso   1.00
C156   C     0.80070   0.80160   0.00100   0.01267  Uiso   1.00
C157   C     0.86470   0.73240   0.01570   0.01267  Uiso   1.00
C158   C     0.87560   0.70640   0.07020   0.01267  Uiso   1.00
C159   C     0.82570   0.75000   0.10740   0.01267  Uiso   1.00
C160   C     0.76190   0.81810   0.09200   0.01267  Uiso   1.00
C161   C     0.91990   0.68470   0.97630   0.01267  Uiso   1.00
C162   C     0.44640   0.19010   0.02850   0.01267  Uiso   1.00
C163   C     0.46610   0.32050   0.98790   0.01267  Uiso   1.00
C164   C     0.48100   0.25000   0.02740   0.01267  Uiso   1.00
C165   C     0.53440   0.23540   0.06130   0.01267  Uiso   1.00
C166   C     0.57270   0.28540   0.05860   0.01267  Uiso   1.00
C167   C     0.55620   0.35350   0.02020   0.01267  Uiso   1.00
C168   C     0.50290   0.37330   0.98450   0.01267  Uiso   1.00
C169   C     0.71420   0.26090   0.13830   0.01267  Uiso   1.00
C170   C     0.72350   0.20010   0.18290   0.01267  Uiso   1.00
C171   C     0.78130   0.18170   0.21510   0.01267  Uiso   1.00
C172   C     0.82980   0.22320   0.20260   0.01267  Uiso   1.00
C173   C     0.82200   0.28150   0.15830   0.01267  Uiso   1.00
C174   C     0.76210   0.30100   0.12680   0.01267  Uiso   1.00
C175   C     0.87600   0.32480   0.14110   0.01267  Uiso   1.00
C176   C     0.48600   0.44980   0.94130   0.01267  Uiso   1.00
C177   C     0.87360   0.49300   0.40010   0.01267  Uiso   1.00
C178   C     0.91310   0.54370   0.39180   0.01267  Uiso   1.00
C179   C     0.92030   0.56710   0.43560   0.01267  Uiso   1.00
C180   C     0.89010   0.54160   0.48590   0.01267  Uiso   1.00
C181   C     0.84980   0.49260   0.49350   0.01267  Uiso   1.00
C182   C     0.84130   0.46770   0.45080   0.01267  Uiso   1.00
C183   C     0.88680   0.57810   0.61340   0.01267  Uiso   1.00
C184   C     0.85090   0.56250   0.66340   0.01267  Uiso   1.00
C185   C     0.86030   0.59120   0.70440   0.01267  Uiso   1.00
C186   C     0.90620   0.63500   0.69440   0.01267  Uiso   1.00
C187   C     0.94270   0.65050   0.64340   0.01267  Uiso   1.00
C188   C     0.93390   0.62180   0.60290   0.01267  Uiso   1.00
C189   C     0.99130   0.69940   0.62980   0.01267  Uiso   1.00
C190   C     0.94200   0.57750   0.33670   0.01267  Uiso   1.00
C191   C     0.82190   0.67170   0.28720   0.01267  Uiso   1.00
C192   C     0.88120   0.66010   0.31700   0.01267  Uiso   1.00
C193   C     0.87870   0.72610   0.33260   0.01267  Uiso   1.00
C194   C     0.81950   0.80020   0.32040   0.01267  Uiso   1.00
C195   C     0.76040   0.81100   0.29050   0.01267  Uiso   1.00
C196   C     0.76100   0.74680   0.27360   0.01267  Uiso   1.00
C197   C     0.76860   0.98760   0.35390   0.01267  Uiso   1.00
C198   C     0.82640   0.97490   0.38460   0.01267  Uiso   1.00
C199   C     0.82630   0.03770   0.40150   0.01267  Uiso   1.00
C200   C     0.76920   0.11320   0.38740   0.01267  Uiso   1.00
C201   C     0.71080   0.12580   0.35770   0.01267  Uiso   1.00
C202   C     0.71010   0.06230   0.34090   0.01267  Uiso   1.00
C203   C     0.89080   0.02440   0.43390   0.01267  Uiso   1.00
C204   C     0.69780   0.75830   0.24110   0.01267  Uiso   1.00
C205   C     0.62280   0.67560   0.29860   0.01267  Uiso   1.00
C206   C     0.62570   0.75060   0.27520   0.01267  Uiso   1.00
C207   C     0.55960   0.81830   0.28420   0.01267  Uiso   1.00
C208   C     0.49360   0.81360   0.31500   0.01267  Uiso   1.00
C209   C     0.49140   0.73950   0.33940   0.01267  Uiso   1.00
C210   C     0.55510   0.67060   0.33140   0.01267  Uiso   1.00
C211   C     0.30600   0.96810   0.33700   0.01267  Uiso   1.00
C212   C     0.30710   0.03370   0.30330   0.01267  Uiso   1.00
C213   C     0.24260   0.10700   0.30330   0.01267  Uiso   1.00
C214   C     0.17620   0.11030   0.33990   0.01267  Uiso   1.00
C215   C     0.17650   0.04190   0.37370   0.01267  Uiso   1.00
C216   C     0.24120   0.97080   0.37120   0.01267  Uiso   1.00
C217   C     0.10620   0.04350   0.41360   0.01267  Uiso   1.00
C218   C     0.55260   0.59010   0.35890   0.01267  Uiso   1.00
C219   C     0.67090   0.50670   0.41170   0.01267  Uiso   1.00
C220   C     0.59040   0.55510   0.41100   0.01267  Uiso   1.00
C221   C     0.54590   0.57090   0.45870   0.01267  Uiso   1.00
C222   C     0.57930   0.53710   0.50640   0.01267  Uiso   1.00
C223   C     0.65740   0.48620   0.50650   0.01267  Uiso   1.00
C224   C     0.70550   0.46920   0.45970   0.01267  Uiso   1.00
C225   C     0.42840   0.61680   0.60750   0.01267  Uiso   1.00
C226   C     0.34690   0.64870   0.61080   0.01267  Uiso   1.00
C227   C     0.30090   0.66440   0.65790   0.01267  Uiso   1.00
C228   C     0.33880   0.65040   0.70230   0.01267  Uiso   1.00
C229   C     0.42010   0.62080   0.69880   0.01267  Uiso   1.00
C230   C     0.46550   0.60190   0.65140   0.01267  Uiso   1.00
C231   C     0.21260   0.69260   0.66170   0.01267  Uiso   1.00
C232   C     0.79230   0.41760   0.46040   0.01267  Uiso   1.00
C233   C     0.88010   0.75950   0.80750   0.01267  Uiso   1.00
C234   C     0.74680   0.84730   0.84410   0.01267  Uiso   1.00
C235   C     0.77910   0.70740   0.83090   0.01267  Uiso   1.00
C236   C     0.17100   0.78050   0.49260   0.01267  Uiso   1.00
C237   C     0.28770   0.74100   0.42770   0.01267  Uiso   1.00
C238   C     0.15230   0.81540   0.39820   0.01267  Uiso   1.00
C239   C     0.16340   0.47430   0.97930   0.01267  Uiso   1.00
C240   C     0.17130   0.50210   0.02130   0.01267  Uiso   1.00
N1     N     0.24470   0.55870   0.15600   0.01267  Uiso   1.00
N2     N     0.26990   0.58050   0.18730   0.01267  Uiso   1.00
N3     N     0.25040   0.89830   0.24060   0.01267  Uiso   1.00
N4     N     0.21560   0.85750   0.25470   0.01267  Uiso   1.00
N5     N     0.33230   0.07130   0.01320   0.01267  Uiso   1.00
N6     N     0.32340   0.07660   0.97020   0.01267  Uiso   1.00
N7     N     0.36910   0.75020   0.89530   0.01267  Uiso   1.00
N8     N     0.34730   0.70250   0.90870   0.01267  Uiso   1.00
N9     N     0.12550   0.45290   0.42700   0.01267  Uiso   1.00
N10    N     0.10010   0.42790   0.47300   0.01267  Uiso   1.00
N11    N     0.17720   0.13860   0.65930   0.01267  Uiso   1.00
N12    N     0.23530   0.07350   0.66750   0.01267  Uiso   1.00
N13    N     0.57190   0.10610   0.68500   0.01267  Uiso   1.00
N14    N     0.62810   0.11420   0.65980   0.01267  Uiso   1.00
N15    N     0.46120   0.44900   0.44230   0.01267  Uiso   1.00
N16    N     0.53130   0.39750   0.44440   0.01267  Uiso   1.00
N17    N     0.19410   0.22790   0.17160   0.01267  Uiso   1.00
N18    N     0.79840   0.22070   0.55820   0.01267  Uiso   1.00
N19    N     0.75530   0.44130   0.84400   0.01267  Uiso   1.00
N20    N     0.73010   0.41950   0.81270   0.01267  Uiso   1.00
N21    N     0.74960   0.10170   0.75940   0.01267  Uiso   1.00
N22    N     0.78440   0.14250   0.74530   0.01267  Uiso   1.00
N23    N     0.66770   0.92870   0.98680   0.01267  Uiso   1.00
N24    N     0.67660   0.92340   0.02980   0.01267  Uiso   1.00
N25    N     0.63090   0.24980   0.10470   0.01267  Uiso   1.00
N26    N     0.65270   0.29750   0.09130   0.01267  Uiso   1.00
N27    N     0.87450   0.54710   0.57300   0.01267  Uiso   1.00
N28    N     0.89990   0.57210   0.52700   0.01267  Uiso   1.00
N29    N     0.82280   0.86140   0.34070   0.01267  Uiso   1.00
N30    N     0.76470   0.92650   0.33250   0.01267  Uiso   1.00
N31    N     0.42810   0.89390   0.31500   0.01267  Uiso   1.00
N32    N     0.37190   0.88580   0.34020   0.01267  Uiso   1.00
N33    N     0.53880   0.55100   0.55770   0.01267  Uiso   1.00
N34    N     0.46870   0.60250   0.55560   0.01267  Uiso   1.00
N35    N     0.80590   0.77210   0.82840   0.01267  Uiso   1.00
N36    N     0.20160   0.77930   0.44180   0.01267  Uiso   1.00
O1     O     0.57150   0.58230   0.13850   0.01267  Uiso   1.00
O2     O     0.57070   0.71420   0.17810   0.01267  Uiso   1.00
O3     O     0.58600   0.77860   0.07650   0.01267  Uiso   1.00
O4     O     0.58350   0.66420   0.04750   0.01267  Uiso   1.00
O5     O     0.96380   0.48370   0.15610   0.01267  Uiso   1.00
O6     O     0.07260   0.45070   0.10170   0.01267  Uiso   1.00
O7     O     0.00920   0.16580   0.25640   0.01267  Uiso   1.00
O8     O     0.94750   0.13140   0.33330   0.01267  Uiso   1.00
O9     O     0.07720   0.28500   0.07210   0.01267  Uiso   1.00
O10    O     0.03470   0.38510   0.00790   0.01267  Uiso   1.00
O11    O     0.12230   0.63800   0.90530   0.01267  Uiso   1.00
O12    O     0.08190   0.67570   0.82840   0.01267  Uiso   1.00
O13    O     0.13060   0.53320   0.64218   0.01267  Uiso   1.00
O14    O     0.17480   0.39130   0.72952   0.01267  Uiso   1.00
O15    O     0.31670   0.39080   0.71098   0.01267  Uiso   1.00
O16    O     0.28140   0.50880   0.63471   0.01267  Uiso   1.00
O17    O     0.00090   0.27180   0.33374   0.01267  Uiso   1.00
O18    O     0.98030   0.28510   0.41688   0.01267  Uiso   1.00
O19    O     0.06400   0.04540   0.54800   0.01267  Uiso   1.00
O20    O     0.10410   0.91630   0.55658   0.01267  Uiso   1.00
O21    O     0.94350   0.89060   0.57620   0.01267  Uiso   1.00
O22    O     0.89710   0.02250   0.56300   0.01267  Uiso   1.00
O23    O     0.81640   0.27980   0.38193   0.01267  Uiso   1.00
O24    O     0.82450   0.31310   0.29331   0.01267  Uiso   1.00
O25    O     0.07050   0.29650   0.20650   0.01267  Uiso   1.00
O26    O     0.89890   0.19460   0.49294   0.01267  Uiso   1.00
O27    O     0.91120   0.42760   0.25328   0.01267  Uiso   1.00
O28    O     0.89140   0.52060   0.05270   0.01267  Uiso   1.00
O29    O     0.42850   0.41770   0.86150   0.01267  Uiso   1.00
O30    O     0.42930   0.28580   0.82190   0.01267  Uiso   1.00
O31    O     0.41400   0.22140   0.92350   0.01267  Uiso   1.00
O32    O     0.41650   0.33580   0.95250   0.01267  Uiso   1.00
O33    O     0.03620   0.51630   0.84390   0.01267  Uiso   1.00
O34    O     0.92740   0.54930   0.89830   0.01267  Uiso   1.00
O35    O     0.99080   0.83420   0.74360   0.01267  Uiso   1.00
O36    O     0.05250   0.86860   0.66670   0.01267  Uiso   1.00
O37    O     0.92280   0.71500   0.92790   0.01267  Uiso   1.00
O38    O     0.96530   0.61490   0.99210   0.01267  Uiso   1.00
O39    O     0.87770   0.36200   0.09470   0.01267  Uiso   1.00
O40    O     0.91810   0.32430   0.17160   0.01267  Uiso   1.00
O41    O     0.86940   0.46680   0.35782   0.01267  Uiso   1.00
O42    O     0.82520   0.60870   0.27048   0.01267  Uiso   1.00
O43    O     0.68330   0.60920   0.28902   0.01267  Uiso   1.00
O44    O     0.71860   0.49120   0.36529   0.01267  Uiso   1.00
O45    O     0.99910   0.72820   0.66626   0.01267  Uiso   1.00
O46    O     0.01970   0.71490   0.58312   0.01267  Uiso   1.00
O47    O     0.93600   0.95460   0.45200   0.01267  Uiso   1.00
O48    O     0.89590   0.08370   0.44342   0.01267  Uiso   1.00
O49    O     0.05650   0.10940   0.42380   0.01267  Uiso   1.00
O50    O     0.10290   0.97750   0.43700   0.01267  Uiso   1.00
O51    O     0.18360   0.72020   0.61807   0.01267  Uiso   1.00
O52    O     0.17550   0.68690   0.70669   0.01267  Uiso   1.00
O53    O     0.92950   0.70350   0.79350   0.01267  Uiso   1.00
O54    O     0.10110   0.80540   0.50706   0.01267  Uiso   1.00
O55    O     0.08880   0.57240   0.74672   0.01267  Uiso   1.00
O56    O     0.10860   0.47940   0.94730   0.01267  Uiso   1.00
