data_IZEHAX_clean
_audit_creation_date              2014-07-02
_audit_creation_method            'Materials Studio'
_symmetry_space_group_name_H-M    'P1'
_symmetry_Int_Tables_number       1
_symmetry_cell_setting            triclinic
loop_
_symmetry_equiv_pos_as_xyz
  x,y,z
_cell_length_a                    9.3454
_cell_length_b                    9.8722
_cell_length_c                    12.7817
_cell_angle_alpha                 90.0000
_cell_angle_beta                  90.0000
_cell_angle_gamma                 90.8998
loop_
_atom_site_label
_atom_site_type_symbol
_atom_site_fract_x
_atom_site_fract_y
_atom_site_fract_z
_atom_site_U_iso_or_equiv
_atom_site_adp_type
_atom_site_occupancy
Cd1    Cd    0.73676   0.98739   0.25382   0.01267  Uiso   1.00
Cd2    Cd    0.76324   0.51261   0.75382   0.01267  Uiso   1.00
Cd3    Cd    0.26324   0.01261   0.74618   0.01267  Uiso   1.00
Cd4    Cd    0.23676   0.48739   0.24618   0.01267  Uiso   1.00
Cd5    Cd    0.50000   0.00000   0.50000   0.01267  Uiso   1.00
Cd6    Cd    0.00000   0.50000   0.00000   0.01267  Uiso   1.00
H1     H     0.36450   0.28550   0.88720   0.01267  Uiso   1.00
H2     H     0.47550   0.40040   0.88840   0.01267  Uiso   1.00
H3     H     0.38470   0.76220   0.91070   0.01267  Uiso   1.00
H4     H     0.49370   0.64900   0.91430   0.01267  Uiso   1.00
H5     H     0.13550   0.21450   0.38720   0.01267  Uiso   1.00
H6     H     0.02450   0.09960   0.38840   0.01267  Uiso   1.00
H7     H     0.11530   0.73780   0.41070   0.01267  Uiso   1.00
H8     H     0.00630   0.85100   0.41430   0.01267  Uiso   1.00
H9     H     0.63550   0.71450   0.11280   0.01267  Uiso   1.00
H10    H     0.52450   0.59960   0.11160   0.01267  Uiso   1.00
H11    H     0.61530   0.23780   0.08930   0.01267  Uiso   1.00
H12    H     0.50630   0.35100   0.08570   0.01267  Uiso   1.00
H13    H     0.86450   0.78550   0.61280   0.01267  Uiso   1.00
H14    H     0.97550   0.90040   0.61160   0.01267  Uiso   1.00
H15    H     0.88470   0.26220   0.58930   0.01267  Uiso   1.00
H16    H     0.99370   0.14900   0.58570   0.01267  Uiso   1.00
C1     C     0.49060   0.28420   0.76510   0.01267  Uiso   1.00
C2     C     0.49750   0.74920   0.78330   0.01267  Uiso   1.00
C3     C     0.00940   0.21580   0.26510   0.01267  Uiso   1.00
C4     C     0.00250   0.75080   0.28330   0.01267  Uiso   1.00
C5     C     0.50940   0.71580   0.23490   0.01267  Uiso   1.00
C6     C     0.50250   0.25080   0.21670   0.01267  Uiso   1.00
C7     C     0.99060   0.78420   0.73490   0.01267  Uiso   1.00
C8     C     0.99750   0.24920   0.71670   0.01267  Uiso   1.00
N1     N     0.60270   0.33990   0.71580   0.01267  Uiso   1.00
N2     N     0.62220   0.26300   0.63020   0.01267  Uiso   1.00
N3     N     0.52630   0.16750   0.62860   0.01267  Uiso   1.00
N4     N     0.43950   0.17670   0.71350   0.01267  Uiso   1.00
N5     N     0.43730   0.32860   0.85780   0.01267  Uiso   1.00
N6     N     0.60360   0.68810   0.73140   0.01267  Uiso   1.00
N7     N     0.61400   0.75500   0.64010   0.01267  Uiso   1.00
N8     N     0.51990   0.84890   0.63720   0.01267  Uiso   1.00
N9     N     0.44340   0.84920   0.72640   0.01267  Uiso   1.00
N10    N     0.45350   0.71630   0.88070   0.01267  Uiso   1.00
N11    N     0.89730   0.16010   0.21580   0.01267  Uiso   1.00
N12    N     0.87780   0.23700   0.13020   0.01267  Uiso   1.00
N13    N     0.97370   0.33250   0.12860   0.01267  Uiso   1.00
N14    N     0.06050   0.32330   0.21350   0.01267  Uiso   1.00
N15    N     0.06270   0.17140   0.35780   0.01267  Uiso   1.00
N16    N     0.89640   0.81190   0.23140   0.01267  Uiso   1.00
N17    N     0.88600   0.74500   0.14010   0.01267  Uiso   1.00
N18    N     0.98010   0.65110   0.13720   0.01267  Uiso   1.00
N19    N     0.05660   0.65080   0.22640   0.01267  Uiso   1.00
N20    N     0.04650   0.78370   0.38070   0.01267  Uiso   1.00
N21    N     0.39730   0.66010   0.28420   0.01267  Uiso   1.00
N22    N     0.37780   0.73700   0.36980   0.01267  Uiso   1.00
N23    N     0.47370   0.83250   0.37140   0.01267  Uiso   1.00
N24    N     0.56050   0.82330   0.28650   0.01267  Uiso   1.00
N25    N     0.56270   0.67140   0.14220   0.01267  Uiso   1.00
N26    N     0.39640   0.31190   0.26860   0.01267  Uiso   1.00
N27    N     0.38600   0.24500   0.35990   0.01267  Uiso   1.00
N28    N     0.48010   0.15110   0.36280   0.01267  Uiso   1.00
N29    N     0.55660   0.15080   0.27360   0.01267  Uiso   1.00
N30    N     0.54650   0.28370   0.11930   0.01267  Uiso   1.00
N31    N     0.10270   0.83990   0.78420   0.01267  Uiso   1.00
N32    N     0.12220   0.76300   0.86980   0.01267  Uiso   1.00
N33    N     0.02630   0.66750   0.87140   0.01267  Uiso   1.00
N34    N     0.93950   0.67670   0.78650   0.01267  Uiso   1.00
N35    N     0.93730   0.82860   0.64220   0.01267  Uiso   1.00
N36    N     0.10360   0.18810   0.76860   0.01267  Uiso   1.00
N37    N     0.11400   0.25500   0.85990   0.01267  Uiso   1.00
N38    N     0.01990   0.34890   0.86280   0.01267  Uiso   1.00
N39    N     0.94340   0.34920   0.77360   0.01267  Uiso   1.00
N40    N     0.95350   0.21630   0.61930   0.01267  Uiso   1.00
Cl1    Cl    0.77871   0.99901   0.45728   0.01267  Uiso   1.00
Cl2    Cl    0.72129   0.50099   0.95728   0.01267  Uiso   1.00
Cl3    Cl    0.22129   0.00099   0.54272   0.01267  Uiso   1.00
Cl4    Cl    0.27871   0.49901   0.04272   0.01267  Uiso   1.00
