data_image0
_cell_length_a       22.453
_cell_length_b       22.453
_cell_length_c       22.453
_cell_angle_alpha    90
_cell_angle_beta     90
_cell_angle_gamma    90

_symmetry_space_group_name_H-M    "P 1"
_symmetry_int_tables_number       1

loop_
  _symmetry_equiv_pos_as_xyz
  'x, y, z'

loop_
  _atom_site_label
  _atom_site_occupancy
  _atom_site_fract_x
  _atom_site_fract_y
  _atom_site_fract_z
  _atom_site_thermal_displace_type
  _atom_site_B_iso_or_equiv
  _atom_site_type_symbol
  In1      1.0000 0.32230  0.73916  0.80633  Biso   1.000  In
  C1       1.0000 0.46120  0.79500  0.60470  Biso   1.000  C
  H1       1.0000 0.42570  0.79670  0.58190  Biso   1.000  H
  C2       1.0000 0.45880  0.78660  0.66620  Biso   1.000  C
  C3       1.0000 0.51120  0.78610  0.69940  Biso   1.000  C
  H2       1.0000 0.50950  0.78050  0.74130  Biso   1.000  H
  C4       1.0000 0.51630  0.80100  0.57740  Biso   1.000  C
  C5       1.0000 0.39900  0.77980  0.69510  Biso   1.000  C
  C6       1.0000 0.56520  0.79360  0.67180  Biso   1.000  C
  C7       1.0000 0.56800  0.80190  0.60980  Biso   1.000  C
  H3       1.0000 0.60520  0.80810  0.59070  Biso   1.000  H
  C8       1.0000 0.62310  0.79460  0.70520  Biso   1.000  C
  N1       1.0000 0.52290  0.80420  0.51380  Biso   1.000  N
  O1       1.0000 0.39696  0.76140  0.74780  Biso   1.000  O
  O2       1.0000 0.62140  0.78020  0.75920  Biso   1.000  O
  O3       1.0000 0.35430  0.79350  0.66270  Biso   1.000  O
  O4       1.0000 0.66770  0.81060  0.67580  Biso   1.000  O
  O5       1.0000 0.38800  0.73600  0.87160  Biso   1.000  O
  Br1      1.0000 0.40162  0.73680  0.89179  Biso   1.000  Br
  In2      1.0000 0.67770  0.26084  0.80633  Biso   1.000  In
  C9       1.0000 0.53880  0.20500  0.60470  Biso   1.000  C
  H4       1.0000 0.57430  0.20330  0.58190  Biso   1.000  H
  C10      1.0000 0.54120  0.21340  0.66620  Biso   1.000  C
  C11      1.0000 0.48880  0.21390  0.69940  Biso   1.000  C
  H5       1.0000 0.49050  0.21950  0.74130  Biso   1.000  H
  C12      1.0000 0.48370  0.19900  0.57740  Biso   1.000  C
  C13      1.0000 0.60100  0.22020  0.69510  Biso   1.000  C
  C14      1.0000 0.43480  0.20640  0.67180  Biso   1.000  C
  C15      1.0000 0.43200  0.19810  0.60980  Biso   1.000  C
  H6       1.0000 0.39480  0.19190  0.59070  Biso   1.000  H
  C16      1.0000 0.37690  0.20540  0.70520  Biso   1.000  C
  N2       1.0000 0.47710  0.19580  0.51380  Biso   1.000  N
  O6       1.0000 0.60304  0.23860  0.74780  Biso   1.000  O
  O7       1.0000 0.37860  0.21980  0.75920  Biso   1.000  O
  O8       1.0000 0.64570  0.20650  0.66270  Biso   1.000  O
  O9       1.0000 0.33230  0.18940  0.67580  Biso   1.000  O
  O10      1.0000 0.61200  0.26400  0.87160  Biso   1.000  O
  Br2      1.0000 0.59838  0.26320  0.89179  Biso   1.000  Br
  In3      1.0000 0.67770  0.73916  0.19367  Biso   1.000  In
  C17      1.0000 0.53880  0.79500  0.39530  Biso   1.000  C
  H7       1.0000 0.57430  0.79670  0.41810  Biso   1.000  H
  C18      1.0000 0.54120  0.78660  0.33380  Biso   1.000  C
  C19      1.0000 0.48880  0.78610  0.30060  Biso   1.000  C
  H8       1.0000 0.49050  0.78050  0.25870  Biso   1.000  H
  C20      1.0000 0.48370  0.80100  0.42260  Biso   1.000  C
  C21      1.0000 0.60100  0.77980  0.30490  Biso   1.000  C
  C22      1.0000 0.43480  0.79360  0.32820  Biso   1.000  C
  C23      1.0000 0.43200  0.80190  0.39020  Biso   1.000  C
  H9       1.0000 0.39480  0.80810  0.40930  Biso   1.000  H
  C24      1.0000 0.37690  0.79460  0.29480  Biso   1.000  C
  N3       1.0000 0.47710  0.80420  0.48620  Biso   1.000  N
  O11      1.0000 0.60304  0.76140  0.25220  Biso   1.000  O
  O12      1.0000 0.37860  0.78020  0.24080  Biso   1.000  O
  O13      1.0000 0.64570  0.79350  0.33730  Biso   1.000  O
  O14      1.0000 0.33230  0.81060  0.32420  Biso   1.000  O
  O15      1.0000 0.61200  0.73600  0.12840  Biso   1.000  O
  Br3      1.0000 0.59838  0.73680  0.10821  Biso   1.000  Br
  In4      1.0000 0.32230  0.26084  0.19367  Biso   1.000  In
  C25      1.0000 0.46120  0.20500  0.39530  Biso   1.000  C
  H10      1.0000 0.42570  0.20330  0.41810  Biso   1.000  H
  C26      1.0000 0.45880  0.21340  0.33380  Biso   1.000  C
  C27      1.0000 0.51120  0.21390  0.30060  Biso   1.000  C
  H11      1.0000 0.50950  0.21950  0.25870  Biso   1.000  H
  C28      1.0000 0.51630  0.19900  0.42260  Biso   1.000  C
  C29      1.0000 0.39900  0.22020  0.30490  Biso   1.000  C
  C30      1.0000 0.56520  0.20640  0.32820  Biso   1.000  C
  C31      1.0000 0.56800  0.19810  0.39020  Biso   1.000  C
  H12      1.0000 0.60520  0.19190  0.40930  Biso   1.000  H
  C32      1.0000 0.62310  0.20540  0.29480  Biso   1.000  C
  N4       1.0000 0.52290  0.19580  0.48620  Biso   1.000  N
  O16      1.0000 0.39696  0.23860  0.25220  Biso   1.000  O
  O17      1.0000 0.62140  0.21980  0.24080  Biso   1.000  O
  O18      1.0000 0.35430  0.20650  0.33730  Biso   1.000  O
  O19      1.0000 0.66770  0.18940  0.32420  Biso   1.000  O
  O20      1.0000 0.38800  0.26400  0.12840  Biso   1.000  O
  Br4      1.0000 0.40162  0.26320  0.10821  Biso   1.000  Br
  In5      1.0000 0.80633  0.32230  0.73916  Biso   1.000  In
  C33      1.0000 0.60470  0.46120  0.79500  Biso   1.000  C
  H13      1.0000 0.58190  0.42570  0.79670  Biso   1.000  H
  C34      1.0000 0.66620  0.45880  0.78660  Biso   1.000  C
  C35      1.0000 0.69940  0.51120  0.78610  Biso   1.000  C
  H14      1.0000 0.74130  0.50950  0.78050  Biso   1.000  H
  C36      1.0000 0.57740  0.51630  0.80100  Biso   1.000  C
  C37      1.0000 0.69510  0.39900  0.77980  Biso   1.000  C
  C38      1.0000 0.67180  0.56520  0.79360  Biso   1.000  C
  C39      1.0000 0.60980  0.56800  0.80190  Biso   1.000  C
  H15      1.0000 0.59070  0.60520  0.80810  Biso   1.000  H
  C40      1.0000 0.70520  0.62310  0.79460  Biso   1.000  C
  N5       1.0000 0.51380  0.52290  0.80420  Biso   1.000  N
  O21      1.0000 0.74780  0.39696  0.76140  Biso   1.000  O
  O22      1.0000 0.75920  0.62140  0.78020  Biso   1.000  O
  O23      1.0000 0.66270  0.35430  0.79350  Biso   1.000  O
  O24      1.0000 0.67580  0.66770  0.81060  Biso   1.000  O
  O25      1.0000 0.87160  0.38800  0.73600  Biso   1.000  O
  Br5      1.0000 0.89179  0.40162  0.73680  Biso   1.000  Br
  In6      1.0000 0.80633  0.67770  0.26084  Biso   1.000  In
  C41      1.0000 0.60470  0.53880  0.20500  Biso   1.000  C
  H16      1.0000 0.58190  0.57430  0.20330  Biso   1.000  H
  C42      1.0000 0.66620  0.54120  0.21340  Biso   1.000  C
  C43      1.0000 0.69940  0.48880  0.21390  Biso   1.000  C
  H17      1.0000 0.74130  0.49050  0.21950  Biso   1.000  H
  C44      1.0000 0.57740  0.48370  0.19900  Biso   1.000  C
  C45      1.0000 0.69510  0.60100  0.22020  Biso   1.000  C
  C46      1.0000 0.67180  0.43480  0.20640  Biso   1.000  C
  C47      1.0000 0.60980  0.43200  0.19810  Biso   1.000  C
  H18      1.0000 0.59070  0.39480  0.19190  Biso   1.000  H
  C48      1.0000 0.70520  0.37690  0.20540  Biso   1.000  C
  N6       1.0000 0.51380  0.47710  0.19580  Biso   1.000  N
  O26      1.0000 0.74780  0.60304  0.23860  Biso   1.000  O
  O27      1.0000 0.75920  0.37860  0.21980  Biso   1.000  O
  O28      1.0000 0.66270  0.64570  0.20650  Biso   1.000  O
  O29      1.0000 0.67580  0.33230  0.18940  Biso   1.000  O
  O30      1.0000 0.87160  0.61200  0.26400  Biso   1.000  O
  Br6      1.0000 0.89179  0.59838  0.26320  Biso   1.000  Br
  In7      1.0000 0.19367  0.67770  0.73916  Biso   1.000  In
  C49      1.0000 0.39530  0.53880  0.79500  Biso   1.000  C
  H19      1.0000 0.41810  0.57430  0.79670  Biso   1.000  H
  C50      1.0000 0.33380  0.54120  0.78660  Biso   1.000  C
  C51      1.0000 0.30060  0.48880  0.78610  Biso   1.000  C
  H20      1.0000 0.25870  0.49050  0.78050  Biso   1.000  H
  C52      1.0000 0.42260  0.48370  0.80100  Biso   1.000  C
  C53      1.0000 0.30490  0.60100  0.77980  Biso   1.000  C
  C54      1.0000 0.32820  0.43480  0.79360  Biso   1.000  C
  C55      1.0000 0.39020  0.43200  0.80190  Biso   1.000  C
  H21      1.0000 0.40930  0.39480  0.80810  Biso   1.000  H
  C56      1.0000 0.29480  0.37690  0.79460  Biso   1.000  C
  N7       1.0000 0.48620  0.47710  0.80420  Biso   1.000  N
  O31      1.0000 0.25220  0.60304  0.76140  Biso   1.000  O
  O32      1.0000 0.24080  0.37860  0.78020  Biso   1.000  O
  O33      1.0000 0.33730  0.64570  0.79350  Biso   1.000  O
  O34      1.0000 0.32420  0.33230  0.81060  Biso   1.000  O
  O35      1.0000 0.12840  0.61200  0.73600  Biso   1.000  O
  Br7      1.0000 0.10821  0.59838  0.73680  Biso   1.000  Br
  In8      1.0000 0.19367  0.32230  0.26084  Biso   1.000  In
  C57      1.0000 0.39530  0.46120  0.20500  Biso   1.000  C
  H22      1.0000 0.41810  0.42570  0.20330  Biso   1.000  H
  C58      1.0000 0.33380  0.45880  0.21340  Biso   1.000  C
  C59      1.0000 0.30060  0.51120  0.21390  Biso   1.000  C
  H23      1.0000 0.25870  0.50950  0.21950  Biso   1.000  H
  C60      1.0000 0.42260  0.51630  0.19900  Biso   1.000  C
  C61      1.0000 0.30490  0.39900  0.22020  Biso   1.000  C
  C62      1.0000 0.32820  0.56520  0.20640  Biso   1.000  C
  C63      1.0000 0.39020  0.56800  0.19810  Biso   1.000  C
  H24      1.0000 0.40930  0.60520  0.19190  Biso   1.000  H
  C64      1.0000 0.29480  0.62310  0.20540  Biso   1.000  C
  N8       1.0000 0.48620  0.52290  0.19580  Biso   1.000  N
  O36      1.0000 0.25220  0.39696  0.23860  Biso   1.000  O
  O37      1.0000 0.24080  0.62140  0.21980  Biso   1.000  O
  O38      1.0000 0.33730  0.35430  0.20650  Biso   1.000  O
  O39      1.0000 0.32420  0.66770  0.18940  Biso   1.000  O
  O40      1.0000 0.12840  0.38800  0.26400  Biso   1.000  O
  Br8      1.0000 0.10821  0.40162  0.26320  Biso   1.000  Br
  In9      1.0000 0.73916  0.80633  0.32230  Biso   1.000  In
  C65      1.0000 0.79500  0.60470  0.46120  Biso   1.000  C
  H25      1.0000 0.79670  0.58190  0.42570  Biso   1.000  H
  C66      1.0000 0.78660  0.66620  0.45880  Biso   1.000  C
  C67      1.0000 0.78610  0.69940  0.51120  Biso   1.000  C
  H26      1.0000 0.78050  0.74130  0.50950  Biso   1.000  H
  C68      1.0000 0.80100  0.57740  0.51630  Biso   1.000  C
  C69      1.0000 0.77980  0.69510  0.39900  Biso   1.000  C
  C70      1.0000 0.79360  0.67180  0.56520  Biso   1.000  C
  C71      1.0000 0.80190  0.60980  0.56800  Biso   1.000  C
  H27      1.0000 0.80810  0.59070  0.60520  Biso   1.000  H
  C72      1.0000 0.79460  0.70520  0.62310  Biso   1.000  C
  N9       1.0000 0.80420  0.51380  0.52290  Biso   1.000  N
  O41      1.0000 0.76140  0.74780  0.39696  Biso   1.000  O
  O42      1.0000 0.78020  0.75920  0.62140  Biso   1.000  O
  O43      1.0000 0.79350  0.66270  0.35430  Biso   1.000  O
  O44      1.0000 0.81060  0.67580  0.66770  Biso   1.000  O
  O45      1.0000 0.73600  0.87160  0.38800  Biso   1.000  O
  Br9      1.0000 0.73680  0.89179  0.40162  Biso   1.000  Br
  In10     1.0000 0.26084  0.80633  0.67770  Biso   1.000  In
  C73      1.0000 0.20500  0.60470  0.53880  Biso   1.000  C
  H28      1.0000 0.20330  0.58190  0.57430  Biso   1.000  H
  C74      1.0000 0.21340  0.66620  0.54120  Biso   1.000  C
  C75      1.0000 0.21390  0.69940  0.48880  Biso   1.000  C
  H29      1.0000 0.21950  0.74130  0.49050  Biso   1.000  H
  C76      1.0000 0.19900  0.57740  0.48370  Biso   1.000  C
  C77      1.0000 0.22020  0.69510  0.60100  Biso   1.000  C
  C78      1.0000 0.20640  0.67180  0.43480  Biso   1.000  C
  C79      1.0000 0.19810  0.60980  0.43200  Biso   1.000  C
  H30      1.0000 0.19190  0.59070  0.39480  Biso   1.000  H
  C80      1.0000 0.20540  0.70520  0.37690  Biso   1.000  C
  N10      1.0000 0.19580  0.51380  0.47710  Biso   1.000  N
  O46      1.0000 0.23860  0.74780  0.60304  Biso   1.000  O
  O47      1.0000 0.21980  0.75920  0.37860  Biso   1.000  O
  O48      1.0000 0.20650  0.66270  0.64570  Biso   1.000  O
  O49      1.0000 0.18940  0.67580  0.33230  Biso   1.000  O
  O50      1.0000 0.26400  0.87160  0.61200  Biso   1.000  O
  Br10     1.0000 0.26320  0.89179  0.59838  Biso   1.000  Br
  In11     1.0000 0.73916  0.19367  0.67770  Biso   1.000  In
  C81      1.0000 0.79500  0.39530  0.53880  Biso   1.000  C
  H31      1.0000 0.79670  0.41810  0.57430  Biso   1.000  H
  C82      1.0000 0.78660  0.33380  0.54120  Biso   1.000  C
  C83      1.0000 0.78610  0.30060  0.48880  Biso   1.000  C
  H32      1.0000 0.78050  0.25870  0.49050  Biso   1.000  H
  C84      1.0000 0.80100  0.42260  0.48370  Biso   1.000  C
  C85      1.0000 0.77980  0.30490  0.60100  Biso   1.000  C
  C86      1.0000 0.79360  0.32820  0.43480  Biso   1.000  C
  C87      1.0000 0.80190  0.39020  0.43200  Biso   1.000  C
  H33      1.0000 0.80810  0.40930  0.39480  Biso   1.000  H
  C88      1.0000 0.79460  0.29480  0.37690  Biso   1.000  C
  N11      1.0000 0.80420  0.48620  0.47710  Biso   1.000  N
  O51      1.0000 0.76140  0.25220  0.60304  Biso   1.000  O
  O52      1.0000 0.78020  0.24080  0.37860  Biso   1.000  O
  O53      1.0000 0.79350  0.33730  0.64570  Biso   1.000  O
  O54      1.0000 0.81060  0.32420  0.33230  Biso   1.000  O
  O55      1.0000 0.73600  0.12840  0.61200  Biso   1.000  O
  Br11     1.0000 0.73680  0.10821  0.59838  Biso   1.000  Br
  In12     1.0000 0.26084  0.19367  0.32230  Biso   1.000  In
  C89      1.0000 0.20500  0.39530  0.46120  Biso   1.000  C
  H34      1.0000 0.20330  0.41810  0.42570  Biso   1.000  H
  C90      1.0000 0.21340  0.33380  0.45880  Biso   1.000  C
  C91      1.0000 0.21390  0.30060  0.51120  Biso   1.000  C
  H35      1.0000 0.21950  0.25870  0.50950  Biso   1.000  H
  C92      1.0000 0.19900  0.42260  0.51630  Biso   1.000  C
  C93      1.0000 0.22020  0.30490  0.39900  Biso   1.000  C
  C94      1.0000 0.20640  0.32820  0.56520  Biso   1.000  C
  C95      1.0000 0.19810  0.39020  0.56800  Biso   1.000  C
  H36      1.0000 0.19190  0.40930  0.60520  Biso   1.000  H
  C96      1.0000 0.20540  0.29480  0.62310  Biso   1.000  C
  N12      1.0000 0.19580  0.48620  0.52290  Biso   1.000  N
  O56      1.0000 0.23860  0.25220  0.39696  Biso   1.000  O
  O57      1.0000 0.21980  0.24080  0.62140  Biso   1.000  O
  O58      1.0000 0.20650  0.33730  0.35430  Biso   1.000  O
  O59      1.0000 0.18940  0.32420  0.66770  Biso   1.000  O
  O60      1.0000 0.26400  0.12840  0.38800  Biso   1.000  O
  Br12     1.0000 0.26320  0.10821  0.40162  Biso   1.000  Br
  In13     1.0000 0.23916  0.82230  0.30633  Biso   1.000  In
  C97      1.0000 0.29500  0.96120  0.10470  Biso   1.000  C
  H37      1.0000 0.29670  0.92570  0.08190  Biso   1.000  H
  C98      1.0000 0.28660  0.95880  0.16620  Biso   1.000  C
  C99      1.0000 0.28610  0.01120  0.19940  Biso   1.000  C
  H38      1.0000 0.28050  0.00950  0.24130  Biso   1.000  H
  C100     1.0000 0.30100  0.01630  0.07740  Biso   1.000  C
  C101     1.0000 0.27980  0.89900  0.19510  Biso   1.000  C
  C102     1.0000 0.29360  0.06520  0.17180  Biso   1.000  C
  C103     1.0000 0.30190  0.06800  0.10980  Biso   1.000  C
  H39      1.0000 0.30810  0.10520  0.09070  Biso   1.000  H
  C104     1.0000 0.29460  0.12310  0.20520  Biso   1.000  C
  N13      1.0000 0.30420  0.02290  0.01380  Biso   1.000  N
  O61      1.0000 0.26140  0.89696  0.24780  Biso   1.000  O
  O62      1.0000 0.28020  0.12140  0.25920  Biso   1.000  O
  O63      1.0000 0.29350  0.85430  0.16270  Biso   1.000  O
  O64      1.0000 0.31060  0.16770  0.17580  Biso   1.000  O
  O65      1.0000 0.23600  0.88800  0.37160  Biso   1.000  O
  Br13     1.0000 0.23680  0.90162  0.39179  Biso   1.000  Br
  In14     1.0000 0.76084  0.17770  0.30633  Biso   1.000  In
  C105     1.0000 0.70500  0.03880  0.10470  Biso   1.000  C
  H40      1.0000 0.70330  0.07430  0.08190  Biso   1.000  H
  C106     1.0000 0.71340  0.04120  0.16620  Biso   1.000  C
  C107     1.0000 0.71390  0.98880  0.19940  Biso   1.000  C
  H41      1.0000 0.71950  0.99050  0.24130  Biso   1.000  H
  C108     1.0000 0.69900  0.98370  0.07740  Biso   1.000  C
  C109     1.0000 0.72020  0.10100  0.19510  Biso   1.000  C
  C110     1.0000 0.70640  0.93480  0.17180  Biso   1.000  C
  C111     1.0000 0.69810  0.93200  0.10980  Biso   1.000  C
  H42      1.0000 0.69190  0.89480  0.09070  Biso   1.000  H
  C112     1.0000 0.70540  0.87690  0.20520  Biso   1.000  C
  N14      1.0000 0.69580  0.97710  0.01380  Biso   1.000  N
  O66      1.0000 0.73860  0.10304  0.24780  Biso   1.000  O
  O67      1.0000 0.71980  0.87860  0.25920  Biso   1.000  O
  O68      1.0000 0.70650  0.14570  0.16270  Biso   1.000  O
  O69      1.0000 0.68940  0.83230  0.17580  Biso   1.000  O
  O70      1.0000 0.76400  0.11200  0.37160  Biso   1.000  O
  Br14     1.0000 0.76320  0.09838  0.39179  Biso   1.000  Br
  In15     1.0000 0.23916  0.17770  0.69367  Biso   1.000  In
  C113     1.0000 0.29500  0.03880  0.89530  Biso   1.000  C
  H43      1.0000 0.29670  0.07430  0.91810  Biso   1.000  H
  C114     1.0000 0.28660  0.04120  0.83380  Biso   1.000  C
  C115     1.0000 0.28610  0.98880  0.80060  Biso   1.000  C
  H44      1.0000 0.28050  0.99050  0.75870  Biso   1.000  H
  C116     1.0000 0.30100  0.98370  0.92260  Biso   1.000  C
  C117     1.0000 0.27980  0.10100  0.80490  Biso   1.000  C
  C118     1.0000 0.29360  0.93480  0.82820  Biso   1.000  C
  C119     1.0000 0.30190  0.93200  0.89020  Biso   1.000  C
  H45      1.0000 0.30810  0.89480  0.90930  Biso   1.000  H
  C120     1.0000 0.29460  0.87690  0.79480  Biso   1.000  C
  N15      1.0000 0.30420  0.97710  0.98620  Biso   1.000  N
  O71      1.0000 0.26140  0.10304  0.75220  Biso   1.000  O
  O72      1.0000 0.28020  0.87860  0.74080  Biso   1.000  O
  O73      1.0000 0.29350  0.14570  0.83730  Biso   1.000  O
  O74      1.0000 0.31060  0.83230  0.82420  Biso   1.000  O
  O75      1.0000 0.23600  0.11200  0.62840  Biso   1.000  O
  Br15     1.0000 0.23680  0.09838  0.60821  Biso   1.000  Br
  In16     1.0000 0.76084  0.82230  0.69367  Biso   1.000  In
  C121     1.0000 0.70500  0.96120  0.89530  Biso   1.000  C
  H46      1.0000 0.70330  0.92570  0.91810  Biso   1.000  H
  C122     1.0000 0.71340  0.95880  0.83380  Biso   1.000  C
  C123     1.0000 0.71390  0.01120  0.80060  Biso   1.000  C
  H47      1.0000 0.71950  0.00950  0.75870  Biso   1.000  H
  C124     1.0000 0.69900  0.01630  0.92260  Biso   1.000  C
  C125     1.0000 0.72020  0.89900  0.80490  Biso   1.000  C
  C126     1.0000 0.70640  0.06520  0.82820  Biso   1.000  C
  C127     1.0000 0.69810  0.06800  0.89020  Biso   1.000  C
  H48      1.0000 0.69190  0.10520  0.90930  Biso   1.000  H
  C128     1.0000 0.70540  0.12310  0.79480  Biso   1.000  C
  N16      1.0000 0.69580  0.02290  0.98620  Biso   1.000  N
  O76      1.0000 0.73860  0.89696  0.75220  Biso   1.000  O
  O77      1.0000 0.71980  0.12140  0.74080  Biso   1.000  O
  O78      1.0000 0.70650  0.85430  0.83730  Biso   1.000  O
  O79      1.0000 0.68940  0.16770  0.82420  Biso   1.000  O
  O80      1.0000 0.76400  0.88800  0.62840  Biso   1.000  O
  Br16     1.0000 0.76320  0.90162  0.60821  Biso   1.000  Br
  In17     1.0000 0.82230  0.30633  0.23916  Biso   1.000  In
  C129     1.0000 0.96120  0.10470  0.29500  Biso   1.000  C
  H49      1.0000 0.92570  0.08190  0.29670  Biso   1.000  H
  C130     1.0000 0.95880  0.16620  0.28660  Biso   1.000  C
  C131     1.0000 0.01120  0.19940  0.28610  Biso   1.000  C
  H50      1.0000 0.00950  0.24130  0.28050  Biso   1.000  H
  C132     1.0000 0.01630  0.07740  0.30100  Biso   1.000  C
  C133     1.0000 0.89900  0.19510  0.27980  Biso   1.000  C
  C134     1.0000 0.06520  0.17180  0.29360  Biso   1.000  C
  C135     1.0000 0.06800  0.10980  0.30190  Biso   1.000  C
  H51      1.0000 0.10520  0.09070  0.30810  Biso   1.000  H
  C136     1.0000 0.12310  0.20520  0.29460  Biso   1.000  C
  N17      1.0000 0.02290  0.01380  0.30420  Biso   1.000  N
  O81      1.0000 0.89696  0.24780  0.26140  Biso   1.000  O
  O82      1.0000 0.12140  0.25920  0.28020  Biso   1.000  O
  O83      1.0000 0.85430  0.16270  0.29350  Biso   1.000  O
  O84      1.0000 0.16770  0.17580  0.31060  Biso   1.000  O
  O85      1.0000 0.88800  0.37160  0.23600  Biso   1.000  O
  Br17     1.0000 0.90162  0.39179  0.23680  Biso   1.000  Br
  In18     1.0000 0.17770  0.30633  0.76084  Biso   1.000  In
  C137     1.0000 0.03880  0.10470  0.70500  Biso   1.000  C
  H52      1.0000 0.07430  0.08190  0.70330  Biso   1.000  H
  C138     1.0000 0.04120  0.16620  0.71340  Biso   1.000  C
  C139     1.0000 0.98880  0.19940  0.71390  Biso   1.000  C
  H53      1.0000 0.99050  0.24130  0.71950  Biso   1.000  H
  C140     1.0000 0.98370  0.07740  0.69900  Biso   1.000  C
  C141     1.0000 0.10100  0.19510  0.72020  Biso   1.000  C
  C142     1.0000 0.93480  0.17180  0.70640  Biso   1.000  C
  C143     1.0000 0.93200  0.10980  0.69810  Biso   1.000  C
  H54      1.0000 0.89480  0.09070  0.69190  Biso   1.000  H
  C144     1.0000 0.87690  0.20520  0.70540  Biso   1.000  C
  N18      1.0000 0.97710  0.01380  0.69580  Biso   1.000  N
  O86      1.0000 0.10304  0.24780  0.73860  Biso   1.000  O
  O87      1.0000 0.87860  0.25920  0.71980  Biso   1.000  O
  O88      1.0000 0.14570  0.16270  0.70650  Biso   1.000  O
  O89      1.0000 0.83230  0.17580  0.68940  Biso   1.000  O
  O90      1.0000 0.11200  0.37160  0.76400  Biso   1.000  O
  Br18     1.0000 0.09838  0.39179  0.76320  Biso   1.000  Br
  In19     1.0000 0.17770  0.69367  0.23916  Biso   1.000  In
  C145     1.0000 0.03880  0.89530  0.29500  Biso   1.000  C
  H55      1.0000 0.07430  0.91810  0.29670  Biso   1.000  H
  C146     1.0000 0.04120  0.83380  0.28660  Biso   1.000  C
  C147     1.0000 0.98880  0.80060  0.28610  Biso   1.000  C
  H56      1.0000 0.99050  0.75870  0.28050  Biso   1.000  H
  C148     1.0000 0.98370  0.92260  0.30100  Biso   1.000  C
  C149     1.0000 0.10100  0.80490  0.27980  Biso   1.000  C
  C150     1.0000 0.93480  0.82820  0.29360  Biso   1.000  C
  C151     1.0000 0.93200  0.89020  0.30190  Biso   1.000  C
  H57      1.0000 0.89480  0.90930  0.30810  Biso   1.000  H
  C152     1.0000 0.87690  0.79480  0.29460  Biso   1.000  C
  N19      1.0000 0.97710  0.98620  0.30420  Biso   1.000  N
  O91      1.0000 0.10304  0.75220  0.26140  Biso   1.000  O
  O92      1.0000 0.87860  0.74080  0.28020  Biso   1.000  O
  O93      1.0000 0.14570  0.83730  0.29350  Biso   1.000  O
  O94      1.0000 0.83230  0.82420  0.31060  Biso   1.000  O
  O95      1.0000 0.11200  0.62840  0.23600  Biso   1.000  O
  Br19     1.0000 0.09838  0.60821  0.23680  Biso   1.000  Br
  In20     1.0000 0.82230  0.69367  0.76084  Biso   1.000  In
  C153     1.0000 0.96120  0.89530  0.70500  Biso   1.000  C
  H58      1.0000 0.92570  0.91810  0.70330  Biso   1.000  H
  C154     1.0000 0.95880  0.83380  0.71340  Biso   1.000  C
  C155     1.0000 0.01120  0.80060  0.71390  Biso   1.000  C
  H59      1.0000 0.00950  0.75870  0.71950  Biso   1.000  H
  C156     1.0000 0.01630  0.92260  0.69900  Biso   1.000  C
  C157     1.0000 0.89900  0.80490  0.72020  Biso   1.000  C
  C158     1.0000 0.06520  0.82820  0.70640  Biso   1.000  C
  C159     1.0000 0.06800  0.89020  0.69810  Biso   1.000  C
  H60      1.0000 0.10520  0.90930  0.69190  Biso   1.000  H
  C160     1.0000 0.12310  0.79480  0.70540  Biso   1.000  C
  N20      1.0000 0.02290  0.98620  0.69580  Biso   1.000  N
  O96      1.0000 0.89696  0.75220  0.73860  Biso   1.000  O
  O97      1.0000 0.12140  0.74080  0.71980  Biso   1.000  O
  O98      1.0000 0.85430  0.83730  0.70650  Biso   1.000  O
  O99      1.0000 0.16770  0.82420  0.68940  Biso   1.000  O
  O100     1.0000 0.88800  0.62840  0.76400  Biso   1.000  O
  Br20     1.0000 0.90162  0.60821  0.76320  Biso   1.000  Br
  In21     1.0000 0.30633  0.23916  0.82230  Biso   1.000  In
  C161     1.0000 0.10470  0.29500  0.96120  Biso   1.000  C
  H61      1.0000 0.08190  0.29670  0.92570  Biso   1.000  H
  C162     1.0000 0.16620  0.28660  0.95880  Biso   1.000  C
  C163     1.0000 0.19940  0.28610  0.01120  Biso   1.000  C
  H62      1.0000 0.24130  0.28050  0.00950  Biso   1.000  H
  C164     1.0000 0.07740  0.30100  0.01630  Biso   1.000  C
  C165     1.0000 0.19510  0.27980  0.89900  Biso   1.000  C
  C166     1.0000 0.17180  0.29360  0.06520  Biso   1.000  C
  C167     1.0000 0.10980  0.30190  0.06800  Biso   1.000  C
  H63      1.0000 0.09070  0.30810  0.10520  Biso   1.000  H
  C168     1.0000 0.20520  0.29460  0.12310  Biso   1.000  C
  N21      1.0000 0.01380  0.30420  0.02290  Biso   1.000  N
  O101     1.0000 0.24780  0.26140  0.89696  Biso   1.000  O
  O102     1.0000 0.25920  0.28020  0.12140  Biso   1.000  O
  O103     1.0000 0.16270  0.29350  0.85430  Biso   1.000  O
  O104     1.0000 0.17580  0.31060  0.16770  Biso   1.000  O
  O105     1.0000 0.37160  0.23600  0.88800  Biso   1.000  O
  Br21     1.0000 0.39179  0.23680  0.90162  Biso   1.000  Br
  In22     1.0000 0.30633  0.76084  0.17770  Biso   1.000  In
  C169     1.0000 0.10470  0.70500  0.03880  Biso   1.000  C
  H64      1.0000 0.08190  0.70330  0.07430  Biso   1.000  H
  C170     1.0000 0.16620  0.71340  0.04120  Biso   1.000  C
  C171     1.0000 0.19940  0.71390  0.98880  Biso   1.000  C
  H65      1.0000 0.24130  0.71950  0.99050  Biso   1.000  H
  C172     1.0000 0.07740  0.69900  0.98370  Biso   1.000  C
  C173     1.0000 0.19510  0.72020  0.10100  Biso   1.000  C
  C174     1.0000 0.17180  0.70640  0.93480  Biso   1.000  C
  C175     1.0000 0.10980  0.69810  0.93200  Biso   1.000  C
  H66      1.0000 0.09070  0.69190  0.89480  Biso   1.000  H
  C176     1.0000 0.20520  0.70540  0.87690  Biso   1.000  C
  N22      1.0000 0.01380  0.69580  0.97710  Biso   1.000  N
  O106     1.0000 0.24780  0.73860  0.10304  Biso   1.000  O
  O107     1.0000 0.25920  0.71980  0.87860  Biso   1.000  O
  O108     1.0000 0.16270  0.70650  0.14570  Biso   1.000  O
  O109     1.0000 0.17580  0.68940  0.83230  Biso   1.000  O
  O110     1.0000 0.37160  0.76400  0.11200  Biso   1.000  O
  Br22     1.0000 0.39179  0.76320  0.09838  Biso   1.000  Br
  In23     1.0000 0.69367  0.23916  0.17770  Biso   1.000  In
  C177     1.0000 0.89530  0.29500  0.03880  Biso   1.000  C
  H67      1.0000 0.91810  0.29670  0.07430  Biso   1.000  H
  C178     1.0000 0.83380  0.28660  0.04120  Biso   1.000  C
  C179     1.0000 0.80060  0.28610  0.98880  Biso   1.000  C
  H68      1.0000 0.75870  0.28050  0.99050  Biso   1.000  H
  C180     1.0000 0.92260  0.30100  0.98370  Biso   1.000  C
  C181     1.0000 0.80490  0.27980  0.10100  Biso   1.000  C
  C182     1.0000 0.82820  0.29360  0.93480  Biso   1.000  C
  C183     1.0000 0.89020  0.30190  0.93200  Biso   1.000  C
  H69      1.0000 0.90930  0.30810  0.89480  Biso   1.000  H
  C184     1.0000 0.79480  0.29460  0.87690  Biso   1.000  C
  N23      1.0000 0.98620  0.30420  0.97710  Biso   1.000  N
  O111     1.0000 0.75220  0.26140  0.10304  Biso   1.000  O
  O112     1.0000 0.74080  0.28020  0.87860  Biso   1.000  O
  O113     1.0000 0.83730  0.29350  0.14570  Biso   1.000  O
  O114     1.0000 0.82420  0.31060  0.83230  Biso   1.000  O
  O115     1.0000 0.62840  0.23600  0.11200  Biso   1.000  O
  Br23     1.0000 0.60821  0.23680  0.09838  Biso   1.000  Br
  In24     1.0000 0.69367  0.76084  0.82230  Biso   1.000  In
  C185     1.0000 0.89530  0.70500  0.96120  Biso   1.000  C
  H70      1.0000 0.91810  0.70330  0.92570  Biso   1.000  H
  C186     1.0000 0.83380  0.71340  0.95880  Biso   1.000  C
  C187     1.0000 0.80060  0.71390  0.01120  Biso   1.000  C
  H71      1.0000 0.75870  0.71950  0.00950  Biso   1.000  H
  C188     1.0000 0.92260  0.69900  0.01630  Biso   1.000  C
  C189     1.0000 0.80490  0.72020  0.89900  Biso   1.000  C
  C190     1.0000 0.82820  0.70640  0.06520  Biso   1.000  C
  C191     1.0000 0.89020  0.69810  0.06800  Biso   1.000  C
  H72      1.0000 0.90930  0.69190  0.10520  Biso   1.000  H
  C192     1.0000 0.79480  0.70540  0.12310  Biso   1.000  C
  N24      1.0000 0.98620  0.69580  0.02290  Biso   1.000  N
  O116     1.0000 0.75220  0.73860  0.89696  Biso   1.000  O
  O117     1.0000 0.74080  0.71980  0.12140  Biso   1.000  O
  O118     1.0000 0.83730  0.70650  0.85430  Biso   1.000  O
  O119     1.0000 0.82420  0.68940  0.16770  Biso   1.000  O
  O120     1.0000 0.62840  0.76400  0.88800  Biso   1.000  O
  Br24     1.0000 0.60821  0.76320  0.90162  Biso   1.000  Br
  O121     1.0000 0.25960  0.74040  0.74040  Biso   1.000  O
  O122     1.0000 0.74040  0.25960  0.74040  Biso   1.000  O
  O123     1.0000 0.74040  0.74040  0.25960  Biso   1.000  O
  O124     1.0000 0.25960  0.25960  0.25960  Biso   1.000  O
  O125     1.0000 0.24040  0.75960  0.24040  Biso   1.000  O
  O126     1.0000 0.75960  0.24040  0.24040  Biso   1.000  O
  O127     1.0000 0.24040  0.24040  0.75960  Biso   1.000  O
  O128     1.0000 0.75960  0.75960  0.75960  Biso   1.000  O
