data_image0
_cell_length_a       21.872
_cell_length_b       21.872
_cell_length_c       21.872
_cell_angle_alpha    90
_cell_angle_beta     90
_cell_angle_gamma    90

_symmetry_space_group_name_H-M    "P 1"
_symmetry_int_tables_number       1

loop_
  _symmetry_equiv_pos_as_xyz
  'x, y, z'

loop_
  _atom_site_label
  _atom_site_occupancy
  _atom_site_fract_x
  _atom_site_fract_y
  _atom_site_fract_z
  _atom_site_thermal_displace_type
  _atom_site_B_iso_or_equiv
  _atom_site_type_symbol
  Fe1      1.0000 0.26092  0.67949  0.80347  Biso   1.000  Fe
  O1       1.0000 0.34980  0.66540  0.79560  Biso   1.000  O
  O2       1.0000 0.39270  0.74990  0.75470  Biso   1.000  O
  O3       1.0000 0.62620  0.76340  0.77410  Biso   1.000  O
  O4       1.0000 0.67120  0.68090  0.81430  Biso   1.000  O
  C1       1.0000 0.39560  0.69680  0.77620  Biso   1.000  C
  C2       1.0000 0.45740  0.66920  0.78480  Biso   1.000  C
  C3       1.0000 0.46120  0.60650  0.79440  Biso   1.000  C
  H1       1.0000 0.42520  0.58300  0.79500  Biso   1.000  H
  C4       1.0000 0.51460  0.57940  0.80270  Biso   1.000  C
  C5       1.0000 0.57170  0.61280  0.80280  Biso   1.000  C
  H2       1.0000 0.60940  0.59300  0.80870  Biso   1.000  H
  C6       1.0000 0.51040  0.70250  0.78310  Biso   1.000  C
  H3       1.0000 0.50860  0.74460  0.77460  Biso   1.000  H
  C7       1.0000 0.56800  0.67480  0.79380  Biso   1.000  C
  C8       1.0000 0.62580  0.70760  0.79390  Biso   1.000  C
  N1       1.0000 0.52410  0.51260  0.80490  Biso   1.000  N
  Fe2      1.0000 0.73908  0.32051  0.80347  Biso   1.000  Fe
  O5       1.0000 0.65020  0.33460  0.79560  Biso   1.000  O
  O6       1.0000 0.60730  0.25010  0.75470  Biso   1.000  O
  O7       1.0000 0.37380  0.23660  0.77410  Biso   1.000  O
  O8       1.0000 0.32880  0.31910  0.81430  Biso   1.000  O
  C9       1.0000 0.60440  0.30320  0.77620  Biso   1.000  C
  C10      1.0000 0.54260  0.33080  0.78480  Biso   1.000  C
  C11      1.0000 0.53880  0.39350  0.79440  Biso   1.000  C
  H4       1.0000 0.57480  0.41700  0.79500  Biso   1.000  H
  C12      1.0000 0.48540  0.42060  0.80270  Biso   1.000  C
  C13      1.0000 0.42830  0.38720  0.80280  Biso   1.000  C
  H5       1.0000 0.39060  0.40700  0.80870  Biso   1.000  H
  C14      1.0000 0.48960  0.29750  0.78310  Biso   1.000  C
  H6       1.0000 0.49140  0.25540  0.77460  Biso   1.000  H
  C15      1.0000 0.43200  0.32520  0.79380  Biso   1.000  C
  C16      1.0000 0.37420  0.29240  0.79390  Biso   1.000  C
  N2       1.0000 0.47590  0.48740  0.80490  Biso   1.000  N
  Fe3      1.0000 0.73908  0.67949  0.19653  Biso   1.000  Fe
  O9       1.0000 0.65020  0.66540  0.20440  Biso   1.000  O
  O10      1.0000 0.60730  0.74990  0.24530  Biso   1.000  O
  O11      1.0000 0.37380  0.76340  0.22590  Biso   1.000  O
  O12      1.0000 0.32880  0.68090  0.18570  Biso   1.000  O
  C17      1.0000 0.60440  0.69680  0.22380  Biso   1.000  C
  C18      1.0000 0.54260  0.66920  0.21520  Biso   1.000  C
  C19      1.0000 0.53880  0.60650  0.20560  Biso   1.000  C
  H7       1.0000 0.57480  0.58300  0.20500  Biso   1.000  H
  C20      1.0000 0.48540  0.57940  0.19730  Biso   1.000  C
  C21      1.0000 0.42830  0.61280  0.19720  Biso   1.000  C
  H8       1.0000 0.39060  0.59300  0.19130  Biso   1.000  H
  C22      1.0000 0.48960  0.70250  0.21690  Biso   1.000  C
  H9       1.0000 0.49140  0.74460  0.22540  Biso   1.000  H
  C23      1.0000 0.43200  0.67480  0.20620  Biso   1.000  C
  C24      1.0000 0.37420  0.70760  0.20610  Biso   1.000  C
  N3       1.0000 0.47590  0.51260  0.19510  Biso   1.000  N
  Fe4      1.0000 0.26092  0.32051  0.19653  Biso   1.000  Fe
  O13      1.0000 0.34980  0.33460  0.20440  Biso   1.000  O
  O14      1.0000 0.39270  0.25010  0.24530  Biso   1.000  O
  O15      1.0000 0.62620  0.23660  0.22590  Biso   1.000  O
  O16      1.0000 0.67120  0.31910  0.18570  Biso   1.000  O
  C25      1.0000 0.39560  0.30320  0.22380  Biso   1.000  C
  C26      1.0000 0.45740  0.33080  0.21520  Biso   1.000  C
  C27      1.0000 0.46120  0.39350  0.20560  Biso   1.000  C
  H10      1.0000 0.42520  0.41700  0.20500  Biso   1.000  H
  C28      1.0000 0.51460  0.42060  0.19730  Biso   1.000  C
  C29      1.0000 0.57170  0.38720  0.19720  Biso   1.000  C
  H11      1.0000 0.60940  0.40700  0.19130  Biso   1.000  H
  C30      1.0000 0.51040  0.29750  0.21690  Biso   1.000  C
  H12      1.0000 0.50860  0.25540  0.22540  Biso   1.000  H
  C31      1.0000 0.56800  0.32520  0.20620  Biso   1.000  C
  C32      1.0000 0.62580  0.29240  0.20610  Biso   1.000  C
  N4       1.0000 0.52410  0.48740  0.19510  Biso   1.000  N
  Fe5      1.0000 0.80347  0.26092  0.67949  Biso   1.000  Fe
  O17      1.0000 0.79560  0.34980  0.66540  Biso   1.000  O
  O18      1.0000 0.75470  0.39270  0.74990  Biso   1.000  O
  O19      1.0000 0.77410  0.62620  0.76340  Biso   1.000  O
  O20      1.0000 0.81430  0.67120  0.68090  Biso   1.000  O
  C33      1.0000 0.77620  0.39560  0.69680  Biso   1.000  C
  C34      1.0000 0.78480  0.45740  0.66920  Biso   1.000  C
  C35      1.0000 0.79440  0.46120  0.60650  Biso   1.000  C
  H13      1.0000 0.79500  0.42520  0.58300  Biso   1.000  H
  C36      1.0000 0.80270  0.51460  0.57940  Biso   1.000  C
  C37      1.0000 0.80280  0.57170  0.61280  Biso   1.000  C
  H14      1.0000 0.80870  0.60940  0.59300  Biso   1.000  H
  C38      1.0000 0.78310  0.51040  0.70250  Biso   1.000  C
  H15      1.0000 0.77460  0.50860  0.74460  Biso   1.000  H
  C39      1.0000 0.79380  0.56800  0.67480  Biso   1.000  C
  C40      1.0000 0.79390  0.62580  0.70760  Biso   1.000  C
  N5       1.0000 0.80490  0.52410  0.51260  Biso   1.000  N
  Fe6      1.0000 0.80347  0.73908  0.32051  Biso   1.000  Fe
  O21      1.0000 0.79560  0.65020  0.33460  Biso   1.000  O
  O22      1.0000 0.75470  0.60730  0.25010  Biso   1.000  O
  O23      1.0000 0.77410  0.37380  0.23660  Biso   1.000  O
  O24      1.0000 0.81430  0.32880  0.31910  Biso   1.000  O
  C41      1.0000 0.77620  0.60440  0.30320  Biso   1.000  C
  C42      1.0000 0.78480  0.54260  0.33080  Biso   1.000  C
  C43      1.0000 0.79440  0.53880  0.39350  Biso   1.000  C
  H16      1.0000 0.79500  0.57480  0.41700  Biso   1.000  H
  C44      1.0000 0.80270  0.48540  0.42060  Biso   1.000  C
  C45      1.0000 0.80280  0.42830  0.38720  Biso   1.000  C
  H17      1.0000 0.80870  0.39060  0.40700  Biso   1.000  H
  C46      1.0000 0.78310  0.48960  0.29750  Biso   1.000  C
  H18      1.0000 0.77460  0.49140  0.25540  Biso   1.000  H
  C47      1.0000 0.79380  0.43200  0.32520  Biso   1.000  C
  C48      1.0000 0.79390  0.37420  0.29240  Biso   1.000  C
  N6       1.0000 0.80490  0.47590  0.48740  Biso   1.000  N
  Fe7      1.0000 0.19653  0.73908  0.67949  Biso   1.000  Fe
  O25      1.0000 0.20440  0.65020  0.66540  Biso   1.000  O
  O26      1.0000 0.24530  0.60730  0.74990  Biso   1.000  O
  O27      1.0000 0.22590  0.37380  0.76340  Biso   1.000  O
  O28      1.0000 0.18570  0.32880  0.68090  Biso   1.000  O
  C49      1.0000 0.22380  0.60440  0.69680  Biso   1.000  C
  C50      1.0000 0.21520  0.54260  0.66920  Biso   1.000  C
  C51      1.0000 0.20560  0.53880  0.60650  Biso   1.000  C
  H19      1.0000 0.20500  0.57480  0.58300  Biso   1.000  H
  C52      1.0000 0.19730  0.48540  0.57940  Biso   1.000  C
  C53      1.0000 0.19720  0.42830  0.61280  Biso   1.000  C
  H20      1.0000 0.19130  0.39060  0.59300  Biso   1.000  H
  C54      1.0000 0.21690  0.48960  0.70250  Biso   1.000  C
  H21      1.0000 0.22540  0.49140  0.74460  Biso   1.000  H
  C55      1.0000 0.20620  0.43200  0.67480  Biso   1.000  C
  C56      1.0000 0.20610  0.37420  0.70760  Biso   1.000  C
  N7       1.0000 0.19510  0.47590  0.51260  Biso   1.000  N
  Fe8      1.0000 0.19653  0.26092  0.32051  Biso   1.000  Fe
  O29      1.0000 0.20440  0.34980  0.33460  Biso   1.000  O
  O30      1.0000 0.24530  0.39270  0.25010  Biso   1.000  O
  O31      1.0000 0.22590  0.62620  0.23660  Biso   1.000  O
  O32      1.0000 0.18570  0.67120  0.31910  Biso   1.000  O
  C57      1.0000 0.22380  0.39560  0.30320  Biso   1.000  C
  C58      1.0000 0.21520  0.45740  0.33080  Biso   1.000  C
  C59      1.0000 0.20560  0.46120  0.39350  Biso   1.000  C
  H22      1.0000 0.20500  0.42520  0.41700  Biso   1.000  H
  C60      1.0000 0.19730  0.51460  0.42060  Biso   1.000  C
  C61      1.0000 0.19720  0.57170  0.38720  Biso   1.000  C
  H23      1.0000 0.19130  0.60940  0.40700  Biso   1.000  H
  C62      1.0000 0.21690  0.51040  0.29750  Biso   1.000  C
  H24      1.0000 0.22540  0.50860  0.25540  Biso   1.000  H
  C63      1.0000 0.20620  0.56800  0.32520  Biso   1.000  C
  C64      1.0000 0.20610  0.62580  0.29240  Biso   1.000  C
  N8       1.0000 0.19510  0.52410  0.48740  Biso   1.000  N
  Fe9      1.0000 0.67949  0.80347  0.26092  Biso   1.000  Fe
  O33      1.0000 0.66540  0.79560  0.34980  Biso   1.000  O
  O34      1.0000 0.74990  0.75470  0.39270  Biso   1.000  O
  O35      1.0000 0.76340  0.77410  0.62620  Biso   1.000  O
  O36      1.0000 0.68090  0.81430  0.67120  Biso   1.000  O
  C65      1.0000 0.69680  0.77620  0.39560  Biso   1.000  C
  C66      1.0000 0.66920  0.78480  0.45740  Biso   1.000  C
  C67      1.0000 0.60650  0.79440  0.46120  Biso   1.000  C
  H25      1.0000 0.58300  0.79500  0.42520  Biso   1.000  H
  C68      1.0000 0.57940  0.80270  0.51460  Biso   1.000  C
  C69      1.0000 0.61280  0.80280  0.57170  Biso   1.000  C
  H26      1.0000 0.59300  0.80870  0.60940  Biso   1.000  H
  C70      1.0000 0.70250  0.78310  0.51040  Biso   1.000  C
  H27      1.0000 0.74460  0.77460  0.50860  Biso   1.000  H
  C71      1.0000 0.67480  0.79380  0.56800  Biso   1.000  C
  C72      1.0000 0.70760  0.79390  0.62580  Biso   1.000  C
  N9       1.0000 0.51260  0.80490  0.52410  Biso   1.000  N
  Fe10     1.0000 0.32051  0.80347  0.73908  Biso   1.000  Fe
  O37      1.0000 0.33460  0.79560  0.65020  Biso   1.000  O
  O38      1.0000 0.25010  0.75470  0.60730  Biso   1.000  O
  O39      1.0000 0.23660  0.77410  0.37380  Biso   1.000  O
  O40      1.0000 0.31910  0.81430  0.32880  Biso   1.000  O
  C73      1.0000 0.30320  0.77620  0.60440  Biso   1.000  C
  C74      1.0000 0.33080  0.78480  0.54260  Biso   1.000  C
  C75      1.0000 0.39350  0.79440  0.53880  Biso   1.000  C
  H28      1.0000 0.41700  0.79500  0.57480  Biso   1.000  H
  C76      1.0000 0.42060  0.80270  0.48540  Biso   1.000  C
  C77      1.0000 0.38720  0.80280  0.42830  Biso   1.000  C
  H29      1.0000 0.40700  0.80870  0.39060  Biso   1.000  H
  C78      1.0000 0.29750  0.78310  0.48960  Biso   1.000  C
  H30      1.0000 0.25540  0.77460  0.49140  Biso   1.000  H
  C79      1.0000 0.32520  0.79380  0.43200  Biso   1.000  C
  C80      1.0000 0.29240  0.79390  0.37420  Biso   1.000  C
  N10      1.0000 0.48740  0.80490  0.47590  Biso   1.000  N
  Fe11     1.0000 0.67949  0.19653  0.73908  Biso   1.000  Fe
  O41      1.0000 0.66540  0.20440  0.65020  Biso   1.000  O
  O42      1.0000 0.74990  0.24530  0.60730  Biso   1.000  O
  O43      1.0000 0.76340  0.22590  0.37380  Biso   1.000  O
  O44      1.0000 0.68090  0.18570  0.32880  Biso   1.000  O
  C81      1.0000 0.69680  0.22380  0.60440  Biso   1.000  C
  C82      1.0000 0.66920  0.21520  0.54260  Biso   1.000  C
  C83      1.0000 0.60650  0.20560  0.53880  Biso   1.000  C
  H31      1.0000 0.58300  0.20500  0.57480  Biso   1.000  H
  C84      1.0000 0.57940  0.19730  0.48540  Biso   1.000  C
  C85      1.0000 0.61280  0.19720  0.42830  Biso   1.000  C
  H32      1.0000 0.59300  0.19130  0.39060  Biso   1.000  H
  C86      1.0000 0.70250  0.21690  0.48960  Biso   1.000  C
  H33      1.0000 0.74460  0.22540  0.49140  Biso   1.000  H
  C87      1.0000 0.67480  0.20620  0.43200  Biso   1.000  C
  C88      1.0000 0.70760  0.20610  0.37420  Biso   1.000  C
  N11      1.0000 0.51260  0.19510  0.47590  Biso   1.000  N
  Fe12     1.0000 0.32051  0.19653  0.26092  Biso   1.000  Fe
  O45      1.0000 0.33460  0.20440  0.34980  Biso   1.000  O
  O46      1.0000 0.25010  0.24530  0.39270  Biso   1.000  O
  O47      1.0000 0.23660  0.22590  0.62620  Biso   1.000  O
  O48      1.0000 0.31910  0.18570  0.67120  Biso   1.000  O
  C89      1.0000 0.30320  0.22380  0.39560  Biso   1.000  C
  C90      1.0000 0.33080  0.21520  0.45740  Biso   1.000  C
  C91      1.0000 0.39350  0.20560  0.46120  Biso   1.000  C
  H34      1.0000 0.41700  0.20500  0.42520  Biso   1.000  H
  C92      1.0000 0.42060  0.19730  0.51460  Biso   1.000  C
  C93      1.0000 0.38720  0.19720  0.57170  Biso   1.000  C
  H35      1.0000 0.40700  0.19130  0.60940  Biso   1.000  H
  C94      1.0000 0.29750  0.21690  0.51040  Biso   1.000  C
  H36      1.0000 0.25540  0.22540  0.50860  Biso   1.000  H
  C95      1.0000 0.32520  0.20620  0.56800  Biso   1.000  C
  C96      1.0000 0.29240  0.20610  0.62580  Biso   1.000  C
  N12      1.0000 0.48740  0.19510  0.52410  Biso   1.000  N
  Fe13     1.0000 0.17949  0.76092  0.30347  Biso   1.000  Fe
  O49      1.0000 0.16540  0.84980  0.29560  Biso   1.000  O
  O50      1.0000 0.24990  0.89270  0.25470  Biso   1.000  O
  O51      1.0000 0.26340  0.12620  0.27410  Biso   1.000  O
  O52      1.0000 0.18090  0.17120  0.31430  Biso   1.000  O
  C97      1.0000 0.19680  0.89560  0.27620  Biso   1.000  C
  C98      1.0000 0.16920  0.95740  0.28480  Biso   1.000  C
  C99      1.0000 0.10650  0.96120  0.29440  Biso   1.000  C
  H37      1.0000 0.08300  0.92520  0.29500  Biso   1.000  H
  C100     1.0000 0.07940  0.01460  0.30270  Biso   1.000  C
  C101     1.0000 0.11280  0.07170  0.30280  Biso   1.000  C
  H38      1.0000 0.09300  0.10940  0.30870  Biso   1.000  H
  C102     1.0000 0.20250  0.01040  0.28310  Biso   1.000  C
  H39      1.0000 0.24460  0.00860  0.27460  Biso   1.000  H
  C103     1.0000 0.17480  0.06800  0.29380  Biso   1.000  C
  C104     1.0000 0.20760  0.12580  0.29390  Biso   1.000  C
  N13      1.0000 0.01260  0.02410  0.30490  Biso   1.000  N
  Fe14     1.0000 0.82051  0.23908  0.30347  Biso   1.000  Fe
  O53      1.0000 0.83460  0.15020  0.29560  Biso   1.000  O
  O54      1.0000 0.75010  0.10730  0.25470  Biso   1.000  O
  O55      1.0000 0.73660  0.87380  0.27410  Biso   1.000  O
  O56      1.0000 0.81910  0.82880  0.31430  Biso   1.000  O
  C105     1.0000 0.80320  0.10440  0.27620  Biso   1.000  C
  C106     1.0000 0.83080  0.04260  0.28480  Biso   1.000  C
  C107     1.0000 0.89350  0.03880  0.29440  Biso   1.000  C
  H40      1.0000 0.91700  0.07480  0.29500  Biso   1.000  H
  C108     1.0000 0.92060  0.98540  0.30270  Biso   1.000  C
  C109     1.0000 0.88720  0.92830  0.30280  Biso   1.000  C
  H41      1.0000 0.90700  0.89060  0.30870  Biso   1.000  H
  C110     1.0000 0.79750  0.98960  0.28310  Biso   1.000  C
  H42      1.0000 0.75540  0.99140  0.27460  Biso   1.000  H
  C111     1.0000 0.82520  0.93200  0.29380  Biso   1.000  C
  C112     1.0000 0.79240  0.87420  0.29390  Biso   1.000  C
  N14      1.0000 0.98740  0.97590  0.30490  Biso   1.000  N
  Fe15     1.0000 0.17949  0.23908  0.69653  Biso   1.000  Fe
  O57      1.0000 0.16540  0.15020  0.70440  Biso   1.000  O
  O58      1.0000 0.24990  0.10730  0.74530  Biso   1.000  O
  O59      1.0000 0.26340  0.87380  0.72590  Biso   1.000  O
  O60      1.0000 0.18090  0.82880  0.68570  Biso   1.000  O
  C113     1.0000 0.19680  0.10440  0.72380  Biso   1.000  C
  C114     1.0000 0.16920  0.04260  0.71520  Biso   1.000  C
  C115     1.0000 0.10650  0.03880  0.70560  Biso   1.000  C
  H43      1.0000 0.08300  0.07480  0.70500  Biso   1.000  H
  C116     1.0000 0.07940  0.98540  0.69730  Biso   1.000  C
  C117     1.0000 0.11280  0.92830  0.69720  Biso   1.000  C
  H44      1.0000 0.09300  0.89060  0.69130  Biso   1.000  H
  C118     1.0000 0.20250  0.98960  0.71690  Biso   1.000  C
  H45      1.0000 0.24460  0.99140  0.72540  Biso   1.000  H
  C119     1.0000 0.17480  0.93200  0.70620  Biso   1.000  C
  C120     1.0000 0.20760  0.87420  0.70610  Biso   1.000  C
  N15      1.0000 0.01260  0.97590  0.69510  Biso   1.000  N
  Fe16     1.0000 0.82051  0.76092  0.69653  Biso   1.000  Fe
  O61      1.0000 0.83460  0.84980  0.70440  Biso   1.000  O
  O62      1.0000 0.75010  0.89270  0.74530  Biso   1.000  O
  O63      1.0000 0.73660  0.12620  0.72590  Biso   1.000  O
  O64      1.0000 0.81910  0.17120  0.68570  Biso   1.000  O
  C121     1.0000 0.80320  0.89560  0.72380  Biso   1.000  C
  C122     1.0000 0.83080  0.95740  0.71520  Biso   1.000  C
  C123     1.0000 0.89350  0.96120  0.70560  Biso   1.000  C
  H46      1.0000 0.91700  0.92520  0.70500  Biso   1.000  H
  C124     1.0000 0.92060  0.01460  0.69730  Biso   1.000  C
  C125     1.0000 0.88720  0.07170  0.69720  Biso   1.000  C
  H47      1.0000 0.90700  0.10940  0.69130  Biso   1.000  H
  C126     1.0000 0.79750  0.01040  0.71690  Biso   1.000  C
  H48      1.0000 0.75540  0.00860  0.72540  Biso   1.000  H
  C127     1.0000 0.82520  0.06800  0.70620  Biso   1.000  C
  C128     1.0000 0.79240  0.12580  0.70610  Biso   1.000  C
  N16      1.0000 0.98740  0.02410  0.69510  Biso   1.000  N
  Fe17     1.0000 0.76092  0.30347  0.17949  Biso   1.000  Fe
  O65      1.0000 0.84980  0.29560  0.16540  Biso   1.000  O
  O66      1.0000 0.89270  0.25470  0.24990  Biso   1.000  O
  O67      1.0000 0.12620  0.27410  0.26340  Biso   1.000  O
  O68      1.0000 0.17120  0.31430  0.18090  Biso   1.000  O
  C129     1.0000 0.89560  0.27620  0.19680  Biso   1.000  C
  C130     1.0000 0.95740  0.28480  0.16920  Biso   1.000  C
  C131     1.0000 0.96120  0.29440  0.10650  Biso   1.000  C
  H49      1.0000 0.92520  0.29500  0.08300  Biso   1.000  H
  C132     1.0000 0.01460  0.30270  0.07940  Biso   1.000  C
  C133     1.0000 0.07170  0.30280  0.11280  Biso   1.000  C
  H50      1.0000 0.10940  0.30870  0.09300  Biso   1.000  H
  C134     1.0000 0.01040  0.28310  0.20250  Biso   1.000  C
  H51      1.0000 0.00860  0.27460  0.24460  Biso   1.000  H
  C135     1.0000 0.06800  0.29380  0.17480  Biso   1.000  C
  C136     1.0000 0.12580  0.29390  0.20760  Biso   1.000  C
  N17      1.0000 0.02410  0.30490  0.01260  Biso   1.000  N
  Fe18     1.0000 0.23908  0.30347  0.82051  Biso   1.000  Fe
  O69      1.0000 0.15020  0.29560  0.83460  Biso   1.000  O
  O70      1.0000 0.10730  0.25470  0.75010  Biso   1.000  O
  O71      1.0000 0.87380  0.27410  0.73660  Biso   1.000  O
  O72      1.0000 0.82880  0.31430  0.81910  Biso   1.000  O
  C137     1.0000 0.10440  0.27620  0.80320  Biso   1.000  C
  C138     1.0000 0.04260  0.28480  0.83080  Biso   1.000  C
  C139     1.0000 0.03880  0.29440  0.89350  Biso   1.000  C
  H52      1.0000 0.07480  0.29500  0.91700  Biso   1.000  H
  C140     1.0000 0.98540  0.30270  0.92060  Biso   1.000  C
  C141     1.0000 0.92830  0.30280  0.88720  Biso   1.000  C
  H53      1.0000 0.89060  0.30870  0.90700  Biso   1.000  H
  C142     1.0000 0.98960  0.28310  0.79750  Biso   1.000  C
  H54      1.0000 0.99140  0.27460  0.75540  Biso   1.000  H
  C143     1.0000 0.93200  0.29380  0.82520  Biso   1.000  C
  C144     1.0000 0.87420  0.29390  0.79240  Biso   1.000  C
  N18      1.0000 0.97590  0.30490  0.98740  Biso   1.000  N
  Fe19     1.0000 0.23908  0.69653  0.17949  Biso   1.000  Fe
  O73      1.0000 0.15020  0.70440  0.16540  Biso   1.000  O
  O74      1.0000 0.10730  0.74530  0.24990  Biso   1.000  O
  O75      1.0000 0.87380  0.72590  0.26340  Biso   1.000  O
  O76      1.0000 0.82880  0.68570  0.18090  Biso   1.000  O
  C145     1.0000 0.10440  0.72380  0.19680  Biso   1.000  C
  C146     1.0000 0.04260  0.71520  0.16920  Biso   1.000  C
  C147     1.0000 0.03880  0.70560  0.10650  Biso   1.000  C
  H55      1.0000 0.07480  0.70500  0.08300  Biso   1.000  H
  C148     1.0000 0.98540  0.69730  0.07940  Biso   1.000  C
  C149     1.0000 0.92830  0.69720  0.11280  Biso   1.000  C
  H56      1.0000 0.89060  0.69130  0.09300  Biso   1.000  H
  C150     1.0000 0.98960  0.71690  0.20250  Biso   1.000  C
  H57      1.0000 0.99140  0.72540  0.24460  Biso   1.000  H
  C151     1.0000 0.93200  0.70620  0.17480  Biso   1.000  C
  C152     1.0000 0.87420  0.70610  0.20760  Biso   1.000  C
  N19      1.0000 0.97590  0.69510  0.01260  Biso   1.000  N
  Fe20     1.0000 0.76092  0.69653  0.82051  Biso   1.000  Fe
  O77      1.0000 0.84980  0.70440  0.83460  Biso   1.000  O
  O78      1.0000 0.89270  0.74530  0.75010  Biso   1.000  O
  O79      1.0000 0.12620  0.72590  0.73660  Biso   1.000  O
  O80      1.0000 0.17120  0.68570  0.81910  Biso   1.000  O
  C153     1.0000 0.89560  0.72380  0.80320  Biso   1.000  C
  C154     1.0000 0.95740  0.71520  0.83080  Biso   1.000  C
  C155     1.0000 0.96120  0.70560  0.89350  Biso   1.000  C
  H58      1.0000 0.92520  0.70500  0.91700  Biso   1.000  H
  C156     1.0000 0.01460  0.69730  0.92060  Biso   1.000  C
  C157     1.0000 0.07170  0.69720  0.88720  Biso   1.000  C
  H59      1.0000 0.10940  0.69130  0.90700  Biso   1.000  H
  C158     1.0000 0.01040  0.71690  0.79750  Biso   1.000  C
  H60      1.0000 0.00860  0.72540  0.75540  Biso   1.000  H
  C159     1.0000 0.06800  0.70620  0.82520  Biso   1.000  C
  C160     1.0000 0.12580  0.70610  0.79240  Biso   1.000  C
  N20      1.0000 0.02410  0.69510  0.98740  Biso   1.000  N
  Fe21     1.0000 0.30347  0.17949  0.76092  Biso   1.000  Fe
  O81      1.0000 0.29560  0.16540  0.84980  Biso   1.000  O
  O82      1.0000 0.25470  0.24990  0.89270  Biso   1.000  O
  O83      1.0000 0.27410  0.26340  0.12620  Biso   1.000  O
  O84      1.0000 0.31430  0.18090  0.17120  Biso   1.000  O
  C161     1.0000 0.27620  0.19680  0.89560  Biso   1.000  C
  C162     1.0000 0.28480  0.16920  0.95740  Biso   1.000  C
  C163     1.0000 0.29440  0.10650  0.96120  Biso   1.000  C
  H61      1.0000 0.29500  0.08300  0.92520  Biso   1.000  H
  C164     1.0000 0.30270  0.07940  0.01460  Biso   1.000  C
  C165     1.0000 0.30280  0.11280  0.07170  Biso   1.000  C
  H62      1.0000 0.30870  0.09300  0.10940  Biso   1.000  H
  C166     1.0000 0.28310  0.20250  0.01040  Biso   1.000  C
  H63      1.0000 0.27460  0.24460  0.00860  Biso   1.000  H
  C167     1.0000 0.29380  0.17480  0.06800  Biso   1.000  C
  C168     1.0000 0.29390  0.20760  0.12580  Biso   1.000  C
  N21      1.0000 0.30490  0.01260  0.02410  Biso   1.000  N
  Fe22     1.0000 0.30347  0.82051  0.23908  Biso   1.000  Fe
  O85      1.0000 0.29560  0.83460  0.15020  Biso   1.000  O
  O86      1.0000 0.25470  0.75010  0.10730  Biso   1.000  O
  O87      1.0000 0.27410  0.73660  0.87380  Biso   1.000  O
  O88      1.0000 0.31430  0.81910  0.82880  Biso   1.000  O
  C169     1.0000 0.27620  0.80320  0.10440  Biso   1.000  C
  C170     1.0000 0.28480  0.83080  0.04260  Biso   1.000  C
  C171     1.0000 0.29440  0.89350  0.03880  Biso   1.000  C
  H64      1.0000 0.29500  0.91700  0.07480  Biso   1.000  H
  C172     1.0000 0.30270  0.92060  0.98540  Biso   1.000  C
  C173     1.0000 0.30280  0.88720  0.92830  Biso   1.000  C
  H65      1.0000 0.30870  0.90700  0.89060  Biso   1.000  H
  C174     1.0000 0.28310  0.79750  0.98960  Biso   1.000  C
  H66      1.0000 0.27460  0.75540  0.99140  Biso   1.000  H
  C175     1.0000 0.29380  0.82520  0.93200  Biso   1.000  C
  C176     1.0000 0.29390  0.79240  0.87420  Biso   1.000  C
  N22      1.0000 0.30490  0.98740  0.97590  Biso   1.000  N
  Fe23     1.0000 0.69653  0.17949  0.23908  Biso   1.000  Fe
  O89      1.0000 0.70440  0.16540  0.15020  Biso   1.000  O
  O90      1.0000 0.74530  0.24990  0.10730  Biso   1.000  O
  O91      1.0000 0.72590  0.26340  0.87380  Biso   1.000  O
  O92      1.0000 0.68570  0.18090  0.82880  Biso   1.000  O
  C177     1.0000 0.72380  0.19680  0.10440  Biso   1.000  C
  C178     1.0000 0.71520  0.16920  0.04260  Biso   1.000  C
  C179     1.0000 0.70560  0.10650  0.03880  Biso   1.000  C
  H67      1.0000 0.70500  0.08300  0.07480  Biso   1.000  H
  C180     1.0000 0.69730  0.07940  0.98540  Biso   1.000  C
  C181     1.0000 0.69720  0.11280  0.92830  Biso   1.000  C
  H68      1.0000 0.69130  0.09300  0.89060  Biso   1.000  H
  C182     1.0000 0.71690  0.20250  0.98960  Biso   1.000  C
  H69      1.0000 0.72540  0.24460  0.99140  Biso   1.000  H
  C183     1.0000 0.70620  0.17480  0.93200  Biso   1.000  C
  C184     1.0000 0.70610  0.20760  0.87420  Biso   1.000  C
  N23      1.0000 0.69510  0.01260  0.97590  Biso   1.000  N
  Fe24     1.0000 0.69653  0.82051  0.76092  Biso   1.000  Fe
  O93      1.0000 0.70440  0.83460  0.84980  Biso   1.000  O
  O94      1.0000 0.74530  0.75010  0.89270  Biso   1.000  O
  O95      1.0000 0.72590  0.73660  0.12620  Biso   1.000  O
  O96      1.0000 0.68570  0.81910  0.17120  Biso   1.000  O
  C185     1.0000 0.72380  0.80320  0.89560  Biso   1.000  C
  C186     1.0000 0.71520  0.83080  0.95740  Biso   1.000  C
  C187     1.0000 0.70560  0.89350  0.96120  Biso   1.000  C
  H70      1.0000 0.70500  0.91700  0.92520  Biso   1.000  H
  C188     1.0000 0.69730  0.92060  0.01460  Biso   1.000  C
  C189     1.0000 0.69720  0.88720  0.07170  Biso   1.000  C
  H71      1.0000 0.69130  0.90700  0.10940  Biso   1.000  H
  C190     1.0000 0.71690  0.79750  0.01040  Biso   1.000  C
  H72      1.0000 0.72540  0.75540  0.00860  Biso   1.000  H
  C191     1.0000 0.70620  0.82520  0.06800  Biso   1.000  C
  C192     1.0000 0.70610  0.79240  0.12580  Biso   1.000  C
  N24      1.0000 0.69510  0.98740  0.02410  Biso   1.000  N
  O97      1.0000 0.26010  0.73990  0.73990  Biso   1.000  O
  O98      1.0000 0.73990  0.26010  0.73990  Biso   1.000  O
  O99      1.0000 0.73990  0.73990  0.26010  Biso   1.000  O
  O100     1.0000 0.26010  0.26010  0.26010  Biso   1.000  O
  O101     1.0000 0.23990  0.76010  0.23990  Biso   1.000  O
  O102     1.0000 0.76010  0.23990  0.23990  Biso   1.000  O
  O103     1.0000 0.23990  0.23990  0.76010  Biso   1.000  O
  O104     1.0000 0.76010  0.76010  0.76010  Biso   1.000  O
