data_IZEPEJ_clean
_audit_creation_date              2014-07-02
_audit_creation_method            'Materials Studio'
_symmetry_space_group_name_H-M    'P1'
_symmetry_Int_Tables_number       1
_symmetry_cell_setting            triclinic
loop_
_symmetry_equiv_pos_as_xyz
  x,y,z
_cell_length_a                    28.3903
_cell_length_b                    28.3903
_cell_length_c                    28.3903
_cell_angle_alpha                 60.0000
_cell_angle_beta                  60.0000
_cell_angle_gamma                 60.0000
loop_
_atom_site_label
_atom_site_type_symbol
_atom_site_fract_x
_atom_site_fract_y
_atom_site_fract_z
_atom_site_U_iso_or_equiv
_atom_site_adp_type
_atom_site_occupancy
Cr1    Cr    0.92924   0.81128   0.44820   0.01267  Uiso   1.00
Cr2    Cr    0.81128   0.92924   0.81128   0.01267  Uiso   1.00
Cr3    Cr    0.44820   0.81128   0.92924   0.01267  Uiso   1.00
Cr4    Cr    0.81128   0.44820   0.81128   0.01267  Uiso   1.00
Cr5    Cr    0.92924   0.44820   0.81128   0.01267  Uiso   1.00
Cr6    Cr    0.81128   0.81128   0.44820   0.01267  Uiso   1.00
Cr7    Cr    0.44820   0.92924   0.81128   0.01267  Uiso   1.00
Cr8    Cr    0.81128   0.81128   0.92924   0.01267  Uiso   1.00
Cr9    Cr    0.92924   0.81128   0.81128   0.01267  Uiso   1.00
Cr10   Cr    0.81128   0.44820   0.92924   0.01267  Uiso   1.00
Cr11   Cr    0.44820   0.81128   0.81128   0.01267  Uiso   1.00
Cr12   Cr    0.81128   0.92924   0.44820   0.01267  Uiso   1.00
Cr13   Cr    0.18872   0.07076   0.55180   0.01267  Uiso   1.00
Cr14   Cr    0.07076   0.18872   0.18872   0.01267  Uiso   1.00
Cr15   Cr    0.18872   0.55180   0.07076   0.01267  Uiso   1.00
Cr16   Cr    0.55180   0.18872   0.18872   0.01267  Uiso   1.00
Cr17   Cr    0.55180   0.07076   0.18872   0.01267  Uiso   1.00
Cr18   Cr    0.18872   0.18872   0.55180   0.01267  Uiso   1.00
Cr19   Cr    0.07076   0.55180   0.18872   0.01267  Uiso   1.00
Cr20   Cr    0.18872   0.18872   0.07076   0.01267  Uiso   1.00
Cr21   Cr    0.18872   0.07076   0.18872   0.01267  Uiso   1.00
Cr22   Cr    0.55180   0.18872   0.07076   0.01267  Uiso   1.00
Cr23   Cr    0.18872   0.55180   0.18872   0.01267  Uiso   1.00
Cr24   Cr    0.07076   0.18872   0.55180   0.01267  Uiso   1.00
H1     H     0.04615   0.73939   0.32349   0.01267  Uiso   1.00
H2     H     0.95481   0.79961   0.57833   0.01267  Uiso   1.00
H3     H     0.73939   0.04615   0.89097   0.01267  Uiso   1.00
H4     H     0.79961   0.95481   0.66725   0.01267  Uiso   1.00
H5     H     0.32349   0.89097   0.04615   0.01267  Uiso   1.00
H6     H     0.57833   0.66725   0.95481   0.01267  Uiso   1.00
H7     H     0.89097   0.32349   0.73939   0.01267  Uiso   1.00
H8     H     0.66725   0.57833   0.79961   0.01267  Uiso   1.00
H9     H     0.04615   0.32349   0.89097   0.01267  Uiso   1.00
H10    H     0.95481   0.57833   0.66725   0.01267  Uiso   1.00
H11    H     0.73939   0.89097   0.32349   0.01267  Uiso   1.00
H12    H     0.79961   0.66725   0.57833   0.01267  Uiso   1.00
H13    H     0.32349   0.04615   0.73939   0.01267  Uiso   1.00
H14    H     0.57833   0.95481   0.79961   0.01267  Uiso   1.00
H15    H     0.89097   0.73939   0.04615   0.01267  Uiso   1.00
H16    H     0.66725   0.79961   0.95481   0.01267  Uiso   1.00
H17    H     0.04615   0.89097   0.73939   0.01267  Uiso   1.00
H18    H     0.95481   0.66725   0.79961   0.01267  Uiso   1.00
H19    H     0.73939   0.32349   0.04615   0.01267  Uiso   1.00
H20    H     0.79961   0.57833   0.95481   0.01267  Uiso   1.00
H21    H     0.32349   0.73939   0.89097   0.01267  Uiso   1.00
H22    H     0.57833   0.79961   0.66725   0.01267  Uiso   1.00
H23    H     0.89097   0.04615   0.32349   0.01267  Uiso   1.00
H24    H     0.66725   0.95481   0.57833   0.01267  Uiso   1.00
H25    H     0.26061   0.95385   0.67651   0.01267  Uiso   1.00
H26    H     0.20039   0.04519   0.42167   0.01267  Uiso   1.00
H27    H     0.95385   0.26061   0.10903   0.01267  Uiso   1.00
H28    H     0.04519   0.20039   0.33275   0.01267  Uiso   1.00
H29    H     0.10903   0.67651   0.95385   0.01267  Uiso   1.00
H30    H     0.33275   0.42167   0.04519   0.01267  Uiso   1.00
H31    H     0.67651   0.10903   0.26061   0.01267  Uiso   1.00
H32    H     0.42167   0.33275   0.20039   0.01267  Uiso   1.00
H33    H     0.67651   0.95385   0.10903   0.01267  Uiso   1.00
H34    H     0.42167   0.04519   0.33275   0.01267  Uiso   1.00
H35    H     0.10903   0.26061   0.67651   0.01267  Uiso   1.00
H36    H     0.33275   0.20039   0.42167   0.01267  Uiso   1.00
H37    H     0.95385   0.67651   0.26061   0.01267  Uiso   1.00
H38    H     0.04519   0.42167   0.20039   0.01267  Uiso   1.00
H39    H     0.26061   0.10903   0.95385   0.01267  Uiso   1.00
H40    H     0.20039   0.33275   0.04519   0.01267  Uiso   1.00
H41    H     0.10903   0.95385   0.26061   0.01267  Uiso   1.00
H42    H     0.33275   0.04519   0.20039   0.01267  Uiso   1.00
H43    H     0.67651   0.26061   0.95385   0.01267  Uiso   1.00
H44    H     0.42167   0.20039   0.04519   0.01267  Uiso   1.00
H45    H     0.26061   0.67651   0.10903   0.01267  Uiso   1.00
H46    H     0.20039   0.42167   0.33275   0.01267  Uiso   1.00
H47    H     0.95385   0.10903   0.67651   0.01267  Uiso   1.00
H48    H     0.04519   0.33275   0.42167   0.01267  Uiso   1.00
H49    H     0.95385   0.26061   0.67651   0.01267  Uiso   1.00
H50    H     0.04519   0.20039   0.42167   0.01267  Uiso   1.00
H51    H     0.26061   0.95385   0.10903   0.01267  Uiso   1.00
H52    H     0.20039   0.04519   0.33275   0.01267  Uiso   1.00
H53    H     0.67651   0.10903   0.95385   0.01267  Uiso   1.00
H54    H     0.42167   0.33275   0.04519   0.01267  Uiso   1.00
H55    H     0.10903   0.67651   0.26061   0.01267  Uiso   1.00
H56    H     0.33275   0.42167   0.20039   0.01267  Uiso   1.00
H57    H     0.95385   0.67651   0.10903   0.01267  Uiso   1.00
H58    H     0.04519   0.42167   0.33275   0.01267  Uiso   1.00
H59    H     0.26061   0.10903   0.67651   0.01267  Uiso   1.00
H60    H     0.20039   0.33275   0.42167   0.01267  Uiso   1.00
H61    H     0.67651   0.95385   0.26061   0.01267  Uiso   1.00
H62    H     0.42167   0.04519   0.20039   0.01267  Uiso   1.00
H63    H     0.10903   0.26061   0.95385   0.01267  Uiso   1.00
H64    H     0.33275   0.20039   0.04519   0.01267  Uiso   1.00
H65    H     0.95385   0.10903   0.26061   0.01267  Uiso   1.00
H66    H     0.04519   0.33275   0.20039   0.01267  Uiso   1.00
H67    H     0.26061   0.67651   0.95385   0.01267  Uiso   1.00
H68    H     0.20039   0.42167   0.04519   0.01267  Uiso   1.00
H69    H     0.67651   0.26061   0.10903   0.01267  Uiso   1.00
H70    H     0.42167   0.20039   0.33275   0.01267  Uiso   1.00
H71    H     0.10903   0.95385   0.67651   0.01267  Uiso   1.00
H72    H     0.33275   0.04519   0.42167   0.01267  Uiso   1.00
H73    H     0.73939   0.04615   0.32349   0.01267  Uiso   1.00
H74    H     0.79961   0.95481   0.57833   0.01267  Uiso   1.00
H75    H     0.04615   0.73939   0.89097   0.01267  Uiso   1.00
H76    H     0.95481   0.79961   0.66725   0.01267  Uiso   1.00
H77    H     0.89097   0.32349   0.04615   0.01267  Uiso   1.00
H78    H     0.66725   0.57833   0.95481   0.01267  Uiso   1.00
H79    H     0.32349   0.89097   0.73939   0.01267  Uiso   1.00
H80    H     0.57833   0.66725   0.79961   0.01267  Uiso   1.00
H81    H     0.32349   0.04615   0.89097   0.01267  Uiso   1.00
H82    H     0.57833   0.95481   0.66725   0.01267  Uiso   1.00
H83    H     0.89097   0.73939   0.32349   0.01267  Uiso   1.00
H84    H     0.66725   0.79961   0.57833   0.01267  Uiso   1.00
H85    H     0.04615   0.32349   0.73939   0.01267  Uiso   1.00
H86    H     0.95481   0.57833   0.79961   0.01267  Uiso   1.00
H87    H     0.73939   0.89097   0.04615   0.01267  Uiso   1.00
H88    H     0.79961   0.66725   0.95481   0.01267  Uiso   1.00
H89    H     0.89097   0.04615   0.73939   0.01267  Uiso   1.00
H90    H     0.66725   0.95481   0.79961   0.01267  Uiso   1.00
H91    H     0.32349   0.73939   0.04615   0.01267  Uiso   1.00
H92    H     0.57833   0.79961   0.95481   0.01267  Uiso   1.00
H93    H     0.73939   0.32349   0.89097   0.01267  Uiso   1.00
H94    H     0.79961   0.57833   0.66725   0.01267  Uiso   1.00
H95    H     0.04615   0.89097   0.32349   0.01267  Uiso   1.00
H96    H     0.95481   0.66725   0.57833   0.01267  Uiso   1.00
C1     C     0.02520   0.72484   0.31000   0.01267  Uiso   1.00
C2     C     0.91972   0.83446   0.59828   0.01267  Uiso   1.00
C3     C     0.72484   0.02520   0.93996   0.01267  Uiso   1.00
C4     C     0.83446   0.91972   0.64754   0.01267  Uiso   1.00
C5     C     0.31000   0.93996   0.02520   0.01267  Uiso   1.00
C6     C     0.59828   0.64754   0.91972   0.01267  Uiso   1.00
C7     C     0.93996   0.31000   0.72484   0.01267  Uiso   1.00
C8     C     0.64754   0.59828   0.83446   0.01267  Uiso   1.00
C9     C     0.02520   0.31000   0.93996   0.01267  Uiso   1.00
C10    C     0.91972   0.59828   0.64754   0.01267  Uiso   1.00
C11    C     0.72484   0.93996   0.31000   0.01267  Uiso   1.00
C12    C     0.83446   0.64754   0.59828   0.01267  Uiso   1.00
C13    C     0.31000   0.02520   0.72484   0.01267  Uiso   1.00
C14    C     0.59828   0.91972   0.83446   0.01267  Uiso   1.00
C15    C     0.93996   0.72484   0.02520   0.01267  Uiso   1.00
C16    C     0.64754   0.83446   0.91972   0.01267  Uiso   1.00
C17    C     0.02520   0.93996   0.72484   0.01267  Uiso   1.00
C18    C     0.91972   0.64754   0.83446   0.01267  Uiso   1.00
C19    C     0.72484   0.31000   0.02520   0.01267  Uiso   1.00
C20    C     0.83446   0.59828   0.91972   0.01267  Uiso   1.00
C21    C     0.31000   0.72484   0.93996   0.01267  Uiso   1.00
C22    C     0.59828   0.83446   0.64754   0.01267  Uiso   1.00
C23    C     0.93996   0.02520   0.31000   0.01267  Uiso   1.00
C24    C     0.64754   0.91972   0.59828   0.01267  Uiso   1.00
C25    C     0.27516   0.97480   0.69000   0.01267  Uiso   1.00
C26    C     0.16554   0.08028   0.40172   0.01267  Uiso   1.00
C27    C     0.97480   0.27516   0.06004   0.01267  Uiso   1.00
C28    C     0.08028   0.16554   0.35246   0.01267  Uiso   1.00
C29    C     0.06004   0.69000   0.97480   0.01267  Uiso   1.00
C30    C     0.35246   0.40172   0.08028   0.01267  Uiso   1.00
C31    C     0.69000   0.06004   0.27516   0.01267  Uiso   1.00
C32    C     0.40172   0.35246   0.16554   0.01267  Uiso   1.00
C33    C     0.69000   0.97480   0.06004   0.01267  Uiso   1.00
C34    C     0.40172   0.08028   0.35246   0.01267  Uiso   1.00
C35    C     0.06004   0.27516   0.69000   0.01267  Uiso   1.00
C36    C     0.35246   0.16554   0.40172   0.01267  Uiso   1.00
C37    C     0.97480   0.69000   0.27516   0.01267  Uiso   1.00
C38    C     0.08028   0.40172   0.16554   0.01267  Uiso   1.00
C39    C     0.27516   0.06004   0.97480   0.01267  Uiso   1.00
C40    C     0.16554   0.35246   0.08028   0.01267  Uiso   1.00
C41    C     0.06004   0.97480   0.27516   0.01267  Uiso   1.00
C42    C     0.35246   0.08028   0.16554   0.01267  Uiso   1.00
C43    C     0.69000   0.27516   0.97480   0.01267  Uiso   1.00
C44    C     0.40172   0.16554   0.08028   0.01267  Uiso   1.00
C45    C     0.27516   0.69000   0.06004   0.01267  Uiso   1.00
C46    C     0.16554   0.40172   0.35246   0.01267  Uiso   1.00
C47    C     0.97480   0.06004   0.69000   0.01267  Uiso   1.00
C48    C     0.08028   0.35246   0.40172   0.01267  Uiso   1.00
C49    C     0.97480   0.27516   0.69000   0.01267  Uiso   1.00
C50    C     0.08028   0.16554   0.40172   0.01267  Uiso   1.00
C51    C     0.27516   0.97480   0.06004   0.01267  Uiso   1.00
C52    C     0.16554   0.08028   0.35246   0.01267  Uiso   1.00
C53    C     0.69000   0.06004   0.97480   0.01267  Uiso   1.00
C54    C     0.40172   0.35246   0.08028   0.01267  Uiso   1.00
C55    C     0.06004   0.69000   0.27516   0.01267  Uiso   1.00
C56    C     0.35246   0.40172   0.16554   0.01267  Uiso   1.00
C57    C     0.97480   0.69000   0.06004   0.01267  Uiso   1.00
C58    C     0.08028   0.40172   0.35246   0.01267  Uiso   1.00
C59    C     0.27516   0.06004   0.69000   0.01267  Uiso   1.00
C60    C     0.16554   0.35246   0.40172   0.01267  Uiso   1.00
C61    C     0.69000   0.97480   0.27516   0.01267  Uiso   1.00
C62    C     0.40172   0.08028   0.16554   0.01267  Uiso   1.00
C63    C     0.06004   0.27516   0.97480   0.01267  Uiso   1.00
C64    C     0.35246   0.16554   0.08028   0.01267  Uiso   1.00
C65    C     0.97480   0.06004   0.27516   0.01267  Uiso   1.00
C66    C     0.08028   0.35246   0.16554   0.01267  Uiso   1.00
C67    C     0.27516   0.69000   0.97480   0.01267  Uiso   1.00
C68    C     0.16554   0.40172   0.08028   0.01267  Uiso   1.00
C69    C     0.69000   0.27516   0.06004   0.01267  Uiso   1.00
C70    C     0.40172   0.16554   0.35246   0.01267  Uiso   1.00
C71    C     0.06004   0.97480   0.69000   0.01267  Uiso   1.00
C72    C     0.35246   0.08028   0.40172   0.01267  Uiso   1.00
C73    C     0.72484   0.02520   0.31000   0.01267  Uiso   1.00
C74    C     0.83446   0.91972   0.59828   0.01267  Uiso   1.00
C75    C     0.02520   0.72484   0.93996   0.01267  Uiso   1.00
C76    C     0.91972   0.83446   0.64754   0.01267  Uiso   1.00
C77    C     0.93996   0.31000   0.02520   0.01267  Uiso   1.00
C78    C     0.64754   0.59828   0.91972   0.01267  Uiso   1.00
C79    C     0.31000   0.93996   0.72484   0.01267  Uiso   1.00
C80    C     0.59828   0.64754   0.83446   0.01267  Uiso   1.00
C81    C     0.31000   0.02520   0.93996   0.01267  Uiso   1.00
C82    C     0.59828   0.91972   0.64754   0.01267  Uiso   1.00
C83    C     0.93996   0.72484   0.31000   0.01267  Uiso   1.00
C84    C     0.64754   0.83446   0.59828   0.01267  Uiso   1.00
C85    C     0.02520   0.31000   0.72484   0.01267  Uiso   1.00
C86    C     0.91972   0.59828   0.83446   0.01267  Uiso   1.00
C87    C     0.72484   0.93996   0.02520   0.01267  Uiso   1.00
C88    C     0.83446   0.64754   0.91972   0.01267  Uiso   1.00
C89    C     0.93996   0.02520   0.72484   0.01267  Uiso   1.00
C90    C     0.64754   0.91972   0.83446   0.01267  Uiso   1.00
C91    C     0.31000   0.72484   0.02520   0.01267  Uiso   1.00
C92    C     0.59828   0.83446   0.91972   0.01267  Uiso   1.00
C93    C     0.72484   0.31000   0.93996   0.01267  Uiso   1.00
C94    C     0.83446   0.59828   0.64754   0.01267  Uiso   1.00
C95    C     0.02520   0.93996   0.31000   0.01267  Uiso   1.00
C96    C     0.91972   0.64754   0.59828   0.01267  Uiso   1.00
C97    C     0.92839   0.77157   0.37165   0.01267  Uiso   1.00
C98    C     0.96487   0.74189   0.32837   0.01267  Uiso   1.00
C99    C     0.77157   0.92839   0.92839   0.01267  Uiso   1.00
C100   C     0.74189   0.96487   0.96487   0.01267  Uiso   1.00
C101   C     0.37165   0.92839   0.92839   0.01267  Uiso   1.00
C102   C     0.32837   0.96487   0.96487   0.01267  Uiso   1.00
C103   C     0.92839   0.37165   0.77157   0.01267  Uiso   1.00
C104   C     0.96487   0.32837   0.74189   0.01267  Uiso   1.00
C105   C     0.92839   0.37165   0.92839   0.01267  Uiso   1.00
C106   C     0.96487   0.32837   0.96487   0.01267  Uiso   1.00
C107   C     0.77157   0.92839   0.37165   0.01267  Uiso   1.00
C108   C     0.74189   0.96487   0.32837   0.01267  Uiso   1.00
C109   C     0.37165   0.92839   0.77157   0.01267  Uiso   1.00
C110   C     0.32837   0.96487   0.74189   0.01267  Uiso   1.00
C111   C     0.92839   0.77157   0.92839   0.01267  Uiso   1.00
C112   C     0.96487   0.74189   0.96487   0.01267  Uiso   1.00
C113   C     0.92839   0.92839   0.77157   0.01267  Uiso   1.00
C114   C     0.96487   0.96487   0.74189   0.01267  Uiso   1.00
C115   C     0.77157   0.37165   0.92839   0.01267  Uiso   1.00
C116   C     0.74189   0.32837   0.96487   0.01267  Uiso   1.00
C117   C     0.37165   0.77157   0.92839   0.01267  Uiso   1.00
C118   C     0.32837   0.74189   0.96487   0.01267  Uiso   1.00
C119   C     0.92839   0.92839   0.37165   0.01267  Uiso   1.00
C120   C     0.96487   0.96487   0.32837   0.01267  Uiso   1.00
C121   C     0.22843   0.07161   0.62835   0.01267  Uiso   1.00
C122   C     0.25811   0.03513   0.67163   0.01267  Uiso   1.00
C123   C     0.07161   0.22843   0.07161   0.01267  Uiso   1.00
C124   C     0.03513   0.25811   0.03513   0.01267  Uiso   1.00
C125   C     0.07161   0.62835   0.07161   0.01267  Uiso   1.00
C126   C     0.03513   0.67163   0.03513   0.01267  Uiso   1.00
C127   C     0.62835   0.07161   0.22843   0.01267  Uiso   1.00
C128   C     0.67163   0.03513   0.25811   0.01267  Uiso   1.00
C129   C     0.62835   0.07161   0.07161   0.01267  Uiso   1.00
C130   C     0.67163   0.03513   0.03513   0.01267  Uiso   1.00
C131   C     0.07161   0.22843   0.62835   0.01267  Uiso   1.00
C132   C     0.03513   0.25811   0.67163   0.01267  Uiso   1.00
C133   C     0.07161   0.62835   0.22843   0.01267  Uiso   1.00
C134   C     0.03513   0.67163   0.25811   0.01267  Uiso   1.00
C135   C     0.22843   0.07161   0.07161   0.01267  Uiso   1.00
C136   C     0.25811   0.03513   0.03513   0.01267  Uiso   1.00
C137   C     0.07161   0.07161   0.22843   0.01267  Uiso   1.00
C138   C     0.03513   0.03513   0.25811   0.01267  Uiso   1.00
C139   C     0.62835   0.22843   0.07161   0.01267  Uiso   1.00
C140   C     0.67163   0.25811   0.03513   0.01267  Uiso   1.00
C141   C     0.22843   0.62835   0.07161   0.01267  Uiso   1.00
C142   C     0.25811   0.67163   0.03513   0.01267  Uiso   1.00
C143   C     0.07161   0.07161   0.62835   0.01267  Uiso   1.00
C144   C     0.03513   0.03513   0.67163   0.01267  Uiso   1.00
C145   C     0.87515   0.87515   0.52319   0.01267  Uiso   1.00
C146   C     0.87695   0.87695   0.57335   0.01267  Uiso   1.00
C147   C     0.87515   0.87515   0.72651   0.01267  Uiso   1.00
C148   C     0.87695   0.87695   0.67275   0.01267  Uiso   1.00
C149   C     0.52319   0.72651   0.87515   0.01267  Uiso   1.00
C150   C     0.57335   0.67275   0.87695   0.01267  Uiso   1.00
C151   C     0.72651   0.52319   0.87515   0.01267  Uiso   1.00
C152   C     0.67275   0.57335   0.87695   0.01267  Uiso   1.00
C153   C     0.87515   0.52319   0.72651   0.01267  Uiso   1.00
C154   C     0.87695   0.57335   0.67275   0.01267  Uiso   1.00
C155   C     0.87515   0.72651   0.52319   0.01267  Uiso   1.00
C156   C     0.87695   0.67275   0.57335   0.01267  Uiso   1.00
C157   C     0.52319   0.87515   0.87515   0.01267  Uiso   1.00
C158   C     0.57335   0.87695   0.87695   0.01267  Uiso   1.00
C159   C     0.72651   0.87515   0.87515   0.01267  Uiso   1.00
C160   C     0.67275   0.87695   0.87695   0.01267  Uiso   1.00
C161   C     0.87515   0.72651   0.87515   0.01267  Uiso   1.00
C162   C     0.87695   0.67275   0.87695   0.01267  Uiso   1.00
C163   C     0.87515   0.52319   0.87515   0.01267  Uiso   1.00
C164   C     0.87695   0.57335   0.87695   0.01267  Uiso   1.00
C165   C     0.52319   0.87515   0.72651   0.01267  Uiso   1.00
C166   C     0.57335   0.87695   0.67275   0.01267  Uiso   1.00
C167   C     0.72651   0.87515   0.52319   0.01267  Uiso   1.00
C168   C     0.67275   0.87695   0.57335   0.01267  Uiso   1.00
C169   C     0.12485   0.12485   0.47681   0.01267  Uiso   1.00
C170   C     0.12305   0.12305   0.42665   0.01267  Uiso   1.00
C171   C     0.12485   0.12485   0.27349   0.01267  Uiso   1.00
C172   C     0.12305   0.12305   0.32725   0.01267  Uiso   1.00
C173   C     0.27349   0.47681   0.12485   0.01267  Uiso   1.00
C174   C     0.32725   0.42665   0.12305   0.01267  Uiso   1.00
C175   C     0.47681   0.27349   0.12485   0.01267  Uiso   1.00
C176   C     0.42665   0.32725   0.12305   0.01267  Uiso   1.00
C177   C     0.47681   0.12485   0.27349   0.01267  Uiso   1.00
C178   C     0.42665   0.12305   0.32725   0.01267  Uiso   1.00
C179   C     0.27349   0.12485   0.47681   0.01267  Uiso   1.00
C180   C     0.32725   0.12305   0.42665   0.01267  Uiso   1.00
C181   C     0.12485   0.47681   0.12485   0.01267  Uiso   1.00
C182   C     0.12305   0.42665   0.12305   0.01267  Uiso   1.00
C183   C     0.12485   0.27349   0.12485   0.01267  Uiso   1.00
C184   C     0.12305   0.32725   0.12305   0.01267  Uiso   1.00
C185   C     0.27349   0.12485   0.12485   0.01267  Uiso   1.00
C186   C     0.32725   0.12305   0.12305   0.01267  Uiso   1.00
C187   C     0.47681   0.12485   0.12485   0.01267  Uiso   1.00
C188   C     0.42665   0.12305   0.12305   0.01267  Uiso   1.00
C189   C     0.12485   0.47681   0.27349   0.01267  Uiso   1.00
C190   C     0.12305   0.42665   0.32725   0.01267  Uiso   1.00
C191   C     0.12485   0.27349   0.47681   0.01267  Uiso   1.00
C192   C     0.12305   0.32725   0.42665   0.01267  Uiso   1.00
O1     O     0.91366   0.83466   0.50326   0.01267  Uiso   1.00
O2     O     0.95302   0.78240   0.39028   0.01267  Uiso   1.00
O3     O     0.83466   0.91366   0.74842   0.01267  Uiso   1.00
O4     O     0.78240   0.95302   0.87430   0.01267  Uiso   1.00
O5     O     0.50326   0.74842   0.91366   0.01267  Uiso   1.00
O6     O     0.39028   0.87430   0.95302   0.01267  Uiso   1.00
O7     O     0.74842   0.50326   0.83466   0.01267  Uiso   1.00
O8     O     0.87430   0.39028   0.78240   0.01267  Uiso   1.00
O9     O     0.91366   0.50326   0.74842   0.01267  Uiso   1.00
O10    O     0.95302   0.39028   0.87430   0.01267  Uiso   1.00
O11    O     0.83466   0.74842   0.50326   0.01267  Uiso   1.00
O12    O     0.78240   0.87430   0.39028   0.01267  Uiso   1.00
O13    O     0.50326   0.91366   0.83466   0.01267  Uiso   1.00
O14    O     0.39028   0.95302   0.78240   0.01267  Uiso   1.00
O15    O     0.74842   0.83466   0.91366   0.01267  Uiso   1.00
O16    O     0.87430   0.78240   0.95302   0.01267  Uiso   1.00
O17    O     0.91366   0.74842   0.83466   0.01267  Uiso   1.00
O18    O     0.95302   0.87430   0.78240   0.01267  Uiso   1.00
O19    O     0.83466   0.50326   0.91366   0.01267  Uiso   1.00
O20    O     0.78240   0.39028   0.95302   0.01267  Uiso   1.00
O21    O     0.50326   0.83466   0.74842   0.01267  Uiso   1.00
O22    O     0.39028   0.78240   0.87430   0.01267  Uiso   1.00
O23    O     0.74842   0.91366   0.50326   0.01267  Uiso   1.00
O24    O     0.87430   0.95302   0.39028   0.01267  Uiso   1.00
O25    O     0.16534   0.08634   0.49674   0.01267  Uiso   1.00
O26    O     0.21760   0.04698   0.60972   0.01267  Uiso   1.00
O27    O     0.08634   0.16534   0.25158   0.01267  Uiso   1.00
O28    O     0.04698   0.21760   0.12570   0.01267  Uiso   1.00
O29    O     0.25158   0.49674   0.08634   0.01267  Uiso   1.00
O30    O     0.12570   0.60972   0.04698   0.01267  Uiso   1.00
O31    O     0.49674   0.25158   0.16534   0.01267  Uiso   1.00
O32    O     0.60972   0.12570   0.21760   0.01267  Uiso   1.00
O33    O     0.49674   0.08634   0.25158   0.01267  Uiso   1.00
O34    O     0.60972   0.04698   0.12570   0.01267  Uiso   1.00
O35    O     0.25158   0.16534   0.49674   0.01267  Uiso   1.00
O36    O     0.12570   0.21760   0.60972   0.01267  Uiso   1.00
O37    O     0.08634   0.49674   0.16534   0.01267  Uiso   1.00
O38    O     0.04698   0.60972   0.21760   0.01267  Uiso   1.00
O39    O     0.16534   0.25158   0.08634   0.01267  Uiso   1.00
O40    O     0.21760   0.12570   0.04698   0.01267  Uiso   1.00
O41    O     0.25158   0.08634   0.16534   0.01267  Uiso   1.00
O42    O     0.12570   0.04698   0.21760   0.01267  Uiso   1.00
O43    O     0.49674   0.16534   0.08634   0.01267  Uiso   1.00
O44    O     0.60972   0.21760   0.04698   0.01267  Uiso   1.00
O45    O     0.16534   0.49674   0.25158   0.01267  Uiso   1.00
O46    O     0.21760   0.60972   0.12570   0.01267  Uiso   1.00
O47    O     0.08634   0.25158   0.49674   0.01267  Uiso   1.00
O48    O     0.04698   0.12570   0.60972   0.01267  Uiso   1.00
O49    O     0.08634   0.16534   0.49674   0.01267  Uiso   1.00
O50    O     0.04698   0.21760   0.60972   0.01267  Uiso   1.00
O51    O     0.16534   0.08634   0.25158   0.01267  Uiso   1.00
O52    O     0.21760   0.04698   0.12570   0.01267  Uiso   1.00
O53    O     0.49674   0.25158   0.08634   0.01267  Uiso   1.00
O54    O     0.60972   0.12570   0.04698   0.01267  Uiso   1.00
O55    O     0.25158   0.49674   0.16534   0.01267  Uiso   1.00
O56    O     0.12570   0.60972   0.21760   0.01267  Uiso   1.00
O57    O     0.08634   0.49674   0.25158   0.01267  Uiso   1.00
O58    O     0.04698   0.60972   0.12570   0.01267  Uiso   1.00
O59    O     0.16534   0.25158   0.49674   0.01267  Uiso   1.00
O60    O     0.21760   0.12570   0.60972   0.01267  Uiso   1.00
O61    O     0.49674   0.08634   0.16534   0.01267  Uiso   1.00
O62    O     0.60972   0.04698   0.21760   0.01267  Uiso   1.00
O63    O     0.25158   0.16534   0.08634   0.01267  Uiso   1.00
O64    O     0.12570   0.21760   0.04698   0.01267  Uiso   1.00
O65    O     0.08634   0.25158   0.16534   0.01267  Uiso   1.00
O66    O     0.04698   0.12570   0.21760   0.01267  Uiso   1.00
O67    O     0.16534   0.49674   0.08634   0.01267  Uiso   1.00
O68    O     0.21760   0.60972   0.04698   0.01267  Uiso   1.00
O69    O     0.49674   0.16534   0.25158   0.01267  Uiso   1.00
O70    O     0.60972   0.21760   0.12570   0.01267  Uiso   1.00
O71    O     0.25158   0.08634   0.49674   0.01267  Uiso   1.00
O72    O     0.12570   0.04698   0.60972   0.01267  Uiso   1.00
O73    O     0.83466   0.91366   0.50326   0.01267  Uiso   1.00
O74    O     0.78240   0.95302   0.39028   0.01267  Uiso   1.00
O75    O     0.91366   0.83466   0.74842   0.01267  Uiso   1.00
O76    O     0.95302   0.78240   0.87430   0.01267  Uiso   1.00
O77    O     0.74842   0.50326   0.91366   0.01267  Uiso   1.00
O78    O     0.87430   0.39028   0.95302   0.01267  Uiso   1.00
O79    O     0.50326   0.74842   0.83466   0.01267  Uiso   1.00
O80    O     0.39028   0.87430   0.78240   0.01267  Uiso   1.00
O81    O     0.50326   0.91366   0.74842   0.01267  Uiso   1.00
O82    O     0.39028   0.95302   0.87430   0.01267  Uiso   1.00
O83    O     0.74842   0.83466   0.50326   0.01267  Uiso   1.00
O84    O     0.87430   0.78240   0.39028   0.01267  Uiso   1.00
O85    O     0.91366   0.50326   0.83466   0.01267  Uiso   1.00
O86    O     0.95302   0.39028   0.78240   0.01267  Uiso   1.00
O87    O     0.83466   0.74842   0.91366   0.01267  Uiso   1.00
O88    O     0.78240   0.87430   0.95302   0.01267  Uiso   1.00
O89    O     0.74842   0.91366   0.83466   0.01267  Uiso   1.00
O90    O     0.87430   0.95302   0.78240   0.01267  Uiso   1.00
O91    O     0.50326   0.83466   0.91366   0.01267  Uiso   1.00
O92    O     0.39028   0.78240   0.95302   0.01267  Uiso   1.00
O93    O     0.83466   0.50326   0.74842   0.01267  Uiso   1.00
O94    O     0.78240   0.39028   0.87430   0.01267  Uiso   1.00
O95    O     0.91366   0.74842   0.50326   0.01267  Uiso   1.00
O96    O     0.95302   0.87430   0.39028   0.01267  Uiso   1.00
O97    O     0.85102   0.85102   0.44694   0.01267  Uiso   1.00
O98    O     0.85102   0.85102   0.85102   0.01267  Uiso   1.00
O99    O     0.44694   0.85102   0.85102   0.01267  Uiso   1.00
O100   O     0.85102   0.44694   0.85102   0.01267  Uiso   1.00
O101   O     0.14898   0.14898   0.55306   0.01267  Uiso   1.00
O102   O     0.14898   0.14898   0.14898   0.01267  Uiso   1.00
O103   O     0.14898   0.55306   0.14898   0.01267  Uiso   1.00
O104   O     0.55306   0.14898   0.14898   0.01267  Uiso   1.00
