data_image0
_cell_length_a       27.2662
_cell_length_b       11.5396
_cell_length_c       13.9678
_cell_angle_alpha    90
_cell_angle_beta     90
_cell_angle_gamma    90

_symmetry_space_group_name_H-M    "P 1"
_symmetry_int_tables_number       1

loop_
  _symmetry_equiv_pos_as_xyz
  'x, y, z'

loop_
  _atom_site_label
  _atom_site_occupancy
  _atom_site_fract_x
  _atom_site_fract_y
  _atom_site_fract_z
  _atom_site_thermal_displace_type
  _atom_site_B_iso_or_equiv
  _atom_site_type_symbol
  O1       1.0000 0.05617  0.96740  0.27820  Biso   1.000  O
  O2       1.0000 0.05250  0.06230  0.41570  Biso   1.000  O
  C1       1.0000 0.07220  0.03710  0.33870  Biso   1.000  C
  C2       1.0000 0.20504  0.22230  0.27470  Biso   1.000  C
  C3       1.0000 0.29486  0.47680  0.22720  Biso   1.000  C
  C4       1.0000 0.11970  0.09880  0.31650  Biso   1.000  C
  C5       1.0000 0.18410  0.22620  0.36460  Biso   1.000  C
  H1       1.0000 0.19940  0.27160  0.41380  Biso   1.000  H
  C6       1.0000 0.14200  0.16660  0.38490  Biso   1.000  C
  H2       1.0000 0.12780  0.17220  0.44760  Biso   1.000  H
  C7       1.0000 0.18240  0.15430  0.20570  Biso   1.000  C
  H3       1.0000 0.19620  0.14960  0.14260  Biso   1.000  H
  C8       1.0000 0.14020  0.09320  0.22700  Biso   1.000  C
  H4       1.0000 0.12510  0.04630  0.17850  Biso   1.000  H
  C9       1.0000 0.33190  0.49340  0.29100  Biso   1.000  C
  H5       1.0000 0.33060  0.45520  0.35200  Biso   1.000  H
  C10      1.0000 0.29900  0.52900  0.13970  Biso   1.000  C
  H6       1.0000 0.27360  0.51910  0.09280  Biso   1.000  H
  C11      1.0000 0.33980  0.59640  0.11810  Biso   1.000  C
  H7       1.0000 0.34240  0.63110  0.05580  Biso   1.000  H
  C12      1.0000 0.37619  0.61420  0.18360  Biso   1.000  C
  C13      1.0000 0.41947  0.69020  0.15860  Biso   1.000  C
  C14      1.0000 0.37080  0.56280  0.27050  Biso   1.000  C
  H8       1.0000 0.39510  0.57610  0.31900  Biso   1.000  H
  O3       1.0000 0.44657  0.72170  0.22580  Biso   1.000  O
  O4       1.0000 0.42521  0.71470  0.07250  Biso   1.000  O
  O5       1.0000 0.44383  0.03260  0.77820  Biso   1.000  O
  O6       1.0000 0.44750  0.93770  0.91570  Biso   1.000  O
  C15      1.0000 0.42780  0.96290  0.83870  Biso   1.000  C
  C16      1.0000 0.29496  0.77770  0.77470  Biso   1.000  C
  C17      1.0000 0.20514  0.52320  0.72720  Biso   1.000  C
  C18      1.0000 0.38030  0.90120  0.81650  Biso   1.000  C
  C19      1.0000 0.31590  0.77380  0.86460  Biso   1.000  C
  H9       1.0000 0.30060  0.72840  0.91380  Biso   1.000  H
  C20      1.0000 0.35800  0.83340  0.88490  Biso   1.000  C
  H10      1.0000 0.37220  0.82780  0.94760  Biso   1.000  H
  C21      1.0000 0.31760  0.84570  0.70570  Biso   1.000  C
  H11      1.0000 0.30380  0.85040  0.64260  Biso   1.000  H
  C22      1.0000 0.35980  0.90680  0.72700  Biso   1.000  C
  H12      1.0000 0.37490  0.95370  0.67850  Biso   1.000  H
  C23      1.0000 0.16810  0.50660  0.79100  Biso   1.000  C
  H13      1.0000 0.16940  0.54480  0.85200  Biso   1.000  H
  C24      1.0000 0.20100  0.47100  0.63970  Biso   1.000  C
  H14      1.0000 0.22640  0.48090  0.59280  Biso   1.000  H
  C25      1.0000 0.16020  0.40360  0.61810  Biso   1.000  C
  H15      1.0000 0.15760  0.36890  0.55580  Biso   1.000  H
  C26      1.0000 0.12381  0.38580  0.68360  Biso   1.000  C
  C27      1.0000 0.08053  0.30980  0.65860  Biso   1.000  C
  C28      1.0000 0.12920  0.43720  0.77050  Biso   1.000  C
  H16      1.0000 0.10490  0.42390  0.81900  Biso   1.000  H
  O7       1.0000 0.05343  0.27830  0.72580  Biso   1.000  O
  O8       1.0000 0.07479  0.28530  0.57250  Biso   1.000  O
  O9       1.0000 0.44383  0.96740  0.22180  Biso   1.000  O
  O10      1.0000 0.44750  0.06230  0.08430  Biso   1.000  O
  C29      1.0000 0.42780  0.03710  0.16130  Biso   1.000  C
  C30      1.0000 0.29496  0.22230  0.22530  Biso   1.000  C
  C31      1.0000 0.20514  0.47680  0.27280  Biso   1.000  C
  C32      1.0000 0.38030  0.09880  0.18350  Biso   1.000  C
  C33      1.0000 0.31590  0.22620  0.13540  Biso   1.000  C
  H17      1.0000 0.30060  0.27160  0.08620  Biso   1.000  H
  C34      1.0000 0.35800  0.16660  0.11510  Biso   1.000  C
  H18      1.0000 0.37220  0.17220  0.05240  Biso   1.000  H
  C35      1.0000 0.31760  0.15430  0.29430  Biso   1.000  C
  H19      1.0000 0.30380  0.14960  0.35740  Biso   1.000  H
  C36      1.0000 0.35980  0.09320  0.27300  Biso   1.000  C
  H20      1.0000 0.37490  0.04630  0.32150  Biso   1.000  H
  C37      1.0000 0.16810  0.49340  0.20900  Biso   1.000  C
  H21      1.0000 0.16940  0.45520  0.14800  Biso   1.000  H
  C38      1.0000 0.20100  0.52900  0.36030  Biso   1.000  C
  H22      1.0000 0.22640  0.51910  0.40720  Biso   1.000  H
  C39      1.0000 0.16020  0.59640  0.38190  Biso   1.000  C
  H23      1.0000 0.15760  0.63110  0.44420  Biso   1.000  H
  C40      1.0000 0.12381  0.61420  0.31640  Biso   1.000  C
  C41      1.0000 0.08053  0.69020  0.34140  Biso   1.000  C
  C42      1.0000 0.12920  0.56280  0.22950  Biso   1.000  C
  H24      1.0000 0.10490  0.57610  0.18100  Biso   1.000  H
  O11      1.0000 0.05343  0.72170  0.27420  Biso   1.000  O
  O12      1.0000 0.07479  0.71470  0.42750  Biso   1.000  O
  O13      1.0000 0.05617  0.03260  0.72180  Biso   1.000  O
  O14      1.0000 0.05250  0.93770  0.58430  Biso   1.000  O
  C43      1.0000 0.07220  0.96290  0.66130  Biso   1.000  C
  C44      1.0000 0.20504  0.77770  0.72530  Biso   1.000  C
  C45      1.0000 0.29486  0.52320  0.77280  Biso   1.000  C
  C46      1.0000 0.11970  0.90120  0.68350  Biso   1.000  C
  C47      1.0000 0.18410  0.77380  0.63540  Biso   1.000  C
  H25      1.0000 0.19940  0.72840  0.58620  Biso   1.000  H
  C48      1.0000 0.14200  0.83340  0.61510  Biso   1.000  C
  H26      1.0000 0.12780  0.82780  0.55240  Biso   1.000  H
  C49      1.0000 0.18240  0.84570  0.79430  Biso   1.000  C
  H27      1.0000 0.19620  0.85040  0.85740  Biso   1.000  H
  C50      1.0000 0.14020  0.90680  0.77300  Biso   1.000  C
  H28      1.0000 0.12510  0.95370  0.82150  Biso   1.000  H
  C51      1.0000 0.33190  0.50660  0.70900  Biso   1.000  C
  H29      1.0000 0.33060  0.54480  0.64800  Biso   1.000  H
  C52      1.0000 0.29900  0.47100  0.86030  Biso   1.000  C
  H30      1.0000 0.27360  0.48090  0.90720  Biso   1.000  H
  C53      1.0000 0.33980  0.40360  0.88190  Biso   1.000  C
  H31      1.0000 0.34240  0.36890  0.94420  Biso   1.000  H
  C54      1.0000 0.37619  0.38580  0.81640  Biso   1.000  C
  C55      1.0000 0.41947  0.30980  0.84140  Biso   1.000  C
  C56      1.0000 0.37080  0.43720  0.72950  Biso   1.000  C
  H32      1.0000 0.39510  0.42390  0.68100  Biso   1.000  H
  O15      1.0000 0.44657  0.27830  0.77420  Biso   1.000  O
  O16      1.0000 0.42521  0.28530  0.92750  Biso   1.000  O
  O17      1.0000 0.94383  0.03260  0.72180  Biso   1.000  O
  O18      1.0000 0.94750  0.93770  0.58430  Biso   1.000  O
  C57      1.0000 0.92780  0.96290  0.66130  Biso   1.000  C
  C58      1.0000 0.79496  0.77770  0.72530  Biso   1.000  C
  C59      1.0000 0.70514  0.52320  0.77280  Biso   1.000  C
  C60      1.0000 0.88030  0.90120  0.68350  Biso   1.000  C
  C61      1.0000 0.81590  0.77380  0.63540  Biso   1.000  C
  H33      1.0000 0.80060  0.72840  0.58620  Biso   1.000  H
  C62      1.0000 0.85800  0.83340  0.61510  Biso   1.000  C
  H34      1.0000 0.87220  0.82780  0.55240  Biso   1.000  H
  C63      1.0000 0.81760  0.84570  0.79430  Biso   1.000  C
  H35      1.0000 0.80380  0.85040  0.85740  Biso   1.000  H
  C64      1.0000 0.85980  0.90680  0.77300  Biso   1.000  C
  H36      1.0000 0.87490  0.95370  0.82150  Biso   1.000  H
  C65      1.0000 0.66810  0.50660  0.70900  Biso   1.000  C
  H37      1.0000 0.66940  0.54480  0.64800  Biso   1.000  H
  C66      1.0000 0.70100  0.47100  0.86030  Biso   1.000  C
  H38      1.0000 0.72640  0.48090  0.90720  Biso   1.000  H
  C67      1.0000 0.66020  0.40360  0.88190  Biso   1.000  C
  H39      1.0000 0.65760  0.36890  0.94420  Biso   1.000  H
  C68      1.0000 0.62381  0.38580  0.81640  Biso   1.000  C
  C69      1.0000 0.58053  0.30980  0.84140  Biso   1.000  C
  C70      1.0000 0.62920  0.43720  0.72950  Biso   1.000  C
  H40      1.0000 0.60490  0.42390  0.68100  Biso   1.000  H
  O19      1.0000 0.55343  0.27830  0.77420  Biso   1.000  O
  O20      1.0000 0.57479  0.28530  0.92750  Biso   1.000  O
  O21      1.0000 0.55617  0.96740  0.22180  Biso   1.000  O
  O22      1.0000 0.55250  0.06230  0.08430  Biso   1.000  O
  C71      1.0000 0.57220  0.03710  0.16130  Biso   1.000  C
  C72      1.0000 0.70504  0.22230  0.22530  Biso   1.000  C
  C73      1.0000 0.79486  0.47680  0.27280  Biso   1.000  C
  C74      1.0000 0.61970  0.09880  0.18350  Biso   1.000  C
  C75      1.0000 0.68410  0.22620  0.13540  Biso   1.000  C
  H41      1.0000 0.69940  0.27160  0.08620  Biso   1.000  H
  C76      1.0000 0.64200  0.16660  0.11510  Biso   1.000  C
  H42      1.0000 0.62780  0.17220  0.05240  Biso   1.000  H
  C77      1.0000 0.68240  0.15430  0.29430  Biso   1.000  C
  H43      1.0000 0.69620  0.14960  0.35740  Biso   1.000  H
  C78      1.0000 0.64020  0.09320  0.27300  Biso   1.000  C
  H44      1.0000 0.62510  0.04630  0.32150  Biso   1.000  H
  C79      1.0000 0.83190  0.49340  0.20900  Biso   1.000  C
  H45      1.0000 0.83060  0.45520  0.14800  Biso   1.000  H
  C80      1.0000 0.79900  0.52900  0.36030  Biso   1.000  C
  H46      1.0000 0.77360  0.51910  0.40720  Biso   1.000  H
  C81      1.0000 0.83980  0.59640  0.38190  Biso   1.000  C
  H47      1.0000 0.84240  0.63110  0.44420  Biso   1.000  H
  C82      1.0000 0.87619  0.61420  0.31640  Biso   1.000  C
  C83      1.0000 0.91947  0.69020  0.34140  Biso   1.000  C
  C84      1.0000 0.87080  0.56280  0.22950  Biso   1.000  C
  H48      1.0000 0.89510  0.57610  0.18100  Biso   1.000  H
  O23      1.0000 0.94657  0.72170  0.27420  Biso   1.000  O
  O24      1.0000 0.92521  0.71470  0.42750  Biso   1.000  O
  O25      1.0000 0.55617  0.03260  0.77820  Biso   1.000  O
  O26      1.0000 0.55250  0.93770  0.91570  Biso   1.000  O
  C85      1.0000 0.57220  0.96290  0.83870  Biso   1.000  C
  C86      1.0000 0.70504  0.77770  0.77470  Biso   1.000  C
  C87      1.0000 0.79486  0.52320  0.72720  Biso   1.000  C
  C88      1.0000 0.61970  0.90120  0.81650  Biso   1.000  C
  C89      1.0000 0.68410  0.77380  0.86460  Biso   1.000  C
  H49      1.0000 0.69940  0.72840  0.91380  Biso   1.000  H
  C90      1.0000 0.64200  0.83340  0.88490  Biso   1.000  C
  H50      1.0000 0.62780  0.82780  0.94760  Biso   1.000  H
  C91      1.0000 0.68240  0.84570  0.70570  Biso   1.000  C
  H51      1.0000 0.69620  0.85040  0.64260  Biso   1.000  H
  C92      1.0000 0.64020  0.90680  0.72700  Biso   1.000  C
  H52      1.0000 0.62510  0.95370  0.67850  Biso   1.000  H
  C93      1.0000 0.83190  0.50660  0.79100  Biso   1.000  C
  H53      1.0000 0.83060  0.54480  0.85200  Biso   1.000  H
  C94      1.0000 0.79900  0.47100  0.63970  Biso   1.000  C
  H54      1.0000 0.77360  0.48090  0.59280  Biso   1.000  H
  C95      1.0000 0.83980  0.40360  0.61810  Biso   1.000  C
  H55      1.0000 0.84240  0.36890  0.55580  Biso   1.000  H
  C96      1.0000 0.87619  0.38580  0.68360  Biso   1.000  C
  C97      1.0000 0.91947  0.30980  0.65860  Biso   1.000  C
  C98      1.0000 0.87080  0.43720  0.77050  Biso   1.000  C
  H56      1.0000 0.89510  0.42390  0.81900  Biso   1.000  H
  O27      1.0000 0.94657  0.27830  0.72580  Biso   1.000  O
  O28      1.0000 0.92521  0.28530  0.57250  Biso   1.000  O
  O29      1.0000 0.94383  0.96740  0.27820  Biso   1.000  O
  O30      1.0000 0.94750  0.06230  0.41570  Biso   1.000  O
  C99      1.0000 0.92780  0.03710  0.33870  Biso   1.000  C
  C100     1.0000 0.79496  0.22230  0.27470  Biso   1.000  C
  C101     1.0000 0.70514  0.47680  0.22720  Biso   1.000  C
  C102     1.0000 0.88030  0.09880  0.31650  Biso   1.000  C
  C103     1.0000 0.81590  0.22620  0.36460  Biso   1.000  C
  H57      1.0000 0.80060  0.27160  0.41380  Biso   1.000  H
  C104     1.0000 0.85800  0.16660  0.38490  Biso   1.000  C
  H58      1.0000 0.87220  0.17220  0.44760  Biso   1.000  H
  C105     1.0000 0.81760  0.15430  0.20570  Biso   1.000  C
  H59      1.0000 0.80380  0.14960  0.14260  Biso   1.000  H
  C106     1.0000 0.85980  0.09320  0.22700  Biso   1.000  C
  H60      1.0000 0.87490  0.04630  0.17850  Biso   1.000  H
  C107     1.0000 0.66810  0.49340  0.29100  Biso   1.000  C
  H61      1.0000 0.66940  0.45520  0.35200  Biso   1.000  H
  C108     1.0000 0.70100  0.52900  0.13970  Biso   1.000  C
  H62      1.0000 0.72640  0.51910  0.09280  Biso   1.000  H
  C109     1.0000 0.66020  0.59640  0.11810  Biso   1.000  C
  H63      1.0000 0.65760  0.63110  0.05580  Biso   1.000  H
  C110     1.0000 0.62381  0.61420  0.18360  Biso   1.000  C
  C111     1.0000 0.58053  0.69020  0.15860  Biso   1.000  C
  C112     1.0000 0.62920  0.56280  0.27050  Biso   1.000  C
  H64      1.0000 0.60490  0.57610  0.31900  Biso   1.000  H
  O31      1.0000 0.55343  0.72170  0.22580  Biso   1.000  O
  O32      1.0000 0.57479  0.71470  0.07250  Biso   1.000  O
  Ni1      1.0000 0.00000  0.85030  0.28137  Biso   1.000  Ni
  O33      1.0000 0.00000  0.84420  0.42950  Biso   1.000  O
  Ni2      1.0000 0.50000  0.14970  0.78137  Biso   1.000  Ni
  O34      1.0000 0.50000  0.15580  0.92950  Biso   1.000  O
  Ni3      1.0000 0.50000  0.85030  0.21863  Biso   1.000  Ni
  O35      1.0000 0.50000  0.84420  0.07050  Biso   1.000  O
  Ni4      1.0000 0.00000  0.14970  0.71863  Biso   1.000  Ni
  O36      1.0000 0.00000  0.15580  0.57050  Biso   1.000  O
  Ni5      1.0000 0.00000  0.00000  0.50000  Biso   1.000  Ni
  Ni6      1.0000 0.50000  0.00000  0.00000  Biso   1.000  Ni
  C113     1.0000 0.25000  0.28950  0.25000  Biso   1.000  C
  C114     1.0000 0.25000  0.40660  0.25000  Biso   1.000  C
  C115     1.0000 0.25000  0.71050  0.75000  Biso   1.000  C
  C116     1.0000 0.25000  0.59340  0.75000  Biso   1.000  C
  C117     1.0000 0.75000  0.71050  0.75000  Biso   1.000  C
  C118     1.0000 0.75000  0.59340  0.75000  Biso   1.000  C
  C119     1.0000 0.75000  0.28950  0.25000  Biso   1.000  C
  C120     1.0000 0.75000  0.40660  0.25000  Biso   1.000  C
