data_image0
_cell_length_a       26.25
_cell_length_b       26.25
_cell_length_c       11.2436
_cell_angle_alpha    90
_cell_angle_beta     90
_cell_angle_gamma    120

_symmetry_space_group_name_H-M    "P 1"
_symmetry_int_tables_number       1

loop_
  _symmetry_equiv_pos_as_xyz
  'x, y, z'

loop_
  _atom_site_label
  _atom_site_occupancy
  _atom_site_fract_x
  _atom_site_fract_y
  _atom_site_fract_z
  _atom_site_thermal_displace_type
  _atom_site_B_iso_or_equiv
  _atom_site_type_symbol
  O1       1.0000 0.34155  0.57370  0.12870  Biso   1.000  O
  C1       1.0000 0.40350  0.52160  0.22470  Biso   1.000  C
  H1       1.0000 0.38980  0.49570  0.15730  Biso   1.000  H
  C2       1.0000 0.41280  0.50670  0.37740  Biso   1.000  C
  H2       1.0000 0.38560  0.48980  0.44230  Biso   1.000  H
  C3       1.0000 0.38600  0.53170  0.30730  Biso   1.000  C
  H3       1.0000 0.35110  0.52160  0.35230  Biso   1.000  H
  C4       1.0000 0.42990  0.49650  0.28860  Biso   1.000  C
  H4       1.0000 0.42450  0.46500  0.23700  Biso   1.000  H
  O2       1.0000 0.42630  0.76785  0.12870  Biso   1.000  O
  C5       1.0000 0.47840  0.88190  0.22470  Biso   1.000  C
  H5       1.0000 0.50430  0.89410  0.15730  Biso   1.000  H
  C6       1.0000 0.49330  0.90610  0.37740  Biso   1.000  C
  H6       1.0000 0.51020  0.89580  0.44230  Biso   1.000  H
  C7       1.0000 0.46830  0.85430  0.30730  Biso   1.000  C
  H7       1.0000 0.47840  0.82950  0.35230  Biso   1.000  H
  C8       1.0000 0.50350  0.93340  0.28860  Biso   1.000  C
  H8       1.0000 0.53500  0.95950  0.23700  Biso   1.000  H
  O3       1.0000 0.23215  0.65845  0.12870  Biso   1.000  O
  C9       1.0000 0.11810  0.59650  0.22470  Biso   1.000  C
  H9       1.0000 0.10590  0.61020  0.15730  Biso   1.000  H
  C10      1.0000 0.09390  0.58720  0.37740  Biso   1.000  C
  H10      1.0000 0.10420  0.61440  0.44230  Biso   1.000  H
  C11      1.0000 0.14570  0.61400  0.30730  Biso   1.000  C
  H11      1.0000 0.17050  0.64890  0.35230  Biso   1.000  H
  C12      1.0000 0.06660  0.57010  0.28860  Biso   1.000  C
  H12      1.0000 0.04050  0.57550  0.23700  Biso   1.000  H
  O4       1.0000 0.65845  0.42630  0.12870  Biso   1.000  O
  C13      1.0000 0.59650  0.47840  0.22470  Biso   1.000  C
  H13      1.0000 0.61020  0.50430  0.15730  Biso   1.000  H
  C14      1.0000 0.58720  0.49330  0.37740  Biso   1.000  C
  H14      1.0000 0.61440  0.51020  0.44230  Biso   1.000  H
  C15      1.0000 0.61400  0.46830  0.30730  Biso   1.000  C
  H15      1.0000 0.64890  0.47840  0.35230  Biso   1.000  H
  C16      1.0000 0.57010  0.50350  0.28860  Biso   1.000  C
  H16      1.0000 0.57550  0.53500  0.23700  Biso   1.000  H
  O5       1.0000 0.57370  0.23215  0.12870  Biso   1.000  O
  C17      1.0000 0.52160  0.11810  0.22470  Biso   1.000  C
  H17      1.0000 0.49570  0.10590  0.15730  Biso   1.000  H
  C18      1.0000 0.50670  0.09390  0.37740  Biso   1.000  C
  H18      1.0000 0.48980  0.10420  0.44230  Biso   1.000  H
  C19      1.0000 0.53170  0.14570  0.30730  Biso   1.000  C
  H19      1.0000 0.52160  0.17050  0.35230  Biso   1.000  H
  C20      1.0000 0.49650  0.06660  0.28860  Biso   1.000  C
  H20      1.0000 0.46500  0.04050  0.23700  Biso   1.000  H
  O6       1.0000 0.76785  0.34155  0.12870  Biso   1.000  O
  C21      1.0000 0.88190  0.40350  0.22470  Biso   1.000  C
  H21      1.0000 0.89410  0.38980  0.15730  Biso   1.000  H
  C22      1.0000 0.90610  0.41280  0.37740  Biso   1.000  C
  H22      1.0000 0.89580  0.38560  0.44230  Biso   1.000  H
  C23      1.0000 0.85430  0.38600  0.30730  Biso   1.000  C
  H23      1.0000 0.82950  0.35110  0.35230  Biso   1.000  H
  C24      1.0000 0.93340  0.42990  0.28860  Biso   1.000  C
  H24      1.0000 0.95950  0.42450  0.23700  Biso   1.000  H
  O7       1.0000 0.57370  0.34155  0.87130  Biso   1.000  O
  C25      1.0000 0.52160  0.40350  0.77530  Biso   1.000  C
  H25      1.0000 0.49570  0.38980  0.84270  Biso   1.000  H
  C26      1.0000 0.50670  0.41280  0.62260  Biso   1.000  C
  H26      1.0000 0.48980  0.38560  0.55770  Biso   1.000  H
  C27      1.0000 0.53170  0.38600  0.69270  Biso   1.000  C
  H27      1.0000 0.52160  0.35110  0.64770  Biso   1.000  H
  C28      1.0000 0.49650  0.42990  0.71140  Biso   1.000  C
  H28      1.0000 0.46500  0.42450  0.76300  Biso   1.000  H
  O8       1.0000 0.76785  0.42630  0.87130  Biso   1.000  O
  C29      1.0000 0.88190  0.47840  0.77530  Biso   1.000  C
  H29      1.0000 0.89410  0.50430  0.84270  Biso   1.000  H
  C30      1.0000 0.90610  0.49330  0.62260  Biso   1.000  C
  H30      1.0000 0.89580  0.51020  0.55770  Biso   1.000  H
  C31      1.0000 0.85430  0.46830  0.69270  Biso   1.000  C
  H31      1.0000 0.82950  0.47840  0.64770  Biso   1.000  H
  C32      1.0000 0.93340  0.50350  0.71140  Biso   1.000  C
  H32      1.0000 0.95950  0.53500  0.76300  Biso   1.000  H
  O9       1.0000 0.65845  0.23215  0.87130  Biso   1.000  O
  C33      1.0000 0.59650  0.11810  0.77530  Biso   1.000  C
  H33      1.0000 0.61020  0.10590  0.84270  Biso   1.000  H
  C34      1.0000 0.58720  0.09390  0.62260  Biso   1.000  C
  H34      1.0000 0.61440  0.10420  0.55770  Biso   1.000  H
  C35      1.0000 0.61400  0.14570  0.69270  Biso   1.000  C
  H35      1.0000 0.64890  0.17050  0.64770  Biso   1.000  H
  C36      1.0000 0.57010  0.06660  0.71140  Biso   1.000  C
  H36      1.0000 0.57550  0.04050  0.76300  Biso   1.000  H
  O10      1.0000 0.42630  0.65845  0.87130  Biso   1.000  O
  C37      1.0000 0.47840  0.59650  0.77530  Biso   1.000  C
  H37      1.0000 0.50430  0.61020  0.84270  Biso   1.000  H
  C38      1.0000 0.49330  0.58720  0.62260  Biso   1.000  C
  H38      1.0000 0.51020  0.61440  0.55770  Biso   1.000  H
  C39      1.0000 0.46830  0.61400  0.69270  Biso   1.000  C
  H39      1.0000 0.47840  0.64890  0.64770  Biso   1.000  H
  C40      1.0000 0.50350  0.57010  0.71140  Biso   1.000  C
  H40      1.0000 0.53500  0.57550  0.76300  Biso   1.000  H
  O11      1.0000 0.23215  0.57370  0.87130  Biso   1.000  O
  C41      1.0000 0.11810  0.52160  0.77530  Biso   1.000  C
  H41      1.0000 0.10590  0.49570  0.84270  Biso   1.000  H
  C42      1.0000 0.09390  0.50670  0.62260  Biso   1.000  C
  H42      1.0000 0.10420  0.48980  0.55770  Biso   1.000  H
  C43      1.0000 0.14570  0.53170  0.69270  Biso   1.000  C
  H43      1.0000 0.17050  0.52160  0.64770  Biso   1.000  H
  C44      1.0000 0.06660  0.49650  0.71140  Biso   1.000  C
  H44      1.0000 0.04050  0.46500  0.76300  Biso   1.000  H
  O12      1.0000 0.34155  0.76785  0.87130  Biso   1.000  O
  C45      1.0000 0.40350  0.88190  0.77530  Biso   1.000  C
  H45      1.0000 0.38980  0.89410  0.84270  Biso   1.000  H
  C46      1.0000 0.41280  0.90610  0.62260  Biso   1.000  C
  H46      1.0000 0.38560  0.89580  0.55770  Biso   1.000  H
  C47      1.0000 0.38600  0.85430  0.69270  Biso   1.000  C
  H47      1.0000 0.35110  0.82950  0.64770  Biso   1.000  H
  C48      1.0000 0.42990  0.93340  0.71140  Biso   1.000  C
  H48      1.0000 0.42450  0.95950  0.76300  Biso   1.000  H
  O13      1.0000 0.65845  0.42630  0.87130  Biso   1.000  O
  C49      1.0000 0.59650  0.47840  0.77530  Biso   1.000  C
  H49      1.0000 0.61020  0.50430  0.84270  Biso   1.000  H
  C50      1.0000 0.58720  0.49330  0.62260  Biso   1.000  C
  H50      1.0000 0.61440  0.51020  0.55770  Biso   1.000  H
  C51      1.0000 0.61400  0.46830  0.69270  Biso   1.000  C
  H51      1.0000 0.64890  0.47840  0.64770  Biso   1.000  H
  C52      1.0000 0.57010  0.50350  0.71140  Biso   1.000  C
  H52      1.0000 0.57550  0.53500  0.76300  Biso   1.000  H
  O14      1.0000 0.57370  0.23215  0.87130  Biso   1.000  O
  C53      1.0000 0.52160  0.11810  0.77530  Biso   1.000  C
  H53      1.0000 0.49570  0.10590  0.84270  Biso   1.000  H
  C54      1.0000 0.50670  0.09390  0.62260  Biso   1.000  C
  H54      1.0000 0.48980  0.10420  0.55770  Biso   1.000  H
  C55      1.0000 0.53170  0.14570  0.69270  Biso   1.000  C
  H55      1.0000 0.52160  0.17050  0.64770  Biso   1.000  H
  C56      1.0000 0.49650  0.06660  0.71140  Biso   1.000  C
  H56      1.0000 0.46500  0.04050  0.76300  Biso   1.000  H
  O15      1.0000 0.76785  0.34155  0.87130  Biso   1.000  O
  C57      1.0000 0.88190  0.40350  0.77530  Biso   1.000  C
  H57      1.0000 0.89410  0.38980  0.84270  Biso   1.000  H
  C58      1.0000 0.90610  0.41280  0.62260  Biso   1.000  C
  H58      1.0000 0.89580  0.38560  0.55770  Biso   1.000  H
  C59      1.0000 0.85430  0.38600  0.69270  Biso   1.000  C
  H59      1.0000 0.82950  0.35110  0.64770  Biso   1.000  H
  C60      1.0000 0.93340  0.42990  0.71140  Biso   1.000  C
  H60      1.0000 0.95950  0.42450  0.76300  Biso   1.000  H
  O16      1.0000 0.34155  0.57370  0.87130  Biso   1.000  O
  C61      1.0000 0.40350  0.52160  0.77530  Biso   1.000  C
  H61      1.0000 0.38980  0.49570  0.84270  Biso   1.000  H
  C62      1.0000 0.41280  0.50670  0.62260  Biso   1.000  C
  H62      1.0000 0.38560  0.48980  0.55770  Biso   1.000  H
  C63      1.0000 0.38600  0.53170  0.69270  Biso   1.000  C
  H63      1.0000 0.35110  0.52160  0.64770  Biso   1.000  H
  C64      1.0000 0.42990  0.49650  0.71140  Biso   1.000  C
  H64      1.0000 0.42450  0.46500  0.76300  Biso   1.000  H
  O17      1.0000 0.42630  0.76785  0.87130  Biso   1.000  O
  C65      1.0000 0.47840  0.88190  0.77530  Biso   1.000  C
  H65      1.0000 0.50430  0.89410  0.84270  Biso   1.000  H
  C66      1.0000 0.49330  0.90610  0.62260  Biso   1.000  C
  H66      1.0000 0.51020  0.89580  0.55770  Biso   1.000  H
  C67      1.0000 0.46830  0.85430  0.69270  Biso   1.000  C
  H67      1.0000 0.47840  0.82950  0.64770  Biso   1.000  H
  C68      1.0000 0.50350  0.93340  0.71140  Biso   1.000  C
  H68      1.0000 0.53500  0.95950  0.76300  Biso   1.000  H
  O18      1.0000 0.23215  0.65845  0.87130  Biso   1.000  O
  C69      1.0000 0.11810  0.59650  0.77530  Biso   1.000  C
  H69      1.0000 0.10590  0.61020  0.84270  Biso   1.000  H
  C70      1.0000 0.09390  0.58720  0.62260  Biso   1.000  C
  H70      1.0000 0.10420  0.61440  0.55770  Biso   1.000  H
  C71      1.0000 0.14570  0.61400  0.69270  Biso   1.000  C
  H71      1.0000 0.17050  0.64890  0.64770  Biso   1.000  H
  C72      1.0000 0.06660  0.57010  0.71140  Biso   1.000  C
  H72      1.0000 0.04050  0.57550  0.76300  Biso   1.000  H
  O19      1.0000 0.42630  0.65845  0.12870  Biso   1.000  O
  C73      1.0000 0.47840  0.59650  0.22470  Biso   1.000  C
  H73      1.0000 0.50430  0.61020  0.15730  Biso   1.000  H
  C74      1.0000 0.49330  0.58720  0.37740  Biso   1.000  C
  H74      1.0000 0.51020  0.61440  0.44230  Biso   1.000  H
  C75      1.0000 0.46830  0.61400  0.30730  Biso   1.000  C
  H75      1.0000 0.47840  0.64890  0.35230  Biso   1.000  H
  C76      1.0000 0.50350  0.57010  0.28860  Biso   1.000  C
  H76      1.0000 0.53500  0.57550  0.23700  Biso   1.000  H
  O20      1.0000 0.23215  0.57370  0.12870  Biso   1.000  O
  C77      1.0000 0.11810  0.52160  0.22470  Biso   1.000  C
  H77      1.0000 0.10590  0.49570  0.15730  Biso   1.000  H
  C78      1.0000 0.09390  0.50670  0.37740  Biso   1.000  C
  H78      1.0000 0.10420  0.48980  0.44230  Biso   1.000  H
  C79      1.0000 0.14570  0.53170  0.30730  Biso   1.000  C
  H79      1.0000 0.17050  0.52160  0.35230  Biso   1.000  H
  C80      1.0000 0.06660  0.49650  0.28860  Biso   1.000  C
  H80      1.0000 0.04050  0.46500  0.23700  Biso   1.000  H
  O21      1.0000 0.34155  0.76785  0.12870  Biso   1.000  O
  C81      1.0000 0.40350  0.88190  0.22470  Biso   1.000  C
  H81      1.0000 0.38980  0.89410  0.15730  Biso   1.000  H
  C82      1.0000 0.41280  0.90610  0.37740  Biso   1.000  C
  H82      1.0000 0.38560  0.89580  0.44230  Biso   1.000  H
  C83      1.0000 0.38600  0.85430  0.30730  Biso   1.000  C
  H83      1.0000 0.35110  0.82950  0.35230  Biso   1.000  H
  C84      1.0000 0.42990  0.93340  0.28860  Biso   1.000  C
  H84      1.0000 0.42450  0.95950  0.23700  Biso   1.000  H
  O22      1.0000 0.57370  0.34155  0.12870  Biso   1.000  O
  C85      1.0000 0.52160  0.40350  0.22470  Biso   1.000  C
  H85      1.0000 0.49570  0.38980  0.15730  Biso   1.000  H
  C86      1.0000 0.50670  0.41280  0.37740  Biso   1.000  C
  H86      1.0000 0.48980  0.38560  0.44230  Biso   1.000  H
  C87      1.0000 0.53170  0.38600  0.30730  Biso   1.000  C
  H87      1.0000 0.52160  0.35110  0.35230  Biso   1.000  H
  C88      1.0000 0.49650  0.42990  0.28860  Biso   1.000  C
  H88      1.0000 0.46500  0.42450  0.23700  Biso   1.000  H
  O23      1.0000 0.76785  0.42630  0.12870  Biso   1.000  O
  C89      1.0000 0.88190  0.47840  0.22470  Biso   1.000  C
  H89      1.0000 0.89410  0.50430  0.15730  Biso   1.000  H
  C90      1.0000 0.90610  0.49330  0.37740  Biso   1.000  C
  H90      1.0000 0.89580  0.51020  0.44230  Biso   1.000  H
  C91      1.0000 0.85430  0.46830  0.30730  Biso   1.000  C
  H91      1.0000 0.82950  0.47840  0.35230  Biso   1.000  H
  C92      1.0000 0.93340  0.50350  0.28860  Biso   1.000  C
  H92      1.0000 0.95950  0.53500  0.23700  Biso   1.000  H
  O24      1.0000 0.65845  0.23215  0.12870  Biso   1.000  O
  C93      1.0000 0.59650  0.11810  0.22470  Biso   1.000  C
  H93      1.0000 0.61020  0.10590  0.15730  Biso   1.000  H
  C94      1.0000 0.58720  0.09390  0.37740  Biso   1.000  C
  H94      1.0000 0.61440  0.10420  0.44230  Biso   1.000  H
  C95      1.0000 0.61400  0.14570  0.30730  Biso   1.000  C
  H95      1.0000 0.64890  0.17050  0.35230  Biso   1.000  H
  C96      1.0000 0.57010  0.06660  0.28860  Biso   1.000  C
  H96      1.0000 0.57550  0.04050  0.23700  Biso   1.000  H
  Ni1      1.0000 0.28992  0.57984  0.00000  Biso   1.000  Ni
  Ni2      1.0000 0.42016  0.71008  0.00000  Biso   1.000  Ni
  Ni3      1.0000 0.28992  0.71008  0.00000  Biso   1.000  Ni
  Ni4      1.0000 0.71008  0.42016  0.00000  Biso   1.000  Ni
  Ni5      1.0000 0.57984  0.28992  0.00000  Biso   1.000  Ni
  Ni6      1.0000 0.71008  0.28992  0.00000  Biso   1.000  Ni
  O25      1.0000 0.33333  0.66667  0.00000  Biso   1.000  O
  O26      1.0000 0.66667  0.33333  0.00000  Biso   1.000  O
  C97      1.0000 0.39380  0.60620  0.15620  Biso   1.000  C
  C98      1.0000 0.42126  0.57874  0.23230  Biso   1.000  C
  C99      1.0000 0.47226  0.52774  0.36860  Biso   1.000  C
  C100     1.0000 0.39380  0.78760  0.15620  Biso   1.000  C
  C101     1.0000 0.42126  0.84252  0.23230  Biso   1.000  C
  C102     1.0000 0.47226  0.94452  0.36860  Biso   1.000  C
  C103     1.0000 0.21240  0.60620  0.15620  Biso   1.000  C
  C104     1.0000 0.15748  0.57874  0.23230  Biso   1.000  C
  C105     1.0000 0.05548  0.52774  0.36860  Biso   1.000  C
  C106     1.0000 0.60620  0.39380  0.15620  Biso   1.000  C
  C107     1.0000 0.57874  0.42126  0.23230  Biso   1.000  C
  C108     1.0000 0.52774  0.47226  0.36860  Biso   1.000  C
  C109     1.0000 0.60620  0.21240  0.15620  Biso   1.000  C
  C110     1.0000 0.57874  0.15748  0.23230  Biso   1.000  C
  C111     1.0000 0.52774  0.05548  0.36860  Biso   1.000  C
  C112     1.0000 0.78760  0.39380  0.15620  Biso   1.000  C
  C113     1.0000 0.84252  0.42126  0.23230  Biso   1.000  C
  C114     1.0000 0.94452  0.47226  0.36860  Biso   1.000  C
  C115     1.0000 0.60620  0.39380  0.84380  Biso   1.000  C
  C116     1.0000 0.57874  0.42126  0.76770  Biso   1.000  C
  C117     1.0000 0.52774  0.47226  0.63140  Biso   1.000  C
  C118     1.0000 0.78760  0.39380  0.84380  Biso   1.000  C
  C119     1.0000 0.84252  0.42126  0.76770  Biso   1.000  C
  C120     1.0000 0.94452  0.47226  0.63140  Biso   1.000  C
  C121     1.0000 0.60620  0.21240  0.84380  Biso   1.000  C
  C122     1.0000 0.57874  0.15748  0.76770  Biso   1.000  C
  C123     1.0000 0.52774  0.05548  0.63140  Biso   1.000  C
  C124     1.0000 0.39380  0.60620  0.84380  Biso   1.000  C
  C125     1.0000 0.42126  0.57874  0.76770  Biso   1.000  C
  C126     1.0000 0.47226  0.52774  0.63140  Biso   1.000  C
  C127     1.0000 0.21240  0.60620  0.84380  Biso   1.000  C
  C128     1.0000 0.15748  0.57874  0.76770  Biso   1.000  C
  C129     1.0000 0.05548  0.52774  0.63140  Biso   1.000  C
  C130     1.0000 0.39380  0.78760  0.84380  Biso   1.000  C
  C131     1.0000 0.42126  0.84252  0.76770  Biso   1.000  C
  C132     1.0000 0.47226  0.94452  0.63140  Biso   1.000  C
  C133     1.0000 0.50000  0.50000  0.44050  Biso   1.000  C
  C134     1.0000 0.50000  0.00000  0.44050  Biso   1.000  C
  C135     1.0000 0.00000  0.50000  0.44050  Biso   1.000  C
  C136     1.0000 0.50000  0.50000  0.55950  Biso   1.000  C
  C137     1.0000 0.00000  0.50000  0.55950  Biso   1.000  C
  C138     1.0000 0.50000  0.00000  0.55950  Biso   1.000  C
