data_image0
_cell_length_a       9.4218
_cell_length_b       9.4218
_cell_length_c       15.6578
_cell_angle_alpha    90
_cell_angle_beta     90
_cell_angle_gamma    120

_symmetry_space_group_name_H-M    "P 1"
_symmetry_int_tables_number       1

loop_
  _symmetry_equiv_pos_as_xyz
  'x, y, z'

loop_
  _atom_site_label
  _atom_site_occupancy
  _atom_site_fract_x
  _atom_site_fract_y
  _atom_site_fract_z
  _atom_site_thermal_displace_type
  _atom_site_B_iso_or_equiv
  _atom_site_type_symbol
  H1       1.0000 0.53600  0.88240  0.05820  Biso   1.000  H
  H2       1.0000 0.11760  0.65360  0.05820  Biso   1.000  H
  H3       1.0000 0.34640  0.46400  0.05820  Biso   1.000  H
  H4       1.0000 0.46400  0.11760  0.55820  Biso   1.000  H
  H5       1.0000 0.88240  0.34640  0.55820  Biso   1.000  H
  H6       1.0000 0.65360  0.53600  0.55820  Biso   1.000  H
  H7       1.0000 0.11760  0.46400  0.05820  Biso   1.000  H
  H8       1.0000 0.34640  0.88240  0.05820  Biso   1.000  H
  H9       1.0000 0.53600  0.65360  0.05820  Biso   1.000  H
  H10      1.0000 0.88240  0.53600  0.55820  Biso   1.000  H
  H11      1.0000 0.65360  0.11760  0.55820  Biso   1.000  H
  H12      1.0000 0.46400  0.34640  0.55820  Biso   1.000  H
  Cu1      1.0000 0.54880  0.09760  0.20050  Biso   1.000  Cu
  Cl1      1.0000 0.52550  0.05100  0.34960  Biso   1.000  Cl
  N1       1.0000 0.42150  0.84300  0.15720  Biso   1.000  N
  C1       1.0000 0.41715  0.83430  0.06110  Biso   1.000  C
  Cu2      1.0000 0.90240  0.45120  0.20050  Biso   1.000  Cu
  Cl2      1.0000 0.94900  0.47450  0.34960  Biso   1.000  Cl
  N2       1.0000 0.15700  0.57850  0.15720  Biso   1.000  N
  C2       1.0000 0.16570  0.58285  0.06110  Biso   1.000  C
  Cu3      1.0000 0.54880  0.45120  0.20050  Biso   1.000  Cu
  Cl3      1.0000 0.52550  0.47450  0.34960  Biso   1.000  Cl
  N3       1.0000 0.42150  0.57850  0.15720  Biso   1.000  N
  C3       1.0000 0.41715  0.58285  0.06110  Biso   1.000  C
  Cu4      1.0000 0.45120  0.90240  0.70050  Biso   1.000  Cu
  Cl4      1.0000 0.47450  0.94900  0.84960  Biso   1.000  Cl
  N4       1.0000 0.57850  0.15700  0.65720  Biso   1.000  N
  C4       1.0000 0.58285  0.16570  0.56110  Biso   1.000  C
  Cu5      1.0000 0.09760  0.54880  0.70050  Biso   1.000  Cu
  Cl5      1.0000 0.05100  0.52550  0.84960  Biso   1.000  Cl
  N5       1.0000 0.84300  0.42150  0.65720  Biso   1.000  N
  C5       1.0000 0.83430  0.41715  0.56110  Biso   1.000  C
  Cu6      1.0000 0.45120  0.54880  0.70050  Biso   1.000  Cu
  Cl6      1.0000 0.47450  0.52550  0.84960  Biso   1.000  Cl
  N6       1.0000 0.57850  0.42150  0.65720  Biso   1.000  N
  C6       1.0000 0.58285  0.41715  0.56110  Biso   1.000  C
  Cu7      1.0000 0.66667  0.33333  0.39020  Biso   1.000  Cu
  Cu8      1.0000 0.33333  0.66667  0.89020  Biso   1.000  Cu
  Cl7      1.0000 0.38280  0.19140  0.14270  Biso   1.000  Cl
  Cl8      1.0000 0.80860  0.19140  0.14270  Biso   1.000  Cl
  Cl9      1.0000 0.80860  0.61720  0.14270  Biso   1.000  Cl
  Cl10     1.0000 0.61720  0.80860  0.64270  Biso   1.000  Cl
  Cl11     1.0000 0.19140  0.80860  0.64270  Biso   1.000  Cl
  Cl12     1.0000 0.19140  0.38280  0.64270  Biso   1.000  Cl
  C7       1.0000 0.25090  0.74910  0.18740  Biso   1.000  C
  H13      1.0000 0.19315  0.80685  0.17370  Biso   1.000  H
  H14      1.0000 0.25645  0.74355  0.24850  Biso   1.000  H
  C8       1.0000 0.25090  0.50180  0.18740  Biso   1.000  C
  H15      1.0000 0.19315  0.38630  0.17370  Biso   1.000  H
  H16      1.0000 0.25645  0.51290  0.24850  Biso   1.000  H
  C9       1.0000 0.49820  0.74910  0.18740  Biso   1.000  C
  H17      1.0000 0.61370  0.80685  0.17370  Biso   1.000  H
  H18      1.0000 0.48710  0.74355  0.24850  Biso   1.000  H
  C10      1.0000 0.74910  0.25090  0.68740  Biso   1.000  C
  H19      1.0000 0.80685  0.19315  0.67370  Biso   1.000  H
  H20      1.0000 0.74355  0.25645  0.74850  Biso   1.000  H
  C11      1.0000 0.74910  0.49820  0.68740  Biso   1.000  C
  H21      1.0000 0.80685  0.61370  0.67370  Biso   1.000  H
  H22      1.0000 0.74355  0.48710  0.74850  Biso   1.000  H
  C12      1.0000 0.50180  0.25090  0.68740  Biso   1.000  C
  H23      1.0000 0.38630  0.19315  0.67370  Biso   1.000  H
  H24      1.0000 0.51290  0.25645  0.74850  Biso   1.000  H
  N7       1.0000 0.33333  0.66667  0.02800  Biso   1.000  N
  N8       1.0000 0.66667  0.33333  0.52800  Biso   1.000  N
