data_image0
_cell_length_a       7.38
_cell_length_b       28.29
_cell_length_c       22.47
_cell_angle_alpha    90
_cell_angle_beta     99.13
_cell_angle_gamma    90

_symmetry_space_group_name_H-M    "P 1"
_symmetry_int_tables_number       1

loop_
  _symmetry_equiv_pos_as_xyz
  'x, y, z'

loop_
  _atom_site_label
  _atom_site_occupancy
  _atom_site_fract_x
  _atom_site_fract_y
  _atom_site_fract_z
  _atom_site_thermal_displace_type
  _atom_site_B_iso_or_equiv
  _atom_site_type_symbol
  C1       1.0000 0.91040  0.08731  0.25540  Biso   1.000  C
  C2       1.0000 0.06340  0.12059  0.27980  Biso   1.000  C
  C3       1.0000 0.02100  0.16242  0.30700  Biso   1.000  C
  H1       1.0000 0.89860  0.16920  0.30850  Biso   1.000  H
  C4       1.0000 0.15420  0.19446  0.33190  Biso   1.000  C
  C5       1.0000 0.33780  0.18303  0.32780  Biso   1.000  C
  H2       1.0000 0.43060  0.20390  0.34350  Biso   1.000  H
  C6       1.0000 0.38300  0.14160  0.30100  Biso   1.000  C
  H3       1.0000 0.50560  0.13520  0.29920  Biso   1.000  H
  C7       1.0000 0.25090  0.10932  0.27690  Biso   1.000  C
  C8       1.0000 0.11200  0.23982  0.36120  Biso   1.000  C
  C9       1.0000 0.95350  0.26561  0.34180  Biso   1.000  C
  H4       1.0000 0.86790  0.25390  0.31040  Biso   1.000  H
  C10      1.0000 0.91990  0.30849  0.36810  Biso   1.000  C
  C11      1.0000 0.05310  0.32650  0.41460  Biso   1.000  C
  H5       1.0000 0.03420  0.35560  0.43180  Biso   1.000  H
  C12      1.0000 0.21450  0.30086  0.43540  Biso   1.000  C
  C13      1.0000 0.23780  0.25780  0.40760  Biso   1.000  C
  H6       1.0000 0.34330  0.24040  0.42090  Biso   1.000  H
  C14      1.0000 0.75220  0.33654  0.34640  Biso   1.000  C
  C15      1.0000 0.58380  0.31398  0.33170  Biso   1.000  C
  H7       1.0000 0.58030  0.28120  0.33400  Biso   1.000  H
  C16      1.0000 0.41850  0.33850  0.31340  Biso   1.000  C
  H8       1.0000 0.30700  0.32250  0.30630  Biso   1.000  H
  C17      1.0000 0.42630  0.38740  0.30620  Biso   1.000  C
  C18      1.0000 0.59350  0.41142  0.31750  Biso   1.000  C
  C19      1.0000 0.75300  0.38505  0.33810  Biso   1.000  C
  H9       1.0000 0.86440  0.40100  0.34660  Biso   1.000  H
  C20      1.0000 0.60840  0.46233  0.30870  Biso   1.000  C
  C21      1.0000 0.36000  0.32040  0.48300  Biso   1.000  C
  C22      1.0000 0.32270  0.34952  0.53020  Biso   1.000  C
  H10      1.0000 0.20100  0.35680  0.53230  Biso   1.000  H
  C23      1.0000 0.45720  0.36790  0.57340  Biso   1.000  C
  C24      1.0000 0.63880  0.35640  0.57090  Biso   1.000  C
  C25      1.0000 0.68340  0.32690  0.52510  Biso   1.000  C
  H11      1.0000 0.80490  0.31940  0.52310  Biso   1.000  H
  C26      1.0000 0.54510  0.30960  0.48410  Biso   1.000  C
  H12      1.0000 0.57530  0.28920  0.45470  Biso   1.000  H
  C27      1.0000 0.40850  0.39921  0.62180  Biso   1.000  C
  O1       1.0000 0.29660  0.06872  0.25272  Biso   1.000  O
  O2       1.0000 0.92460  0.05735  0.21536  Biso   1.000  O
  O3       1.0000 0.76180  0.09121  0.27741  Biso   1.000  O
  O4       1.0000 0.26340  0.41018  0.28770  Biso   1.000  O
  H13      1.0000 0.28380  0.43760  0.27880  Biso   1.000  H
  O5       1.0000 0.46110  0.48561  0.29070  Biso   1.000  O
  O6       1.0000 0.76370  0.48133  0.31958  Biso   1.000  O
  O7       1.0000 0.23820  0.40869  0.62130  Biso   1.000  O
  O8       1.0000 0.53490  0.41591  0.65990  Biso   1.000  O
  O9       1.0000 0.78440  0.37390  0.61150  Biso   1.000  O
  H14      1.0000 0.74570  0.39210  0.63490  Biso   1.000  H
  Zn1      1.0000 0.13730  0.04717  0.17419  Biso   1.000  Zn
  Zn2      1.0000 0.55402  0.05087  0.24499  Biso   1.000  Zn
  C28      1.0000 0.08960  0.58731  0.24460  Biso   1.000  C
  C29      1.0000 0.93660  0.62059  0.22020  Biso   1.000  C
  C30      1.0000 0.97900  0.66242  0.19300  Biso   1.000  C
  H15      1.0000 0.10140  0.66920  0.19150  Biso   1.000  H
  C31      1.0000 0.84580  0.69446  0.16810  Biso   1.000  C
  C32      1.0000 0.66220  0.68303  0.17220  Biso   1.000  C
  H16      1.0000 0.56940  0.70390  0.15650  Biso   1.000  H
  C33      1.0000 0.61700  0.64160  0.19900  Biso   1.000  C
  H17      1.0000 0.49440  0.63520  0.20080  Biso   1.000  H
  C34      1.0000 0.74910  0.60932  0.22310  Biso   1.000  C
  C35      1.0000 0.88800  0.73982  0.13880  Biso   1.000  C
  C36      1.0000 0.04650  0.76561  0.15820  Biso   1.000  C
  H18      1.0000 0.13210  0.75390  0.18960  Biso   1.000  H
  C37      1.0000 0.08010  0.80849  0.13190  Biso   1.000  C
  C38      1.0000 0.94690  0.82650  0.08540  Biso   1.000  C
  H19      1.0000 0.96580  0.85560  0.06820  Biso   1.000  H
  C39      1.0000 0.78550  0.80086  0.06460  Biso   1.000  C
  C40      1.0000 0.76220  0.75780  0.09240  Biso   1.000  C
  H20      1.0000 0.65670  0.74040  0.07910  Biso   1.000  H
  C41      1.0000 0.24780  0.83654  0.15360  Biso   1.000  C
  C42      1.0000 0.41620  0.81398  0.16830  Biso   1.000  C
  H21      1.0000 0.41970  0.78120  0.16600  Biso   1.000  H
  C43      1.0000 0.58150  0.83850  0.18660  Biso   1.000  C
  H22      1.0000 0.69300  0.82250  0.19370  Biso   1.000  H
  C44      1.0000 0.57370  0.88740  0.19380  Biso   1.000  C
  C45      1.0000 0.40650  0.91142  0.18250  Biso   1.000  C
  C46      1.0000 0.24700  0.88505  0.16190  Biso   1.000  C
  H23      1.0000 0.13560  0.90100  0.15340  Biso   1.000  H
  C47      1.0000 0.39160  0.96233  0.19130  Biso   1.000  C
  C48      1.0000 0.64000  0.82040  0.01700  Biso   1.000  C
  C49      1.0000 0.67730  0.84952  0.96980  Biso   1.000  C
  H24      1.0000 0.79900  0.85680  0.96770  Biso   1.000  H
  C50      1.0000 0.54280  0.86790  0.92660  Biso   1.000  C
  C51      1.0000 0.36120  0.85640  0.92910  Biso   1.000  C
  C52      1.0000 0.31660  0.82690  0.97490  Biso   1.000  C
  H25      1.0000 0.19510  0.81940  0.97690  Biso   1.000  H
  C53      1.0000 0.45490  0.80960  0.01590  Biso   1.000  C
  H26      1.0000 0.42470  0.78920  0.04530  Biso   1.000  H
  C54      1.0000 0.59150  0.89921  0.87820  Biso   1.000  C
  O10      1.0000 0.70340  0.56872  0.24728  Biso   1.000  O
  O11      1.0000 0.07540  0.55735  0.28464  Biso   1.000  O
  O12      1.0000 0.23820  0.59121  0.22259  Biso   1.000  O
  O13      1.0000 0.73660  0.91018  0.21230  Biso   1.000  O
  H27      1.0000 0.71620  0.93760  0.22120  Biso   1.000  H
  O14      1.0000 0.53890  0.98561  0.20930  Biso   1.000  O
  O15      1.0000 0.23630  0.98133  0.18042  Biso   1.000  O
  O16      1.0000 0.76180  0.90869  0.87870  Biso   1.000  O
  O17      1.0000 0.46510  0.91591  0.84010  Biso   1.000  O
  O18      1.0000 0.21560  0.87390  0.88850  Biso   1.000  O
  H28      1.0000 0.25430  0.89210  0.86510  Biso   1.000  H
  Zn3      1.0000 0.86270  0.54717  0.32581  Biso   1.000  Zn
  Zn4      1.0000 0.44598  0.55087  0.25501  Biso   1.000  Zn
  C55      1.0000 0.08960  0.91269  0.74460  Biso   1.000  C
  C56      1.0000 0.93660  0.87941  0.72020  Biso   1.000  C
  C57      1.0000 0.97900  0.83758  0.69300  Biso   1.000  C
  H29      1.0000 0.10140  0.83080  0.69150  Biso   1.000  H
  C58      1.0000 0.84580  0.80554  0.66810  Biso   1.000  C
  C59      1.0000 0.66220  0.81697  0.67220  Biso   1.000  C
  H30      1.0000 0.56940  0.79610  0.65650  Biso   1.000  H
  C60      1.0000 0.61700  0.85840  0.69900  Biso   1.000  C
  H31      1.0000 0.49440  0.86480  0.70080  Biso   1.000  H
  C61      1.0000 0.74910  0.89068  0.72310  Biso   1.000  C
  C62      1.0000 0.88800  0.76018  0.63880  Biso   1.000  C
  C63      1.0000 0.04650  0.73439  0.65820  Biso   1.000  C
  H32      1.0000 0.13210  0.74610  0.68960  Biso   1.000  H
  C64      1.0000 0.08010  0.69151  0.63190  Biso   1.000  C
  C65      1.0000 0.94690  0.67350  0.58540  Biso   1.000  C
  H33      1.0000 0.96580  0.64440  0.56820  Biso   1.000  H
  C66      1.0000 0.78550  0.69914  0.56460  Biso   1.000  C
  C67      1.0000 0.76220  0.74220  0.59240  Biso   1.000  C
  H34      1.0000 0.65670  0.75960  0.57910  Biso   1.000  H
  C68      1.0000 0.24780  0.66346  0.65360  Biso   1.000  C
  C69      1.0000 0.41620  0.68602  0.66830  Biso   1.000  C
  H35      1.0000 0.41970  0.71880  0.66600  Biso   1.000  H
  C70      1.0000 0.58150  0.66150  0.68660  Biso   1.000  C
  H36      1.0000 0.69300  0.67750  0.69370  Biso   1.000  H
  C71      1.0000 0.57370  0.61260  0.69380  Biso   1.000  C
  C72      1.0000 0.40650  0.58858  0.68250  Biso   1.000  C
  C73      1.0000 0.24700  0.61495  0.66190  Biso   1.000  C
  H37      1.0000 0.13560  0.59900  0.65340  Biso   1.000  H
  C74      1.0000 0.39160  0.53767  0.69130  Biso   1.000  C
  C75      1.0000 0.64000  0.67960  0.51700  Biso   1.000  C
  C76      1.0000 0.67730  0.65048  0.46980  Biso   1.000  C
  H38      1.0000 0.79900  0.64320  0.46770  Biso   1.000  H
  C77      1.0000 0.54280  0.63210  0.42660  Biso   1.000  C
  C78      1.0000 0.36120  0.64360  0.42910  Biso   1.000  C
  C79      1.0000 0.31660  0.67310  0.47490  Biso   1.000  C
  H39      1.0000 0.19510  0.68060  0.47690  Biso   1.000  H
  C80      1.0000 0.45490  0.69040  0.51590  Biso   1.000  C
  H40      1.0000 0.42470  0.71080  0.54530  Biso   1.000  H
  C81      1.0000 0.59150  0.60079  0.37820  Biso   1.000  C
  O19      1.0000 0.70340  0.93128  0.74728  Biso   1.000  O
  O20      1.0000 0.07540  0.94265  0.78464  Biso   1.000  O
  O21      1.0000 0.23820  0.90879  0.72259  Biso   1.000  O
  O22      1.0000 0.73660  0.58982  0.71230  Biso   1.000  O
  H41      1.0000 0.71620  0.56240  0.72120  Biso   1.000  H
  O23      1.0000 0.53890  0.51439  0.70930  Biso   1.000  O
  O24      1.0000 0.23630  0.51867  0.68042  Biso   1.000  O
  O25      1.0000 0.76180  0.59131  0.37870  Biso   1.000  O
  O26      1.0000 0.46510  0.58409  0.34010  Biso   1.000  O
  O27      1.0000 0.21560  0.62610  0.38850  Biso   1.000  O
  H42      1.0000 0.25430  0.60790  0.36510  Biso   1.000  H
  Zn5      1.0000 0.86270  0.95283  0.82581  Biso   1.000  Zn
  Zn6      1.0000 0.44598  0.94913  0.75501  Biso   1.000  Zn
  C82      1.0000 0.91040  0.41269  0.75540  Biso   1.000  C
  C83      1.0000 0.06340  0.37941  0.77980  Biso   1.000  C
  C84      1.0000 0.02100  0.33758  0.80700  Biso   1.000  C
  H43      1.0000 0.89860  0.33080  0.80850  Biso   1.000  H
  C85      1.0000 0.15420  0.30554  0.83190  Biso   1.000  C
  C86      1.0000 0.33780  0.31697  0.82780  Biso   1.000  C
  H44      1.0000 0.43060  0.29610  0.84350  Biso   1.000  H
  C87      1.0000 0.38300  0.35840  0.80100  Biso   1.000  C
  H45      1.0000 0.50560  0.36480  0.79920  Biso   1.000  H
  C88      1.0000 0.25090  0.39068  0.77690  Biso   1.000  C
  C89      1.0000 0.11200  0.26018  0.86120  Biso   1.000  C
  C90      1.0000 0.95350  0.23439  0.84180  Biso   1.000  C
  H46      1.0000 0.86790  0.24610  0.81040  Biso   1.000  H
  C91      1.0000 0.91990  0.19151  0.86810  Biso   1.000  C
  C92      1.0000 0.05310  0.17350  0.91460  Biso   1.000  C
  H47      1.0000 0.03420  0.14440  0.93180  Biso   1.000  H
  C93      1.0000 0.21450  0.19914  0.93540  Biso   1.000  C
  C94      1.0000 0.23780  0.24220  0.90760  Biso   1.000  C
  H48      1.0000 0.34330  0.25960  0.92090  Biso   1.000  H
  C95      1.0000 0.75220  0.16346  0.84640  Biso   1.000  C
  C96      1.0000 0.58380  0.18602  0.83170  Biso   1.000  C
  H49      1.0000 0.58030  0.21880  0.83400  Biso   1.000  H
  C97      1.0000 0.41850  0.16150  0.81340  Biso   1.000  C
  H50      1.0000 0.30700  0.17750  0.80630  Biso   1.000  H
  C98      1.0000 0.42630  0.11260  0.80620  Biso   1.000  C
  C99      1.0000 0.59350  0.08858  0.81750  Biso   1.000  C
  C100     1.0000 0.75300  0.11495  0.83810  Biso   1.000  C
  H51      1.0000 0.86440  0.09900  0.84660  Biso   1.000  H
  C101     1.0000 0.60840  0.03767  0.80870  Biso   1.000  C
  C102     1.0000 0.36000  0.17960  0.98300  Biso   1.000  C
  C103     1.0000 0.32270  0.15048  0.03020  Biso   1.000  C
  H52      1.0000 0.20100  0.14320  0.03230  Biso   1.000  H
  C104     1.0000 0.45720  0.13210  0.07340  Biso   1.000  C
  C105     1.0000 0.63880  0.14360  0.07090  Biso   1.000  C
  C106     1.0000 0.68340  0.17310  0.02510  Biso   1.000  C
  H53      1.0000 0.80490  0.18060  0.02310  Biso   1.000  H
  C107     1.0000 0.54510  0.19040  0.98410  Biso   1.000  C
  H54      1.0000 0.57530  0.21080  0.95470  Biso   1.000  H
  C108     1.0000 0.40850  0.10079  0.12180  Biso   1.000  C
  O28      1.0000 0.29660  0.43128  0.75272  Biso   1.000  O
  O29      1.0000 0.92460  0.44265  0.71536  Biso   1.000  O
  O30      1.0000 0.76180  0.40879  0.77741  Biso   1.000  O
  O31      1.0000 0.26340  0.08982  0.78770  Biso   1.000  O
  H55      1.0000 0.28380  0.06240  0.77880  Biso   1.000  H
  O32      1.0000 0.46110  0.01439  0.79070  Biso   1.000  O
  O33      1.0000 0.76370  0.01867  0.81958  Biso   1.000  O
  O34      1.0000 0.23820  0.09131  0.12130  Biso   1.000  O
  O35      1.0000 0.53490  0.08409  0.15990  Biso   1.000  O
  O36      1.0000 0.78440  0.12610  0.11150  Biso   1.000  O
  H56      1.0000 0.74570  0.10790  0.13490  Biso   1.000  H
  Zn7      1.0000 0.13730  0.45283  0.67419  Biso   1.000  Zn
  Zn8      1.0000 0.55402  0.44913  0.74499  Biso   1.000  Zn
