data_image0
_cell_length_a       21.038
_cell_length_b       12.5112
_cell_length_c       53.184
_cell_angle_alpha    90
_cell_angle_beta     94.509
_cell_angle_gamma    90

_symmetry_space_group_name_H-M    "P 1"
_symmetry_int_tables_number       1

loop_
  _symmetry_equiv_pos_as_xyz
  'x, y, z'

loop_
  _atom_site_label
  _atom_site_occupancy
  _atom_site_fract_x
  _atom_site_fract_y
  _atom_site_fract_z
  _atom_site_thermal_displace_type
  _atom_site_B_iso_or_equiv
  _atom_site_type_symbol
  In1      1.0000 0.87053  0.37325  0.80228  Biso   1.000  In
  In2      1.0000 0.38881  0.68670  0.55366  Biso   1.000  In
  O1       1.0000 0.94470  0.32630  0.77654  Biso   1.000  O
  O2       1.0000 0.81660  0.22680  0.78424  Biso   1.000  O
  O3       1.0000 0.79520  0.13740  0.32954  Biso   1.000  O
  O4       1.0000 0.92780  0.49670  0.78106  Biso   1.000  O
  O5       1.0000 0.82290  0.97800  0.31858  Biso   1.000  O
  O6       1.0000 0.94130  0.10040  0.33479  Biso   1.000  O
  O7       1.0000 0.79900  0.38450  0.76791  Biso   1.000  O
  O8       1.0000 0.91640  0.26550  0.32699  Biso   1.000  O
  O9       1.0000 0.63660  0.71260  0.40297  Biso   1.000  O
  O10      1.0000 0.17760  0.33780  0.69130  Biso   1.000  O
  O11      1.0000 0.61310  0.24120  0.65810  Biso   1.000  O
  O12      1.0000 0.13260  0.16600  0.44600  Biso   1.000  O
  N1       1.0000 0.47210  0.77600  0.54888  Biso   1.000  N
  N2       1.0000 0.39380  0.62180  0.51716  Biso   1.000  N
  N3       1.0000 0.31950  0.56840  0.56050  Biso   1.000  N
  N4       1.0000 0.39820  0.72080  0.59301  Biso   1.000  N
  N5       1.0000 0.64870  0.09750  0.68310  Biso   1.000  N
  H1       1.0000 0.64680  0.02910  0.68410  Biso   1.000  H
  N6       1.0000 0.65520  0.88530  0.41310  Biso   1.000  N
  H2       1.0000 0.65350  0.93190  0.42500  Biso   1.000  H
  N7       1.0000 0.14530  0.50070  0.70220  Biso   1.000  N
  H3       1.0000 0.15470  0.56730  0.70080  Biso   1.000  H
  N8       1.0000 0.10020  0.32320  0.42790  Biso   1.000  N
  H4       1.0000 0.12590  0.36930  0.42230  Biso   1.000  H
  C1       1.0000 0.95410  0.42140  0.77174  Biso   1.000  C
  C2       1.0000 0.59900  0.78300  0.44200  Biso   1.000  C
  C3       1.0000 0.44040  0.78700  0.60423  Biso   1.000  C
  C4       1.0000 0.68600  0.91350  0.39120  Biso   1.000  C
  C5       1.0000 0.78980  0.28550  0.76659  Biso   1.000  C
  C6       1.0000 0.23200  0.27600  0.47510  Biso   1.000  C
  H5       1.0000 0.24580  0.20980  0.46990  Biso   1.000  H
  C7       1.0000 0.79210  0.03810  0.33159  Biso   1.000  C
  C8       1.0000 0.29230  0.55030  0.58320  Biso   1.000  C
  C9       1.0000 0.43880  0.65160  0.50030  Biso   1.000  C
  C10      1.0000 0.09700  0.47860  0.71930  Biso   1.000  C
  C11      1.0000 0.48620  0.72590  0.50480  Biso   1.000  C
  C12      1.0000 0.50310  0.83600  0.56711  Biso   1.000  C
  C13      1.0000 0.62880  0.78750  0.41640  Biso   1.000  C
  C14      1.0000 0.94680  0.19750  0.34090  Biso   1.000  C
  C15      1.0000 0.43530  0.78250  0.63123  Biso   1.000  C
  H6       1.0000 0.45990  0.81990  0.64360  Biso   1.000  H
  C16      1.0000 0.35000  0.55470  0.50590  Biso   1.000  C
  C17      1.0000 0.03600  0.35650  0.74250  Biso   1.000  C
  H7       1.0000 0.02320  0.28700  0.74570  Biso   1.000  H
  C18      1.0000 0.28130  0.55780  0.62870  Biso   1.000  C
  C19      1.0000 0.55660  0.88940  0.55660  Biso   1.000  C
  H8       1.0000 0.58500  0.93760  0.56460  Biso   1.000  H
  C20      1.0000 0.24160  0.62320  0.64070  Biso   1.000  C
  H9       1.0000 0.23650  0.69360  0.63530  Biso   1.000  H
  C21      1.0000 0.55600  0.85330  0.53220  Biso   1.000  C
  H10      1.0000 0.58510  0.87140  0.52060  Biso   1.000  H
  C22      1.0000 0.55930  0.66150  0.47220  Biso   1.000  C
  H11      1.0000 0.55890  0.59380  0.47940  Biso   1.000  H
  C23      1.0000 0.71950  0.05960  0.36560  Biso   1.000  C
  H12      1.0000 0.71920  0.13220  0.36190  Biso   1.000  H
  C24      1.0000 0.06880  0.56370  0.73040  Biso   1.000  C
  H13      1.0000 0.08010  0.63360  0.72670  Biso   1.000  H
  C25      1.0000 0.28950  0.45720  0.63750  Biso   1.000  C
  H14      1.0000 0.31760  0.41200  0.63000  Biso   1.000  H
  C26      1.0000 0.25740  0.41980  0.65720  Biso   1.000  C
  H15      1.0000 0.26450  0.35000  0.66280  Biso   1.000  H
  C27      1.0000 0.02300  0.54260  0.74720  Biso   1.000  C
  H16      1.0000 0.00220  0.59980  0.75410  Biso   1.000  H
  C28      1.0000 0.28450  0.51260  0.54200  Biso   1.000  C
  C29      1.0000 0.52720  0.92190  0.60942  Biso   1.000  C
  C30      1.0000 0.29910  0.50360  0.51620  Biso   1.000  C
  C31      1.0000 0.20840  0.58820  0.66080  Biso   1.000  C
  H17      1.0000 0.18190  0.63460  0.66880  Biso   1.000  H
  C32      1.0000 0.74270  0.12890  0.74330  Biso   1.000  C
  H18      1.0000 0.76100  0.08350  0.75570  Biso   1.000  H
  C33      1.0000 0.21550  0.48270  0.66880  Biso   1.000  C
  C34      1.0000 0.36930  0.54080  0.47920  Biso   1.000  C
  H19      1.0000 0.34880  0.49750  0.46690  Biso   1.000  H
  C35      1.0000 0.17830  0.43500  0.68910  Biso   1.000  C
  C36      1.0000 0.23920  0.48010  0.57800  Biso   1.000  C
  H20      1.0000 0.21300  0.45340  0.58980  Biso   1.000  H
  C37      1.0000 0.08430  0.37400  0.72620  Biso   1.000  C
  H21      1.0000 0.10710  0.31710  0.72020  Biso   1.000  H
  C38      1.0000 0.41870  0.59850  0.47650  Biso   1.000  C
  H22      1.0000 0.43870  0.60550  0.46160  Biso   1.000  H
  C39      1.0000 0.00720  0.44150  0.75390  Biso   1.000  C
  C40      1.0000 0.98690  0.22750  0.36340  Biso   1.000  C
  C41      1.0000 0.75070  0.23950  0.74580  Biso   1.000  C
  C42      1.0000 0.68010  0.15130  0.70400  Biso   1.000  C
  C43      1.0000 0.75300  0.88680  0.35710  Biso   1.000  C
  H23      1.0000 0.77580  0.83970  0.34770  Biso   1.000  H
  C44      1.0000 0.70770  0.08640  0.72230  Biso   1.000  C
  H24      1.0000 0.70300  0.01270  0.72080  Biso   1.000  H
  C45      1.0000 0.75430  0.99100  0.35130  Biso   1.000  C
  C46      1.0000 0.59130  0.06300  0.64350  Biso   1.000  C
  C47      1.0000 0.71920  0.84410  0.37680  Biso   1.000  C
  H25      1.0000 0.71930  0.77100  0.38000  Biso   1.000  H
  C48      1.0000 0.23330  0.45930  0.55330  Biso   1.000  C
  H26      1.0000 0.20160  0.41780  0.54490  Biso   1.000  H
  C49      1.0000 0.68550  0.02400  0.38520  Biso   1.000  C
  H27      1.0000 0.66250  0.07180  0.39430  Biso   1.000  H
  C50      1.0000 0.25420  0.44040  0.49910  Biso   1.000  C
  C51      1.0000 0.71960  0.30270  0.72750  Biso   1.000  C
  H28      1.0000 0.72240  0.37660  0.72910  Biso   1.000  H
  C52      1.0000 0.59160  0.67930  0.45150  Biso   1.000  C
  H29      1.0000 0.60910  0.62180  0.44340  Biso   1.000  H
  C53      1.0000 0.61920  0.14460  0.66190  Biso   1.000  C
  C54      1.0000 0.56560  0.86210  0.45140  Biso   1.000  C
  H30      1.0000 0.56520  0.92880  0.44370  Biso   1.000  H
  C55      1.0000 0.02220  0.15510  0.37670  Biso   1.000  C
  H31      1.0000 0.02230  0.08490  0.37100  Biso   1.000  H
  C56      1.0000 0.53100  0.84710  0.47265  Biso   1.000  C
  H32      1.0000 0.51130  0.90470  0.47990  Biso   1.000  H
  C57      1.0000 0.58050  0.89470  0.62300  Biso   1.000  C
  H33      1.0000 0.59650  0.82610  0.62120  Biso   1.000  H
  C58      1.0000 0.52670  0.74610  0.48255  Biso   1.000  C
  C59      1.0000 0.13660  0.26300  0.44460  Biso   1.000  C
  C60      1.0000 0.50260  0.78300  0.52770  Biso   1.000  C
  C61      1.0000 0.48910  0.84370  0.59260  Biso   1.000  C
  C62      1.0000 0.68430  0.26000  0.70660  Biso   1.000  C
  H34      1.0000 0.66390  0.30480  0.69450  Biso   1.000  H
  C63      1.0000 0.38740  0.71230  0.63484  Biso   1.000  C
  H35      1.0000 0.37250  0.69390  0.65030  Biso   1.000  H
  C64      1.0000 0.61360  0.96430  0.64000  Biso   1.000  C
  H36      1.0000 0.65120  0.94200  0.64880  Biso   1.000  H
  C65      1.0000 0.31400  0.59680  0.60637  Biso   1.000  C
  C66      1.0000 0.16260  0.42900  0.47140  Biso   1.000  C
  H37      1.0000 0.12650  0.46280  0.46400  Biso   1.000  H
  C67      1.0000 0.36430  0.67260  0.61097  Biso   1.000  C
  C68      1.0000 0.50370  0.02550  0.61280  Biso   1.000  C
  H38      1.0000 0.46740  0.04710  0.60300  Biso   1.000  H
  C69      1.0000 0.99070  0.33390  0.37040  Biso   1.000  C
  H39      1.0000 0.96820  0.38670  0.36120  Biso   1.000  H
  C70      1.0000 0.05890  0.18040  0.39890  Biso   1.000  C
  H40      1.0000 0.08130  0.12750  0.40810  Biso   1.000  H
  C71      1.0000 0.53200  0.09610  0.62990  Biso   1.000  C
  H41      1.0000 0.51390  0.16240  0.63280  Biso   1.000  H
  C72      1.0000 0.06130  0.28520  0.40700  Biso   1.000  C
  C73      1.0000 0.26500  0.33730  0.49410  Biso   1.000  C
  H42      1.0000 0.29710  0.30320  0.50410  Biso   1.000  H
  C74      1.0000 0.17430  0.32760  0.46450  Biso   1.000  C
  C75      1.0000 0.20050  0.48300  0.48830  Biso   1.000  C
  H43      1.0000 0.18900  0.55140  0.49280  Biso   1.000  H
  C76      1.0000 0.03110  0.35840  0.39250  Biso   1.000  C
  H44      1.0000 0.03650  0.42980  0.39700  Biso   1.000  H
  C77      1.0000 0.84870  0.37920  0.79520  Biso   1.000  C
  In3      1.0000 0.87053  0.12675  0.30228  Biso   1.000  In
  In4      1.0000 0.38881  0.81330  0.05366  Biso   1.000  In
  O13      1.0000 0.94470  0.17370  0.27654  Biso   1.000  O
  O14      1.0000 0.81660  0.27320  0.28424  Biso   1.000  O
  O15      1.0000 0.79520  0.36260  0.82954  Biso   1.000  O
  O16      1.0000 0.92780  0.00330  0.28106  Biso   1.000  O
  O17      1.0000 0.82290  0.52200  0.81858  Biso   1.000  O
  O18      1.0000 0.94130  0.39960  0.83479  Biso   1.000  O
  O19      1.0000 0.79900  0.11550  0.26791  Biso   1.000  O
  O20      1.0000 0.91640  0.23450  0.82699  Biso   1.000  O
  O21      1.0000 0.63660  0.78740  0.90297  Biso   1.000  O
  O22      1.0000 0.17760  0.16220  0.19130  Biso   1.000  O
  O23      1.0000 0.61310  0.25880  0.15810  Biso   1.000  O
  O24      1.0000 0.13260  0.33400  0.94600  Biso   1.000  O
  N9       1.0000 0.47210  0.72400  0.04888  Biso   1.000  N
  N10      1.0000 0.39380  0.87820  0.01716  Biso   1.000  N
  N11      1.0000 0.31950  0.93160  0.06050  Biso   1.000  N
  N12      1.0000 0.39820  0.77920  0.09301  Biso   1.000  N
  N13      1.0000 0.64870  0.40250  0.18310  Biso   1.000  N
  H45      1.0000 0.64680  0.47090  0.18410  Biso   1.000  H
  N14      1.0000 0.65520  0.61470  0.91310  Biso   1.000  N
  H46      1.0000 0.65350  0.56810  0.92500  Biso   1.000  H
  N15      1.0000 0.14530  0.99930  0.20220  Biso   1.000  N
  H47      1.0000 0.15470  0.93270  0.20080  Biso   1.000  H
  N16      1.0000 0.10020  0.17680  0.92790  Biso   1.000  N
  H48      1.0000 0.12590  0.13070  0.92230  Biso   1.000  H
  C78      1.0000 0.95410  0.07860  0.27174  Biso   1.000  C
  C79      1.0000 0.59900  0.71700  0.94200  Biso   1.000  C
  C80      1.0000 0.44040  0.71300  0.10423  Biso   1.000  C
  C81      1.0000 0.68600  0.58650  0.89120  Biso   1.000  C
  C82      1.0000 0.78980  0.21450  0.26659  Biso   1.000  C
  C83      1.0000 0.23200  0.22400  0.97510  Biso   1.000  C
  H49      1.0000 0.24580  0.29020  0.96990  Biso   1.000  H
  C84      1.0000 0.79210  0.46190  0.83159  Biso   1.000  C
  C85      1.0000 0.29230  0.94970  0.08320  Biso   1.000  C
  C86      1.0000 0.43880  0.84840  0.00030  Biso   1.000  C
  C87      1.0000 0.09700  0.02140  0.21930  Biso   1.000  C
  C88      1.0000 0.48620  0.77410  0.00480  Biso   1.000  C
  C89      1.0000 0.50310  0.66400  0.06711  Biso   1.000  C
  C90      1.0000 0.62880  0.71250  0.91640  Biso   1.000  C
  C91      1.0000 0.94680  0.30250  0.84090  Biso   1.000  C
  C92      1.0000 0.43530  0.71750  0.13123  Biso   1.000  C
  H50      1.0000 0.45990  0.68010  0.14360  Biso   1.000  H
  C93      1.0000 0.35000  0.94530  0.00590  Biso   1.000  C
  C94      1.0000 0.03600  0.14350  0.24250  Biso   1.000  C
  H51      1.0000 0.02320  0.21300  0.24570  Biso   1.000  H
  C95      1.0000 0.28130  0.94220  0.12870  Biso   1.000  C
  C96      1.0000 0.55660  0.61060  0.05660  Biso   1.000  C
  H52      1.0000 0.58500  0.56240  0.06460  Biso   1.000  H
  C97      1.0000 0.24160  0.87680  0.14070  Biso   1.000  C
  H53      1.0000 0.23650  0.80640  0.13530  Biso   1.000  H
  C98      1.0000 0.55600  0.64670  0.03220  Biso   1.000  C
  H54      1.0000 0.58510  0.62860  0.02060  Biso   1.000  H
  C99      1.0000 0.55930  0.83850  0.97220  Biso   1.000  C
  H55      1.0000 0.55890  0.90620  0.97940  Biso   1.000  H
  C100     1.0000 0.71950  0.44040  0.86560  Biso   1.000  C
  H56      1.0000 0.71920  0.36780  0.86190  Biso   1.000  H
  C101     1.0000 0.06880  0.93630  0.23040  Biso   1.000  C
  H57      1.0000 0.08010  0.86640  0.22670  Biso   1.000  H
  C102     1.0000 0.28950  0.04280  0.13750  Biso   1.000  C
  H58      1.0000 0.31760  0.08800  0.13000  Biso   1.000  H
  C103     1.0000 0.25740  0.08020  0.15720  Biso   1.000  C
  H59      1.0000 0.26450  0.15000  0.16280  Biso   1.000  H
  C104     1.0000 0.02300  0.95740  0.24720  Biso   1.000  C
  H60      1.0000 0.00220  0.90020  0.25410  Biso   1.000  H
  C105     1.0000 0.28450  0.98740  0.04200  Biso   1.000  C
  C106     1.0000 0.52720  0.57810  0.10942  Biso   1.000  C
  C107     1.0000 0.29910  0.99640  0.01620  Biso   1.000  C
  C108     1.0000 0.20840  0.91180  0.16080  Biso   1.000  C
  H61      1.0000 0.18190  0.86540  0.16880  Biso   1.000  H
  C109     1.0000 0.74270  0.37110  0.24330  Biso   1.000  C
  H62      1.0000 0.76100  0.41650  0.25570  Biso   1.000  H
  C110     1.0000 0.21550  0.01730  0.16880  Biso   1.000  C
  C111     1.0000 0.36930  0.95920  0.97920  Biso   1.000  C
  H63      1.0000 0.34880  0.00250  0.96690  Biso   1.000  H
  C112     1.0000 0.17830  0.06500  0.18910  Biso   1.000  C
  C113     1.0000 0.23920  0.01990  0.07800  Biso   1.000  C
  H64      1.0000 0.21300  0.04660  0.08980  Biso   1.000  H
  C114     1.0000 0.08430  0.12600  0.22620  Biso   1.000  C
  H65      1.0000 0.10710  0.18290  0.22020  Biso   1.000  H
  C115     1.0000 0.41870  0.90150  0.97650  Biso   1.000  C
  H66      1.0000 0.43870  0.89450  0.96160  Biso   1.000  H
  C116     1.0000 0.00720  0.05850  0.25390  Biso   1.000  C
  C117     1.0000 0.98690  0.27250  0.86340  Biso   1.000  C
  C118     1.0000 0.75070  0.26050  0.24580  Biso   1.000  C
  C119     1.0000 0.68010  0.34870  0.20400  Biso   1.000  C
  C120     1.0000 0.75300  0.61320  0.85710  Biso   1.000  C
  H67      1.0000 0.77580  0.66030  0.84770  Biso   1.000  H
  C121     1.0000 0.70770  0.41360  0.22230  Biso   1.000  C
  H68      1.0000 0.70300  0.48730  0.22080  Biso   1.000  H
  C122     1.0000 0.75430  0.50900  0.85130  Biso   1.000  C
  C123     1.0000 0.59130  0.43700  0.14350  Biso   1.000  C
  C124     1.0000 0.71920  0.65590  0.87680  Biso   1.000  C
  H69      1.0000 0.71930  0.72900  0.88000  Biso   1.000  H
  C125     1.0000 0.23330  0.04070  0.05330  Biso   1.000  C
  H70      1.0000 0.20160  0.08220  0.04490  Biso   1.000  H
  C126     1.0000 0.68550  0.47600  0.88520  Biso   1.000  C
  H71      1.0000 0.66250  0.42820  0.89430  Biso   1.000  H
  C127     1.0000 0.25420  0.05960  0.99910  Biso   1.000  C
  C128     1.0000 0.71960  0.19730  0.22750  Biso   1.000  C
  H72      1.0000 0.72240  0.12340  0.22910  Biso   1.000  H
  C129     1.0000 0.59160  0.82070  0.95150  Biso   1.000  C
  H73      1.0000 0.60910  0.87820  0.94340  Biso   1.000  H
  C130     1.0000 0.61920  0.35540  0.16190  Biso   1.000  C
  C131     1.0000 0.56560  0.63790  0.95140  Biso   1.000  C
  H74      1.0000 0.56520  0.57120  0.94370  Biso   1.000  H
  C132     1.0000 0.02220  0.34490  0.87670  Biso   1.000  C
  H75      1.0000 0.02230  0.41510  0.87100  Biso   1.000  H
  C133     1.0000 0.53100  0.65290  0.97265  Biso   1.000  C
  H76      1.0000 0.51130  0.59530  0.97990  Biso   1.000  H
  C134     1.0000 0.58050  0.60530  0.12300  Biso   1.000  C
  H77      1.0000 0.59650  0.67390  0.12120  Biso   1.000  H
  C135     1.0000 0.52670  0.75390  0.98255  Biso   1.000  C
  C136     1.0000 0.13660  0.23700  0.94460  Biso   1.000  C
  C137     1.0000 0.50260  0.71700  0.02770  Biso   1.000  C
  C138     1.0000 0.48910  0.65630  0.09260  Biso   1.000  C
  C139     1.0000 0.68430  0.24000  0.20660  Biso   1.000  C
  H78      1.0000 0.66390  0.19520  0.19450  Biso   1.000  H
  C140     1.0000 0.38740  0.78770  0.13484  Biso   1.000  C
  H79      1.0000 0.37250  0.80610  0.15030  Biso   1.000  H
  C141     1.0000 0.61360  0.53570  0.14000  Biso   1.000  C
  H80      1.0000 0.65120  0.55800  0.14880  Biso   1.000  H
  C142     1.0000 0.31400  0.90320  0.10637  Biso   1.000  C
  C143     1.0000 0.16260  0.07100  0.97140  Biso   1.000  C
  H81      1.0000 0.12650  0.03720  0.96400  Biso   1.000  H
  C144     1.0000 0.36430  0.82740  0.11097  Biso   1.000  C
  C145     1.0000 0.50370  0.47450  0.11280  Biso   1.000  C
  H82      1.0000 0.46740  0.45290  0.10300  Biso   1.000  H
  C146     1.0000 0.99070  0.16610  0.87040  Biso   1.000  C
  H83      1.0000 0.96820  0.11330  0.86120  Biso   1.000  H
  C147     1.0000 0.05890  0.31960  0.89890  Biso   1.000  C
  H84      1.0000 0.08130  0.37250  0.90810  Biso   1.000  H
  C148     1.0000 0.53200  0.40390  0.12990  Biso   1.000  C
  H85      1.0000 0.51390  0.33760  0.13280  Biso   1.000  H
  C149     1.0000 0.06130  0.21480  0.90700  Biso   1.000  C
  C150     1.0000 0.26500  0.16270  0.99410  Biso   1.000  C
  H86      1.0000 0.29710  0.19680  0.00410  Biso   1.000  H
  C151     1.0000 0.17430  0.17240  0.96450  Biso   1.000  C
  C152     1.0000 0.20050  0.01700  0.98830  Biso   1.000  C
  H87      1.0000 0.18900  0.94860  0.99280  Biso   1.000  H
  C153     1.0000 0.03110  0.14160  0.89250  Biso   1.000  C
  H88      1.0000 0.03650  0.07020  0.89700  Biso   1.000  H
  C154     1.0000 0.84870  0.12080  0.29520  Biso   1.000  C
  In5      1.0000 0.12947  0.87325  0.69772  Biso   1.000  In
  In6      1.0000 0.61119  0.18670  0.94634  Biso   1.000  In
  O25      1.0000 0.05530  0.82630  0.72346  Biso   1.000  O
  O26      1.0000 0.18340  0.72680  0.71576  Biso   1.000  O
  O27      1.0000 0.20480  0.63740  0.17046  Biso   1.000  O
  O28      1.0000 0.07220  0.99670  0.71894  Biso   1.000  O
  O29      1.0000 0.17710  0.47800  0.18142  Biso   1.000  O
  O30      1.0000 0.05870  0.60040  0.16521  Biso   1.000  O
  O31      1.0000 0.20100  0.88450  0.73209  Biso   1.000  O
  O32      1.0000 0.08360  0.76550  0.17301  Biso   1.000  O
  O33      1.0000 0.36340  0.21260  0.09703  Biso   1.000  O
  O34      1.0000 0.82240  0.83780  0.80870  Biso   1.000  O
  O35      1.0000 0.38690  0.74120  0.84190  Biso   1.000  O
  O36      1.0000 0.86740  0.66600  0.05400  Biso   1.000  O
  N17      1.0000 0.52790  0.27600  0.95112  Biso   1.000  N
  N18      1.0000 0.60620  0.12180  0.98284  Biso   1.000  N
  N19      1.0000 0.68050  0.06840  0.93950  Biso   1.000  N
  N20      1.0000 0.60180  0.22080  0.90699  Biso   1.000  N
  N21      1.0000 0.35130  0.59750  0.81690  Biso   1.000  N
  H89      1.0000 0.35320  0.52910  0.81590  Biso   1.000  H
  N22      1.0000 0.34480  0.38530  0.08690  Biso   1.000  N
  H90      1.0000 0.34650  0.43190  0.07500  Biso   1.000  H
  N23      1.0000 0.85470  0.00070  0.79780  Biso   1.000  N
  H91      1.0000 0.84530  0.06730  0.79920  Biso   1.000  H
  N24      1.0000 0.89980  0.82320  0.07210  Biso   1.000  N
  H92      1.0000 0.87410  0.86930  0.07770  Biso   1.000  H
  C155     1.0000 0.04590  0.92140  0.72826  Biso   1.000  C
  C156     1.0000 0.40100  0.28300  0.05800  Biso   1.000  C
  C157     1.0000 0.55960  0.28700  0.89577  Biso   1.000  C
  C158     1.0000 0.31400  0.41350  0.10880  Biso   1.000  C
  C159     1.0000 0.21020  0.78550  0.73341  Biso   1.000  C
  C160     1.0000 0.76800  0.77600  0.02490  Biso   1.000  C
  H93      1.0000 0.75420  0.70980  0.03010  Biso   1.000  H
  C161     1.0000 0.20790  0.53810  0.16841  Biso   1.000  C
  C162     1.0000 0.70770  0.05030  0.91680  Biso   1.000  C
  C163     1.0000 0.56120  0.15160  0.99970  Biso   1.000  C
  C164     1.0000 0.90300  0.97860  0.78070  Biso   1.000  C
  C165     1.0000 0.51380  0.22590  0.99520  Biso   1.000  C
  C166     1.0000 0.49690  0.33600  0.93289  Biso   1.000  C
  C167     1.0000 0.37120  0.28750  0.08360  Biso   1.000  C
  C168     1.0000 0.05320  0.69750  0.15910  Biso   1.000  C
  C169     1.0000 0.56470  0.28250  0.86877  Biso   1.000  C
  H94      1.0000 0.54010  0.31990  0.85640  Biso   1.000  H
  C170     1.0000 0.65000  0.05470  0.99410  Biso   1.000  C
  C171     1.0000 0.96400  0.85650  0.75750  Biso   1.000  C
  H95      1.0000 0.97680  0.78700  0.75430  Biso   1.000  H
  C172     1.0000 0.71870  0.05780  0.87130  Biso   1.000  C
  C173     1.0000 0.44340  0.38940  0.94340  Biso   1.000  C
  H96      1.0000 0.41500  0.43760  0.93540  Biso   1.000  H
  C174     1.0000 0.75840  0.12320  0.85930  Biso   1.000  C
  H97      1.0000 0.76350  0.19360  0.86470  Biso   1.000  H
  C175     1.0000 0.44400  0.35330  0.96780  Biso   1.000  C
  H98      1.0000 0.41490  0.37140  0.97940  Biso   1.000  H
  C176     1.0000 0.44070  0.16150  0.02780  Biso   1.000  C
  H99      1.0000 0.44110  0.09380  0.02060  Biso   1.000  H
  C177     1.0000 0.28050  0.55960  0.13440  Biso   1.000  C
  H100     1.0000 0.28080  0.63220  0.13810  Biso   1.000  H
  C178     1.0000 0.93120  0.06370  0.76960  Biso   1.000  C
  H101     1.0000 0.91990  0.13360  0.77330  Biso   1.000  H
  C179     1.0000 0.71050  0.95720  0.86250  Biso   1.000  C
  H102     1.0000 0.68240  0.91200  0.87000  Biso   1.000  H
  C180     1.0000 0.74260  0.91980  0.84280  Biso   1.000  C
  H103     1.0000 0.73550  0.85000  0.83720  Biso   1.000  H
  C181     1.0000 0.97700  0.04260  0.75280  Biso   1.000  C
  H104     1.0000 0.99780  0.09980  0.74590  Biso   1.000  H
  C182     1.0000 0.71550  0.01260  0.95800  Biso   1.000  C
  C183     1.0000 0.47280  0.42190  0.89058  Biso   1.000  C
  C184     1.0000 0.70090  0.00360  0.98380  Biso   1.000  C
  C185     1.0000 0.79160  0.08820  0.83920  Biso   1.000  C
  H105     1.0000 0.81810  0.13460  0.83120  Biso   1.000  H
  C186     1.0000 0.25730  0.62890  0.75670  Biso   1.000  C
  H106     1.0000 0.23900  0.58350  0.74430  Biso   1.000  H
  C187     1.0000 0.78450  0.98270  0.83120  Biso   1.000  C
  C188     1.0000 0.63070  0.04080  0.02080  Biso   1.000  C
  H107     1.0000 0.65120  0.99750  0.03310  Biso   1.000  H
  C189     1.0000 0.82170  0.93500  0.81090  Biso   1.000  C
  C190     1.0000 0.76080  0.98010  0.92200  Biso   1.000  C
  H108     1.0000 0.78700  0.95340  0.91020  Biso   1.000  H
  C191     1.0000 0.91570  0.87400  0.77380  Biso   1.000  C
  H109     1.0000 0.89290  0.81710  0.77980  Biso   1.000  H
  C192     1.0000 0.58130  0.09850  0.02350  Biso   1.000  C
  H110     1.0000 0.56130  0.10550  0.03840  Biso   1.000  H
  C193     1.0000 0.99280  0.94150  0.74610  Biso   1.000  C
  C194     1.0000 0.01310  0.72750  0.13660  Biso   1.000  C
  C195     1.0000 0.24930  0.73950  0.75420  Biso   1.000  C
  C196     1.0000 0.31990  0.65130  0.79600  Biso   1.000  C
  C197     1.0000 0.24700  0.38680  0.14290  Biso   1.000  C
  H111     1.0000 0.22420  0.33970  0.15230  Biso   1.000  H
  C198     1.0000 0.29230  0.58640  0.77770  Biso   1.000  C
  H112     1.0000 0.29700  0.51270  0.77920  Biso   1.000  H
  C199     1.0000 0.24570  0.49100  0.14870  Biso   1.000  C
  C200     1.0000 0.40870  0.56300  0.85650  Biso   1.000  C
  C201     1.0000 0.28080  0.34410  0.12320  Biso   1.000  C
  H113     1.0000 0.28070  0.27100  0.12000  Biso   1.000  H
  C202     1.0000 0.76670  0.95930  0.94670  Biso   1.000  C
  H114     1.0000 0.79840  0.91780  0.95510  Biso   1.000  H
  C203     1.0000 0.31450  0.52400  0.11480  Biso   1.000  C
  H115     1.0000 0.33750  0.57180  0.10570  Biso   1.000  H
  C204     1.0000 0.74580  0.94040  0.00090  Biso   1.000  C
  C205     1.0000 0.28040  0.80270  0.77250  Biso   1.000  C
  H116     1.0000 0.27760  0.87660  0.77090  Biso   1.000  H
  C206     1.0000 0.40840  0.17930  0.04850  Biso   1.000  C
  H117     1.0000 0.39090  0.12180  0.05660  Biso   1.000  H
  C207     1.0000 0.38080  0.64460  0.83810  Biso   1.000  C
  C208     1.0000 0.43440  0.36210  0.04860  Biso   1.000  C
  H118     1.0000 0.43480  0.42880  0.05630  Biso   1.000  H
  C209     1.0000 0.97780  0.65510  0.12330  Biso   1.000  C
  H119     1.0000 0.97770  0.58490  0.12900  Biso   1.000  H
  C210     1.0000 0.46900  0.34710  0.02735  Biso   1.000  C
  H120     1.0000 0.48870  0.40470  0.02010  Biso   1.000  H
  C211     1.0000 0.41950  0.39470  0.87700  Biso   1.000  C
  H121     1.0000 0.40350  0.32610  0.87880  Biso   1.000  H
  C212     1.0000 0.47330  0.24610  0.01745  Biso   1.000  C
  C213     1.0000 0.86340  0.76300  0.05540  Biso   1.000  C
  C214     1.0000 0.49740  0.28300  0.97230  Biso   1.000  C
  C215     1.0000 0.51090  0.34370  0.90740  Biso   1.000  C
  C216     1.0000 0.31570  0.76000  0.79340  Biso   1.000  C
  H122     1.0000 0.33610  0.80480  0.80550  Biso   1.000  H
  C217     1.0000 0.61260  0.21230  0.86516  Biso   1.000  C
  H123     1.0000 0.62750  0.19390  0.84970  Biso   1.000  H
  C218     1.0000 0.38640  0.46430  0.86000  Biso   1.000  C
  H124     1.0000 0.34880  0.44200  0.85120  Biso   1.000  H
  C219     1.0000 0.68600  0.09680  0.89363  Biso   1.000  C
  C220     1.0000 0.83740  0.92900  0.02860  Biso   1.000  C
  H125     1.0000 0.87350  0.96280  0.03600  Biso   1.000  H
  C221     1.0000 0.63570  0.17260  0.88903  Biso   1.000  C
  C222     1.0000 0.49630  0.52550  0.88720  Biso   1.000  C
  H126     1.0000 0.53260  0.54710  0.89700  Biso   1.000  H
  C223     1.0000 0.00930  0.83390  0.12960  Biso   1.000  C
  H127     1.0000 0.03180  0.88670  0.13880  Biso   1.000  H
  C224     1.0000 0.94110  0.68040  0.10110  Biso   1.000  C
  H128     1.0000 0.91870  0.62750  0.09190  Biso   1.000  H
  C225     1.0000 0.46800  0.59610  0.87010  Biso   1.000  C
  H129     1.0000 0.48610  0.66240  0.86720  Biso   1.000  H
  C226     1.0000 0.93870  0.78520  0.09300  Biso   1.000  C
  C227     1.0000 0.73500  0.83730  0.00590  Biso   1.000  C
  H130     1.0000 0.70290  0.80320  0.99590  Biso   1.000  H
  C228     1.0000 0.82570  0.82760  0.03550  Biso   1.000  C
  C229     1.0000 0.79950  0.98300  0.01170  Biso   1.000  C
  H131     1.0000 0.81100  0.05140  0.00720  Biso   1.000  H
  C230     1.0000 0.96890  0.85840  0.10750  Biso   1.000  C
  H132     1.0000 0.96350  0.92980  0.10300  Biso   1.000  H
  C231     1.0000 0.15130  0.87920  0.70480  Biso   1.000  C
  In7      1.0000 0.12947  0.62675  0.19772  Biso   1.000  In
  In8      1.0000 0.61119  0.31330  0.44634  Biso   1.000  In
  O37      1.0000 0.05530  0.67370  0.22346  Biso   1.000  O
  O38      1.0000 0.18340  0.77320  0.21576  Biso   1.000  O
  O39      1.0000 0.20480  0.86260  0.67046  Biso   1.000  O
  O40      1.0000 0.07220  0.50330  0.21894  Biso   1.000  O
  O41      1.0000 0.17710  0.02200  0.68142  Biso   1.000  O
  O42      1.0000 0.05870  0.89960  0.66521  Biso   1.000  O
  O43      1.0000 0.20100  0.61550  0.23209  Biso   1.000  O
  O44      1.0000 0.08360  0.73450  0.67301  Biso   1.000  O
  O45      1.0000 0.36340  0.28740  0.59703  Biso   1.000  O
  O46      1.0000 0.82240  0.66220  0.30870  Biso   1.000  O
  O47      1.0000 0.38690  0.75880  0.34190  Biso   1.000  O
  O48      1.0000 0.86740  0.83400  0.55400  Biso   1.000  O
  N25      1.0000 0.52790  0.22400  0.45112  Biso   1.000  N
  N26      1.0000 0.60620  0.37820  0.48284  Biso   1.000  N
  N27      1.0000 0.68050  0.43160  0.43950  Biso   1.000  N
  N28      1.0000 0.60180  0.27920  0.40699  Biso   1.000  N
  N29      1.0000 0.35130  0.90250  0.31690  Biso   1.000  N
  H133     1.0000 0.35320  0.97090  0.31590  Biso   1.000  H
  N30      1.0000 0.34480  0.11470  0.58690  Biso   1.000  N
  H134     1.0000 0.34650  0.06810  0.57500  Biso   1.000  H
  N31      1.0000 0.85470  0.49930  0.29780  Biso   1.000  N
  H135     1.0000 0.84530  0.43270  0.29920  Biso   1.000  H
  N32      1.0000 0.89980  0.67680  0.57210  Biso   1.000  N
  H136     1.0000 0.87410  0.63070  0.57770  Biso   1.000  H
  C232     1.0000 0.04590  0.57860  0.22826  Biso   1.000  C
  C233     1.0000 0.40100  0.21700  0.55800  Biso   1.000  C
  C234     1.0000 0.55960  0.21300  0.39577  Biso   1.000  C
  C235     1.0000 0.31400  0.08650  0.60880  Biso   1.000  C
  C236     1.0000 0.21020  0.71450  0.23341  Biso   1.000  C
  C237     1.0000 0.76800  0.72400  0.52490  Biso   1.000  C
  H137     1.0000 0.75420  0.79020  0.53010  Biso   1.000  H
  C238     1.0000 0.20790  0.96190  0.66841  Biso   1.000  C
  C239     1.0000 0.70770  0.44970  0.41680  Biso   1.000  C
  C240     1.0000 0.56120  0.34840  0.49970  Biso   1.000  C
  C241     1.0000 0.90300  0.52140  0.28070  Biso   1.000  C
  C242     1.0000 0.51380  0.27410  0.49520  Biso   1.000  C
  C243     1.0000 0.49690  0.16400  0.43289  Biso   1.000  C
  C244     1.0000 0.37120  0.21250  0.58360  Biso   1.000  C
  C245     1.0000 0.05320  0.80250  0.65910  Biso   1.000  C
  C246     1.0000 0.56470  0.21750  0.36877  Biso   1.000  C
  H138     1.0000 0.54010  0.18010  0.35640  Biso   1.000  H
  C247     1.0000 0.65000  0.44530  0.49410  Biso   1.000  C
  C248     1.0000 0.96400  0.64350  0.25750  Biso   1.000  C
  H139     1.0000 0.97680  0.71300  0.25430  Biso   1.000  H
  C249     1.0000 0.71870  0.44220  0.37130  Biso   1.000  C
  C250     1.0000 0.44340  0.11060  0.44340  Biso   1.000  C
  H140     1.0000 0.41500  0.06240  0.43540  Biso   1.000  H
  C251     1.0000 0.75840  0.37680  0.35930  Biso   1.000  C
  H141     1.0000 0.76350  0.30640  0.36470  Biso   1.000  H
  C252     1.0000 0.44400  0.14670  0.46780  Biso   1.000  C
  H142     1.0000 0.41490  0.12860  0.47940  Biso   1.000  H
  C253     1.0000 0.44070  0.33850  0.52780  Biso   1.000  C
  H143     1.0000 0.44110  0.40620  0.52060  Biso   1.000  H
  C254     1.0000 0.28050  0.94040  0.63440  Biso   1.000  C
  H144     1.0000 0.28080  0.86780  0.63810  Biso   1.000  H
  C255     1.0000 0.93120  0.43630  0.26960  Biso   1.000  C
  H145     1.0000 0.91990  0.36640  0.27330  Biso   1.000  H
  C256     1.0000 0.71050  0.54280  0.36250  Biso   1.000  C
  H146     1.0000 0.68240  0.58800  0.37000  Biso   1.000  H
  C257     1.0000 0.74260  0.58020  0.34280  Biso   1.000  C
  H147     1.0000 0.73550  0.65000  0.33720  Biso   1.000  H
  C258     1.0000 0.97700  0.45740  0.25280  Biso   1.000  C
  H148     1.0000 0.99780  0.40020  0.24590  Biso   1.000  H
  C259     1.0000 0.71550  0.48740  0.45800  Biso   1.000  C
  C260     1.0000 0.47280  0.07810  0.39058  Biso   1.000  C
  C261     1.0000 0.70090  0.49640  0.48380  Biso   1.000  C
  C262     1.0000 0.79160  0.41180  0.33920  Biso   1.000  C
  H149     1.0000 0.81810  0.36540  0.33120  Biso   1.000  H
  C263     1.0000 0.25730  0.87110  0.25670  Biso   1.000  C
  H150     1.0000 0.23900  0.91650  0.24430  Biso   1.000  H
  C264     1.0000 0.78450  0.51730  0.33120  Biso   1.000  C
  C265     1.0000 0.63070  0.45920  0.52080  Biso   1.000  C
  H151     1.0000 0.65120  0.50250  0.53310  Biso   1.000  H
  C266     1.0000 0.82170  0.56500  0.31090  Biso   1.000  C
  C267     1.0000 0.76080  0.51990  0.42200  Biso   1.000  C
  H152     1.0000 0.78700  0.54660  0.41020  Biso   1.000  H
  C268     1.0000 0.91570  0.62600  0.27380  Biso   1.000  C
  H153     1.0000 0.89290  0.68290  0.27980  Biso   1.000  H
  C269     1.0000 0.58130  0.40150  0.52350  Biso   1.000  C
  H154     1.0000 0.56130  0.39450  0.53840  Biso   1.000  H
  C270     1.0000 0.99280  0.55850  0.24610  Biso   1.000  C
  C271     1.0000 0.01310  0.77250  0.63660  Biso   1.000  C
  C272     1.0000 0.24930  0.76050  0.25420  Biso   1.000  C
  C273     1.0000 0.31990  0.84870  0.29600  Biso   1.000  C
  C274     1.0000 0.24700  0.11320  0.64290  Biso   1.000  C
  H155     1.0000 0.22420  0.16030  0.65230  Biso   1.000  H
  C275     1.0000 0.29230  0.91360  0.27770  Biso   1.000  C
  H156     1.0000 0.29700  0.98730  0.27920  Biso   1.000  H
  C276     1.0000 0.24570  0.00900  0.64870  Biso   1.000  C
  C277     1.0000 0.40870  0.93700  0.35650  Biso   1.000  C
  C278     1.0000 0.28080  0.15590  0.62320  Biso   1.000  C
  H157     1.0000 0.28070  0.22900  0.62000  Biso   1.000  H
  C279     1.0000 0.76670  0.54070  0.44670  Biso   1.000  C
  H158     1.0000 0.79840  0.58220  0.45510  Biso   1.000  H
  C280     1.0000 0.31450  0.97600  0.61480  Biso   1.000  C
  H159     1.0000 0.33750  0.92820  0.60570  Biso   1.000  H
  C281     1.0000 0.74580  0.55960  0.50090  Biso   1.000  C
  C282     1.0000 0.28040  0.69730  0.27250  Biso   1.000  C
  H160     1.0000 0.27760  0.62340  0.27090  Biso   1.000  H
  C283     1.0000 0.40840  0.32070  0.54850  Biso   1.000  C
  H161     1.0000 0.39090  0.37820  0.55660  Biso   1.000  H
  C284     1.0000 0.38080  0.85540  0.33810  Biso   1.000  C
  C285     1.0000 0.43440  0.13790  0.54860  Biso   1.000  C
  H162     1.0000 0.43480  0.07120  0.55630  Biso   1.000  H
  C286     1.0000 0.97780  0.84490  0.62330  Biso   1.000  C
  H163     1.0000 0.97770  0.91510  0.62900  Biso   1.000  H
  C287     1.0000 0.46900  0.15290  0.52735  Biso   1.000  C
  H164     1.0000 0.48870  0.09530  0.52010  Biso   1.000  H
  C288     1.0000 0.41950  0.10530  0.37700  Biso   1.000  C
  H165     1.0000 0.40350  0.17390  0.37880  Biso   1.000  H
  C289     1.0000 0.47330  0.25390  0.51745  Biso   1.000  C
  C290     1.0000 0.86340  0.73700  0.55540  Biso   1.000  C
  C291     1.0000 0.49740  0.21700  0.47230  Biso   1.000  C
  C292     1.0000 0.51090  0.15630  0.40740  Biso   1.000  C
  C293     1.0000 0.31570  0.74000  0.29340  Biso   1.000  C
  H166     1.0000 0.33610  0.69520  0.30550  Biso   1.000  H
  C294     1.0000 0.61260  0.28770  0.36516  Biso   1.000  C
  H167     1.0000 0.62750  0.30610  0.34970  Biso   1.000  H
  C295     1.0000 0.38640  0.03570  0.36000  Biso   1.000  C
  H168     1.0000 0.34880  0.05800  0.35120  Biso   1.000  H
  C296     1.0000 0.68600  0.40320  0.39363  Biso   1.000  C
  C297     1.0000 0.83740  0.57100  0.52860  Biso   1.000  C
  H169     1.0000 0.87350  0.53720  0.53600  Biso   1.000  H
  C298     1.0000 0.63570  0.32740  0.38903  Biso   1.000  C
  C299     1.0000 0.49630  0.97450  0.38720  Biso   1.000  C
  H170     1.0000 0.53260  0.95290  0.39700  Biso   1.000  H
  C300     1.0000 0.00930  0.66610  0.62960  Biso   1.000  C
  H171     1.0000 0.03180  0.61330  0.63880  Biso   1.000  H
  C301     1.0000 0.94110  0.81960  0.60110  Biso   1.000  C
  H172     1.0000 0.91870  0.87250  0.59190  Biso   1.000  H
  C302     1.0000 0.46800  0.90390  0.37010  Biso   1.000  C
  H173     1.0000 0.48610  0.83760  0.36720  Biso   1.000  H
  C303     1.0000 0.93870  0.71480  0.59300  Biso   1.000  C
  C304     1.0000 0.73500  0.66270  0.50590  Biso   1.000  C
  H174     1.0000 0.70290  0.69680  0.49590  Biso   1.000  H
  C305     1.0000 0.82570  0.67240  0.53550  Biso   1.000  C
  C306     1.0000 0.79950  0.51700  0.51170  Biso   1.000  C
  H175     1.0000 0.81100  0.44860  0.50720  Biso   1.000  H
  C307     1.0000 0.96890  0.64160  0.60750  Biso   1.000  C
  H176     1.0000 0.96350  0.57020  0.60300  Biso   1.000  H
  C308     1.0000 0.15130  0.62080  0.20480  Biso   1.000  C
