data_image0
_cell_length_a       8.429
_cell_length_b       8.429
_cell_length_c       39.6619
_cell_angle_alpha    90
_cell_angle_beta     90
_cell_angle_gamma    120

_symmetry_space_group_name_H-M    "P 1"
_symmetry_int_tables_number       1

loop_
  _symmetry_equiv_pos_as_xyz
  'x, y, z'

loop_
  _atom_site_label
  _atom_site_occupancy
  _atom_site_fract_x
  _atom_site_fract_y
  _atom_site_fract_z
  _atom_site_thermal_displace_type
  _atom_site_B_iso_or_equiv
  _atom_site_type_symbol
  N1       1.0000 0.77720  0.65393  0.04338  Biso   1.000  N
  C1       1.0000 0.86104  0.78345  0.02763  Biso   1.000  C
  N2       1.0000 0.44387  0.98726  0.37671  Biso   1.000  N
  C2       1.0000 0.52771  0.11678  0.36096  Biso   1.000  C
  N3       1.0000 0.11053  0.32060  0.71005  Biso   1.000  N
  C3       1.0000 0.19437  0.45012  0.69430  Biso   1.000  C
  N4       1.0000 0.34607  0.12327  0.04338  Biso   1.000  N
  C4       1.0000 0.21655  0.07759  0.02763  Biso   1.000  C
  N5       1.0000 0.01274  0.45660  0.37671  Biso   1.000  N
  C5       1.0000 0.88322  0.41092  0.36096  Biso   1.000  C
  N6       1.0000 0.67940  0.78994  0.71005  Biso   1.000  N
  C6       1.0000 0.54988  0.74426  0.69430  Biso   1.000  C
  N7       1.0000 0.87673  0.22280  0.04338  Biso   1.000  N
  C7       1.0000 0.92241  0.13896  0.02763  Biso   1.000  C
  N8       1.0000 0.54340  0.55613  0.37671  Biso   1.000  N
  C8       1.0000 0.58908  0.47229  0.36096  Biso   1.000  C
  N9       1.0000 0.21006  0.88947  0.71005  Biso   1.000  N
  C9       1.0000 0.25574  0.80563  0.69430  Biso   1.000  C
  N10      1.0000 0.65393  0.77720  0.45662  Biso   1.000  N
  C10      1.0000 0.78345  0.86104  0.47237  Biso   1.000  C
  N11      1.0000 0.32060  0.11053  0.78995  Biso   1.000  N
  C11      1.0000 0.45012  0.19437  0.80570  Biso   1.000  C
  N12      1.0000 0.98726  0.44387  0.12329  Biso   1.000  N
  C12      1.0000 0.11678  0.52771  0.13904  Biso   1.000  C
  N13      1.0000 0.12327  0.34607  0.45662  Biso   1.000  N
  C13      1.0000 0.07759  0.21655  0.47237  Biso   1.000  C
  N14      1.0000 0.78994  0.67940  0.78995  Biso   1.000  N
  C14      1.0000 0.74426  0.54988  0.80570  Biso   1.000  C
  N15      1.0000 0.45660  0.01274  0.12329  Biso   1.000  N
  C15      1.0000 0.41092  0.88322  0.13904  Biso   1.000  C
  N16      1.0000 0.22280  0.87673  0.45662  Biso   1.000  N
  C16      1.0000 0.13896  0.92241  0.47237  Biso   1.000  C
  N17      1.0000 0.88947  0.21006  0.78995  Biso   1.000  N
  C17      1.0000 0.80563  0.25574  0.80570  Biso   1.000  C
  N18      1.0000 0.55613  0.54340  0.12329  Biso   1.000  N
  C18      1.0000 0.47229  0.58908  0.13904  Biso   1.000  C
  N19      1.0000 0.22280  0.34607  0.95662  Biso   1.000  N
  C19      1.0000 0.13896  0.21655  0.97237  Biso   1.000  C
  N20      1.0000 0.88947  0.67940  0.28995  Biso   1.000  N
  C20      1.0000 0.80563  0.54988  0.30570  Biso   1.000  C
  N21      1.0000 0.55613  0.01274  0.62329  Biso   1.000  N
  C21      1.0000 0.47229  0.88322  0.63904  Biso   1.000  C
  N22      1.0000 0.65393  0.87673  0.95662  Biso   1.000  N
  C22      1.0000 0.78345  0.92241  0.97237  Biso   1.000  C
  N23      1.0000 0.32060  0.21006  0.28995  Biso   1.000  N
  C23      1.0000 0.45012  0.25574  0.30570  Biso   1.000  C
  N24      1.0000 0.98726  0.54340  0.62329  Biso   1.000  N
  C24      1.0000 0.11678  0.58908  0.63904  Biso   1.000  C
  N25      1.0000 0.12327  0.77720  0.95662  Biso   1.000  N
  C25      1.0000 0.07759  0.86104  0.97237  Biso   1.000  C
  N26      1.0000 0.78994  0.11053  0.28995  Biso   1.000  N
  C26      1.0000 0.74426  0.19437  0.30570  Biso   1.000  C
  N27      1.0000 0.45660  0.44387  0.62329  Biso   1.000  N
  C27      1.0000 0.41092  0.52771  0.63904  Biso   1.000  C
  N28      1.0000 0.34607  0.22280  0.54338  Biso   1.000  N
  C28      1.0000 0.21655  0.13896  0.52763  Biso   1.000  C
  N29      1.0000 0.01274  0.55613  0.87671  Biso   1.000  N
  C29      1.0000 0.88322  0.47229  0.86096  Biso   1.000  C
  N30      1.0000 0.67940  0.88947  0.21005  Biso   1.000  N
  C30      1.0000 0.54988  0.80563  0.19430  Biso   1.000  C
  N31      1.0000 0.87673  0.65393  0.54338  Biso   1.000  N
  C31      1.0000 0.92241  0.78345  0.52763  Biso   1.000  C
  N32      1.0000 0.54340  0.98726  0.87671  Biso   1.000  N
  C32      1.0000 0.58908  0.11678  0.86096  Biso   1.000  C
  N33      1.0000 0.21006  0.32060  0.21005  Biso   1.000  N
  C33      1.0000 0.25574  0.45012  0.19430  Biso   1.000  C
  N34      1.0000 0.77720  0.12327  0.54338  Biso   1.000  N
  C34      1.0000 0.86104  0.07759  0.52763  Biso   1.000  C
  N35      1.0000 0.44387  0.45660  0.87671  Biso   1.000  N
  C35      1.0000 0.52771  0.41092  0.86096  Biso   1.000  C
  N36      1.0000 0.11053  0.78994  0.21005  Biso   1.000  N
  C36      1.0000 0.19437  0.74426  0.19430  Biso   1.000  C
  Fe1      1.0000 0.00000  0.00000  0.00000  Biso   1.000  Fe
  Fe2      1.0000 0.66667  0.33333  0.33333  Biso   1.000  Fe
  Fe3      1.0000 0.33333  0.66667  0.66667  Biso   1.000  Fe
  Fe4      1.0000 0.00000  0.00000  0.50000  Biso   1.000  Fe
  Fe5      1.0000 0.66667  0.33333  0.83333  Biso   1.000  Fe
  Fe6      1.0000 0.33333  0.66667  0.16667  Biso   1.000  Fe
  K1       1.0000 0.66667  0.33333  0.08333  Biso   1.000  K
  K2       1.0000 0.00000  0.00000  0.75000  Biso   1.000  K
  K3       1.0000 0.33333  0.66667  0.41667  Biso   1.000  K
  K4       1.0000 0.33333  0.66667  0.91667  Biso   1.000  K
  K5       1.0000 0.00000  0.00000  0.25000  Biso   1.000  K
  K6       1.0000 0.66667  0.33333  0.58333  Biso   1.000  K
