data_IZOWEA_clean
_audit_creation_date              2014-07-02
_audit_creation_method            'Materials Studio'
_symmetry_space_group_name_H-M    'P1'
_symmetry_Int_Tables_number       1
_symmetry_cell_setting            triclinic
loop_
_symmetry_equiv_pos_as_xyz
  x,y,z
_cell_length_a                    16.2140
_cell_length_b                    24.1560
_cell_length_c                    24.9920
_cell_angle_alpha                 90.0000
_cell_angle_beta                  90.0000
_cell_angle_gamma                 90.0000
loop_
_atom_site_label
_atom_site_type_symbol
_atom_site_fract_x
_atom_site_fract_y
_atom_site_fract_z
_atom_site_U_iso_or_equiv
_atom_site_adp_type
_atom_site_occupancy
Zn1    Zn    0.82111   0.77128   0.51190   0.01267  Uiso   1.00
Zn2    Zn    0.82111   0.22872   0.48810   0.01267  Uiso   1.00
Zn3    Zn    0.67889   0.72872   0.01190   0.01267  Uiso   1.00
Zn4    Zn    0.67889   0.27128   0.98810   0.01267  Uiso   1.00
Zn5    Zn    0.17889   0.22872   0.48810   0.01267  Uiso   1.00
Zn6    Zn    0.17889   0.77128   0.51190   0.01267  Uiso   1.00
Zn7    Zn    0.32111   0.27128   0.98810   0.01267  Uiso   1.00
Zn8    Zn    0.32111   0.72872   0.01190   0.01267  Uiso   1.00
Zn9    Zn    0.00000   0.02108   0.57203   0.01267  Uiso   1.00
Zn10   Zn    0.00000   0.97892   0.42797   0.01267  Uiso   1.00
Zn11   Zn    0.50000   0.47892   0.07203   0.01267  Uiso   1.00
Zn12   Zn    0.50000   0.52108   0.92797   0.01267  Uiso   1.00
Zn13   Zn    0.50000   0.71933   0.79240   0.01267  Uiso   1.00
Zn14   Zn    0.50000   0.28067   0.20760   0.01267  Uiso   1.00
Zn15   Zn    0.00000   0.78067   0.29240   0.01267  Uiso   1.00
Zn16   Zn    0.00000   0.21933   0.70760   0.01267  Uiso   1.00
Mo1    Mo    0.10803   0.90842   0.53799   0.01267  Uiso   1.00
Mo2    Mo    0.19071   0.90762   0.44787   0.01267  Uiso   1.00
Mo3    Mo    0.09852   0.09399   0.67598   0.01267  Uiso   1.00
Mo4    Mo    0.81225   0.78512   0.36592   0.01267  Uiso   1.00
Mo5    Mo    0.89081   0.69663   0.39691   0.01267  Uiso   1.00
Mo6    Mo    0.10803   0.09158   0.46201   0.01267  Uiso   1.00
Mo7    Mo    0.19071   0.09238   0.55213   0.01267  Uiso   1.00
Mo8    Mo    0.09852   0.90601   0.32402   0.01267  Uiso   1.00
Mo9    Mo    0.81225   0.21488   0.63408   0.01267  Uiso   1.00
Mo10   Mo    0.89081   0.30337   0.60309   0.01267  Uiso   1.00
Mo11   Mo    0.39197   0.59158   0.03799   0.01267  Uiso   1.00
Mo12   Mo    0.30929   0.59238   0.94787   0.01267  Uiso   1.00
Mo13   Mo    0.40148   0.40601   0.17598   0.01267  Uiso   1.00
Mo14   Mo    0.68775   0.71488   0.86592   0.01267  Uiso   1.00
Mo15   Mo    0.60919   0.80337   0.89691   0.01267  Uiso   1.00
Mo16   Mo    0.39197   0.40842   0.96201   0.01267  Uiso   1.00
Mo17   Mo    0.30929   0.40762   0.05213   0.01267  Uiso   1.00
Mo18   Mo    0.40148   0.59399   0.82402   0.01267  Uiso   1.00
Mo19   Mo    0.68775   0.28512   0.13408   0.01267  Uiso   1.00
Mo20   Mo    0.60919   0.19663   0.10309   0.01267  Uiso   1.00
Mo21   Mo    0.89197   0.09158   0.46201   0.01267  Uiso   1.00
Mo22   Mo    0.80929   0.09238   0.55213   0.01267  Uiso   1.00
Mo23   Mo    0.90148   0.90601   0.32402   0.01267  Uiso   1.00
Mo24   Mo    0.18775   0.21488   0.63408   0.01267  Uiso   1.00
Mo25   Mo    0.10919   0.30337   0.60309   0.01267  Uiso   1.00
Mo26   Mo    0.89197   0.90842   0.53799   0.01267  Uiso   1.00
Mo27   Mo    0.80929   0.90762   0.44787   0.01267  Uiso   1.00
Mo28   Mo    0.90148   0.09399   0.67598   0.01267  Uiso   1.00
Mo29   Mo    0.18775   0.78512   0.36592   0.01267  Uiso   1.00
Mo30   Mo    0.10919   0.69663   0.39691   0.01267  Uiso   1.00
Mo31   Mo    0.60803   0.40842   0.96201   0.01267  Uiso   1.00
Mo32   Mo    0.69071   0.40762   0.05213   0.01267  Uiso   1.00
Mo33   Mo    0.59852   0.59399   0.82402   0.01267  Uiso   1.00
Mo34   Mo    0.31225   0.28512   0.13408   0.01267  Uiso   1.00
Mo35   Mo    0.39081   0.19663   0.10309   0.01267  Uiso   1.00
Mo36   Mo    0.60803   0.59158   0.03799   0.01267  Uiso   1.00
Mo37   Mo    0.69071   0.59238   0.94787   0.01267  Uiso   1.00
Mo38   Mo    0.59852   0.40601   0.17598   0.01267  Uiso   1.00
Mo39   Mo    0.31225   0.71488   0.86592   0.01267  Uiso   1.00
Mo40   Mo    0.39081   0.80337   0.89691   0.01267  Uiso   1.00
Mo41   Mo    0.00000   0.79692   0.58587   0.01267  Uiso   1.00
Mo42   Mo    0.00000   0.68798   0.51411   0.01267  Uiso   1.00
Mo43   Mo    0.00000   0.20308   0.41413   0.01267  Uiso   1.00
Mo44   Mo    0.00000   0.31202   0.48589   0.01267  Uiso   1.00
Mo45   Mo    0.50000   0.70308   0.08587   0.01267  Uiso   1.00
Mo46   Mo    0.50000   0.81202   0.01411   0.01267  Uiso   1.00
Mo47   Mo    0.50000   0.29692   0.91413   0.01267  Uiso   1.00
Mo48   Mo    0.50000   0.18798   0.98589   0.01267  Uiso   1.00
P1     P     0.00000   0.82264   0.43692   0.01267  Uiso   1.00
P2     P     0.00000   0.17736   0.56308   0.01267  Uiso   1.00
P3     P     0.50000   0.67736   0.93692   0.01267  Uiso   1.00
P4     P     0.50000   0.32264   0.06308   0.01267  Uiso   1.00
H1     H     0.62460   0.74130   0.62250   0.01267  Uiso   1.00
H2     H     0.62460   0.25870   0.37750   0.01267  Uiso   1.00
H3     H     0.87540   0.75870   0.12250   0.01267  Uiso   1.00
H4     H     0.87540   0.24130   0.87750   0.01267  Uiso   1.00
H5     H     0.37540   0.25870   0.37750   0.01267  Uiso   1.00
H6     H     0.37540   0.74130   0.62250   0.01267  Uiso   1.00
H7     H     0.12460   0.24130   0.87750   0.01267  Uiso   1.00
H8     H     0.12460   0.75870   0.12250   0.01267  Uiso   1.00
H9     H     0.50000   0.77300   0.48920   0.01267  Uiso   1.00
H10    H     0.50000   0.22700   0.51080   0.01267  Uiso   1.00
H11    H     0.00000   0.72700   0.98920   0.01267  Uiso   1.00
H12    H     0.00000   0.27300   0.01080   0.01267  Uiso   1.00
C1     C     0.57530   0.74790   0.60470   0.01267  Uiso   1.00
C2     C     0.57620   0.75950   0.55130   0.01267  Uiso   1.00
C3     C     0.65220   0.76840   0.52210   0.01267  Uiso   1.00
C4     C     0.57530   0.25210   0.39530   0.01267  Uiso   1.00
C5     C     0.57620   0.24050   0.44870   0.01267  Uiso   1.00
C6     C     0.65220   0.23160   0.47790   0.01267  Uiso   1.00
C7     C     0.92470   0.75210   0.10470   0.01267  Uiso   1.00
C8     C     0.92380   0.74050   0.05130   0.01267  Uiso   1.00
C9     C     0.84780   0.73160   0.02210   0.01267  Uiso   1.00
C10    C     0.92470   0.24790   0.89530   0.01267  Uiso   1.00
C11    C     0.92380   0.25950   0.94870   0.01267  Uiso   1.00
C12    C     0.84780   0.26840   0.97790   0.01267  Uiso   1.00
C13    C     0.42470   0.25210   0.39530   0.01267  Uiso   1.00
C14    C     0.42380   0.24050   0.44870   0.01267  Uiso   1.00
C15    C     0.34780   0.23160   0.47790   0.01267  Uiso   1.00
C16    C     0.42470   0.74790   0.60470   0.01267  Uiso   1.00
C17    C     0.42380   0.75950   0.55130   0.01267  Uiso   1.00
C18    C     0.34780   0.76840   0.52210   0.01267  Uiso   1.00
C19    C     0.07530   0.24790   0.89530   0.01267  Uiso   1.00
C20    C     0.07620   0.25950   0.94870   0.01267  Uiso   1.00
C21    C     0.15220   0.26840   0.97790   0.01267  Uiso   1.00
C22    C     0.07530   0.75210   0.10470   0.01267  Uiso   1.00
C23    C     0.07620   0.74050   0.05130   0.01267  Uiso   1.00
C24    C     0.15220   0.73160   0.02210   0.01267  Uiso   1.00
C25    C     0.50000   0.76510   0.52560   0.01267  Uiso   1.00
C26    C     0.50000   0.74580   0.63310   0.01267  Uiso   1.00
C27    C     0.50000   0.73400   0.69370   0.01267  Uiso   1.00
C28    C     0.50000   0.23490   0.47440   0.01267  Uiso   1.00
C29    C     0.50000   0.25420   0.36690   0.01267  Uiso   1.00
C30    C     0.50000   0.26600   0.30630   0.01267  Uiso   1.00
C31    C     0.00000   0.73490   0.02560   0.01267  Uiso   1.00
C32    C     0.00000   0.75420   0.13310   0.01267  Uiso   1.00
C33    C     0.00000   0.76600   0.19370   0.01267  Uiso   1.00
C34    C     0.00000   0.26510   0.97440   0.01267  Uiso   1.00
C35    C     0.00000   0.24580   0.86690   0.01267  Uiso   1.00
C36    C     0.00000   0.23400   0.80630   0.01267  Uiso   1.00
O1     O     0.09220   0.94710   0.46970   0.01267  Uiso   1.00
O2     O     0.71760   0.75260   0.54570   0.01267  Uiso   1.00
O3     O     0.18150   0.85260   0.50410   0.01267  Uiso   1.00
O4     O     0.92480   0.74670   0.54420   0.01267  Uiso   1.00
O5     O     0.81810   0.74930   0.43590   0.01267  Uiso   1.00
O6     O     0.07820   0.84260   0.40850   0.01267  Uiso   1.00
O7     O     0.90850   0.74890   0.33550   0.01267  Uiso   1.00
O8     O     0.08350   0.84650   0.59000   0.01267  Uiso   1.00
O9     O     0.16500   0.93600   0.37590   0.01267  Uiso   1.00
O10    O     0.25720   0.84410   0.40840   0.01267  Uiso   1.00
O11    O     0.83850   0.84510   0.31260   0.01267  Uiso   1.00
O12    O     0.08540   0.66780   0.47010   0.01267  Uiso   1.00
O13    O     0.65280   0.79000   0.47660   0.01267  Uiso   1.00
O14    O     0.43650   0.73170   0.71930   0.01267  Uiso   1.00
O15    O     0.09220   0.05290   0.53030   0.01267  Uiso   1.00
O16    O     0.71760   0.24740   0.45430   0.01267  Uiso   1.00
O17    O     0.18150   0.14740   0.49590   0.01267  Uiso   1.00
O18    O     0.92480   0.25330   0.45580   0.01267  Uiso   1.00
O19    O     0.81810   0.25070   0.56410   0.01267  Uiso   1.00
O20    O     0.07820   0.15740   0.59150   0.01267  Uiso   1.00
O21    O     0.90850   0.25110   0.66450   0.01267  Uiso   1.00
O22    O     0.08350   0.15350   0.41000   0.01267  Uiso   1.00
O23    O     0.16500   0.06400   0.62410   0.01267  Uiso   1.00
O24    O     0.25720   0.15590   0.59160   0.01267  Uiso   1.00
O25    O     0.83850   0.15490   0.68740   0.01267  Uiso   1.00
O26    O     0.08540   0.33220   0.52990   0.01267  Uiso   1.00
O27    O     0.65280   0.21000   0.52340   0.01267  Uiso   1.00
O28    O     0.43650   0.26830   0.28070   0.01267  Uiso   1.00
O29    O     0.40780   0.55290   0.96970   0.01267  Uiso   1.00
O30    O     0.78240   0.74740   0.04570   0.01267  Uiso   1.00
O31    O     0.31850   0.64740   0.00410   0.01267  Uiso   1.00
O32    O     0.57520   0.75330   0.04420   0.01267  Uiso   1.00
O33    O     0.68190   0.75070   0.93590   0.01267  Uiso   1.00
O34    O     0.42180   0.65740   0.90850   0.01267  Uiso   1.00
O35    O     0.59150   0.75110   0.83550   0.01267  Uiso   1.00
O36    O     0.41650   0.65350   0.09000   0.01267  Uiso   1.00
O37    O     0.33500   0.56400   0.87590   0.01267  Uiso   1.00
O38    O     0.24280   0.65590   0.90840   0.01267  Uiso   1.00
O39    O     0.66150   0.65490   0.81260   0.01267  Uiso   1.00
O40    O     0.41460   0.83220   0.97010   0.01267  Uiso   1.00
O41    O     0.84720   0.71000   0.97660   0.01267  Uiso   1.00
O42    O     0.06350   0.76830   0.21930   0.01267  Uiso   1.00
O43    O     0.40780   0.44710   0.03030   0.01267  Uiso   1.00
O44    O     0.78240   0.25260   0.95430   0.01267  Uiso   1.00
O45    O     0.31850   0.35260   0.99590   0.01267  Uiso   1.00
O46    O     0.57520   0.24670   0.95580   0.01267  Uiso   1.00
O47    O     0.68190   0.24930   0.06410   0.01267  Uiso   1.00
O48    O     0.42180   0.34260   0.09150   0.01267  Uiso   1.00
O49    O     0.59150   0.24890   0.16450   0.01267  Uiso   1.00
O50    O     0.41650   0.34650   0.91000   0.01267  Uiso   1.00
O51    O     0.33500   0.43600   0.12410   0.01267  Uiso   1.00
O52    O     0.24280   0.34410   0.09160   0.01267  Uiso   1.00
O53    O     0.66150   0.34510   0.18740   0.01267  Uiso   1.00
O54    O     0.41460   0.16780   0.02990   0.01267  Uiso   1.00
O55    O     0.84720   0.29000   0.02340   0.01267  Uiso   1.00
O56    O     0.06350   0.23170   0.78070   0.01267  Uiso   1.00
O57    O     0.90780   0.05290   0.53030   0.01267  Uiso   1.00
O58    O     0.28240   0.24740   0.45430   0.01267  Uiso   1.00
O59    O     0.81850   0.14740   0.49590   0.01267  Uiso   1.00
O60    O     0.07520   0.25330   0.45580   0.01267  Uiso   1.00
O61    O     0.18190   0.25070   0.56410   0.01267  Uiso   1.00
O62    O     0.92180   0.15740   0.59150   0.01267  Uiso   1.00
O63    O     0.09150   0.25110   0.66450   0.01267  Uiso   1.00
O64    O     0.91650   0.15350   0.41000   0.01267  Uiso   1.00
O65    O     0.83500   0.06400   0.62410   0.01267  Uiso   1.00
O66    O     0.74280   0.15590   0.59160   0.01267  Uiso   1.00
O67    O     0.16150   0.15490   0.68740   0.01267  Uiso   1.00
O68    O     0.91460   0.33220   0.52990   0.01267  Uiso   1.00
O69    O     0.34720   0.21000   0.52340   0.01267  Uiso   1.00
O70    O     0.56350   0.26830   0.28070   0.01267  Uiso   1.00
O71    O     0.90780   0.94710   0.46970   0.01267  Uiso   1.00
O72    O     0.28240   0.75260   0.54570   0.01267  Uiso   1.00
O73    O     0.81850   0.85260   0.50410   0.01267  Uiso   1.00
O74    O     0.07520   0.74670   0.54420   0.01267  Uiso   1.00
O75    O     0.18190   0.74930   0.43590   0.01267  Uiso   1.00
O76    O     0.92180   0.84260   0.40850   0.01267  Uiso   1.00
O77    O     0.09150   0.74890   0.33550   0.01267  Uiso   1.00
O78    O     0.91650   0.84650   0.59000   0.01267  Uiso   1.00
O79    O     0.83500   0.93600   0.37590   0.01267  Uiso   1.00
O80    O     0.74280   0.84410   0.40840   0.01267  Uiso   1.00
O81    O     0.16150   0.84510   0.31260   0.01267  Uiso   1.00
O82    O     0.91460   0.66780   0.47010   0.01267  Uiso   1.00
O83    O     0.34720   0.79000   0.47660   0.01267  Uiso   1.00
O84    O     0.56350   0.73170   0.71930   0.01267  Uiso   1.00
O85    O     0.59220   0.44710   0.03030   0.01267  Uiso   1.00
O86    O     0.21760   0.25260   0.95430   0.01267  Uiso   1.00
O87    O     0.68150   0.35260   0.99590   0.01267  Uiso   1.00
O88    O     0.42480   0.24670   0.95580   0.01267  Uiso   1.00
O89    O     0.31810   0.24930   0.06410   0.01267  Uiso   1.00
O90    O     0.57820   0.34260   0.09150   0.01267  Uiso   1.00
O91    O     0.40850   0.24890   0.16450   0.01267  Uiso   1.00
O92    O     0.58350   0.34650   0.91000   0.01267  Uiso   1.00
O93    O     0.66500   0.43600   0.12410   0.01267  Uiso   1.00
O94    O     0.75720   0.34410   0.09160   0.01267  Uiso   1.00
O95    O     0.33850   0.34510   0.18740   0.01267  Uiso   1.00
O96    O     0.58540   0.16780   0.02990   0.01267  Uiso   1.00
O97    O     0.15280   0.29000   0.02340   0.01267  Uiso   1.00
O98    O     0.93650   0.23170   0.78070   0.01267  Uiso   1.00
O99    O     0.59220   0.55290   0.96970   0.01267  Uiso   1.00
O100   O     0.21760   0.74740   0.04570   0.01267  Uiso   1.00
O101   O     0.68150   0.64740   0.00410   0.01267  Uiso   1.00
O102   O     0.42480   0.75330   0.04420   0.01267  Uiso   1.00
O103   O     0.31810   0.75070   0.93590   0.01267  Uiso   1.00
O104   O     0.57820   0.65740   0.90850   0.01267  Uiso   1.00
O105   O     0.40850   0.75110   0.83550   0.01267  Uiso   1.00
O106   O     0.58350   0.65350   0.09000   0.01267  Uiso   1.00
O107   O     0.66500   0.56400   0.87590   0.01267  Uiso   1.00
O108   O     0.75720   0.65590   0.90840   0.01267  Uiso   1.00
O109   O     0.33850   0.65490   0.81260   0.01267  Uiso   1.00
O110   O     0.58540   0.83220   0.97010   0.01267  Uiso   1.00
O111   O     0.15280   0.71000   0.97660   0.01267  Uiso   1.00
O112   O     0.93650   0.76830   0.21930   0.01267  Uiso   1.00
O113   O     0.00000   0.94010   0.56160   0.01267  Uiso   1.00
O114   O     0.00000   0.05560   0.64230   0.01267  Uiso   1.00
O115   O     0.00000   0.75750   0.43540   0.01267  Uiso   1.00
O116   O     0.00000   0.84540   0.49500   0.01267  Uiso   1.00
O117   O     0.00000   0.66050   0.37340   0.01267  Uiso   1.00
O118   O     0.00000   0.05990   0.43840   0.01267  Uiso   1.00
O119   O     0.00000   0.94440   0.35770   0.01267  Uiso   1.00
O120   O     0.00000   0.24250   0.56460   0.01267  Uiso   1.00
O121   O     0.00000   0.15460   0.50500   0.01267  Uiso   1.00
O122   O     0.00000   0.33950   0.62660   0.01267  Uiso   1.00
O123   O     0.50000   0.55990   0.06160   0.01267  Uiso   1.00
O124   O     0.50000   0.44440   0.14230   0.01267  Uiso   1.00
O125   O     0.50000   0.74250   0.93540   0.01267  Uiso   1.00
O126   O     0.50000   0.65460   0.99500   0.01267  Uiso   1.00
O127   O     0.50000   0.83950   0.87340   0.01267  Uiso   1.00
O128   O     0.50000   0.44010   0.93840   0.01267  Uiso   1.00
O129   O     0.50000   0.55560   0.85770   0.01267  Uiso   1.00
O130   O     0.50000   0.25750   0.06460   0.01267  Uiso   1.00
O131   O     0.50000   0.34540   0.00500   0.01267  Uiso   1.00
O132   O     0.50000   0.16050   0.12660   0.01267  Uiso   1.00
O133   O     0.50000   0.63650   0.80230   0.01267  Uiso   1.00
O134   O     0.50000   0.36350   0.19770   0.01267  Uiso   1.00
O135   O     0.00000   0.86350   0.30230   0.01267  Uiso   1.00
O136   O     0.00000   0.13650   0.69770   0.01267  Uiso   1.00
