data_IZOWAW_clean
_audit_creation_date              2014-07-02
_audit_creation_method            'Materials Studio'
_symmetry_space_group_name_H-M    'P1'
_symmetry_Int_Tables_number       1
_symmetry_cell_setting            triclinic
loop_
_symmetry_equiv_pos_as_xyz
  x,y,z
_cell_length_a                    21.6212
_cell_length_b                    22.5502
_cell_length_c                    26.2154
_cell_angle_alpha                 115.4740
_cell_angle_beta                  114.3540
_cell_angle_gamma                 90.0000
loop_
_atom_site_label
_atom_site_type_symbol
_atom_site_fract_x
_atom_site_fract_y
_atom_site_fract_z
_atom_site_U_iso_or_equiv
_atom_site_adp_type
_atom_site_occupancy
Zn1    Zn    0.81288   0.75565   0.39018   0.01267  Uiso   1.00
Zn2    Zn    0.86578   0.69057   0.60536   0.01267  Uiso   1.00
Zn3    Zn    0.94823   0.64059   0.10040   0.01267  Uiso   1.00
Zn4    Zn    0.57730   0.63453   0.39018   0.01267  Uiso   1.00
Zn5    Zn    0.73958   0.91479   0.60536   0.01267  Uiso   1.00
Zn6    Zn    0.15217   0.45981   0.10040   0.01267  Uiso   1.00
Zn7    Zn    0.18712   0.36547   0.60982   0.01267  Uiso   1.00
Zn8    Zn    0.13422   0.08521   0.39464   0.01267  Uiso   1.00
Zn9    Zn    0.05177   0.54019   0.89960   0.01267  Uiso   1.00
Zn10   Zn    0.42270   0.24435   0.60982   0.01267  Uiso   1.00
Zn11   Zn    0.26042   0.30943   0.39464   0.01267  Uiso   1.00
Zn12   Zn    0.84783   0.35941   0.89960   0.01267  Uiso   1.00
Mo1    Mo    0.70238   0.60528   0.33466   0.01267  Uiso   1.00
Mo2    Mo    0.72242   0.56724   0.45324   0.01267  Uiso   1.00
Mo3    Mo    0.86866   0.64468   0.45442   0.01267  Uiso   1.00
Mo4    Mo    0.93708   0.76687   0.54218   0.01267  Uiso   1.00
Mo5    Mo    0.89528   0.86386   0.66072   0.01267  Uiso   1.00
Mo6    Mo    0.68486   0.63526   0.54132   0.01267  Uiso   1.00
Mo7    Mo    0.12695   0.62500   0.16312   0.01267  Uiso   1.00
Mo8    Mo    0.06740   0.67541   0.04628   0.01267  Uiso   1.00
Mo9    Mo    0.86844   0.47618   0.05110   0.01267  Uiso   1.00
Mo10   Mo    0.63228   0.72938   0.33466   0.01267  Uiso   1.00
Mo11   Mo    0.73082   0.88600   0.45324   0.01267  Uiso   1.00
Mo12   Mo    0.58576   0.80974   0.45442   0.01267  Uiso   1.00
Mo13   Mo    0.60510   0.77531   0.54218   0.01267  Uiso   1.00
Mo14   Mo    0.76544   0.79686   0.66072   0.01267  Uiso   1.00
Mo15   Mo    0.85646   0.90606   0.54132   0.01267  Uiso   1.00
Mo16   Mo    0.03617   0.53812   0.16312   0.01267  Uiso   1.00
Mo17   Mo    0.97888   0.37087   0.04628   0.01267  Uiso   1.00
Mo18   Mo    0.18266   0.57492   0.05110   0.01267  Uiso   1.00
Mo19   Mo    0.29762   0.27062   0.66534   0.01267  Uiso   1.00
Mo20   Mo    0.27758   0.11400   0.54676   0.01267  Uiso   1.00
Mo21   Mo    0.13134   0.19026   0.54558   0.01267  Uiso   1.00
Mo22   Mo    0.06292   0.22469   0.45782   0.01267  Uiso   1.00
Mo23   Mo    0.10472   0.20314   0.33928   0.01267  Uiso   1.00
Mo24   Mo    0.31514   0.09394   0.45868   0.01267  Uiso   1.00
Mo25   Mo    0.87305   0.46188   0.83688   0.01267  Uiso   1.00
Mo26   Mo    0.93260   0.62913   0.95372   0.01267  Uiso   1.00
Mo27   Mo    0.13156   0.42508   0.94890   0.01267  Uiso   1.00
Mo28   Mo    0.36772   0.39472   0.66534   0.01267  Uiso   1.00
Mo29   Mo    0.26918   0.43276   0.54676   0.01267  Uiso   1.00
Mo30   Mo    0.41424   0.35532   0.54558   0.01267  Uiso   1.00
Mo31   Mo    0.39490   0.23313   0.45782   0.01267  Uiso   1.00
Mo32   Mo    0.23456   0.13614   0.33928   0.01267  Uiso   1.00
Mo33   Mo    0.14354   0.36474   0.45868   0.01267  Uiso   1.00
Mo34   Mo    0.96383   0.37500   0.83688   0.01267  Uiso   1.00
Mo35   Mo    0.02112   0.32459   0.95372   0.01267  Uiso   1.00
Mo36   Mo    0.81734   0.52382   0.94890   0.01267  Uiso   1.00
H1     H     0.01060   0.91990   0.42360   0.01267  Uiso   1.00
H2     H     0.03720   0.86870   0.27420   0.01267  Uiso   1.00
H3     H     0.91400   0.73700   0.26620   0.01267  Uiso   1.00
H4     H     0.41300   0.50370   0.42360   0.01267  Uiso   1.00
H5     H     0.23700   0.40550   0.27420   0.01267  Uiso   1.00
H6     H     0.35220   0.52920   0.26620   0.01267  Uiso   1.00
H7     H     0.98940   0.49630   0.57640   0.01267  Uiso   1.00
H8     H     0.96280   0.59450   0.72580   0.01267  Uiso   1.00
H9     H     0.08600   0.47080   0.73380   0.01267  Uiso   1.00
H10    H     0.58700   0.08010   0.57640   0.01267  Uiso   1.00
H11    H     0.76300   0.13130   0.72580   0.01267  Uiso   1.00
H12    H     0.64780   0.26300   0.73380   0.01267  Uiso   1.00
C1     C     0.95050   0.82820   0.34720   0.01267  Uiso   1.00
C2     C     0.99700   0.89110   0.38080   0.01267  Uiso   1.00
C3     C     0.02021   0.90651   0.34722   0.01267  Uiso   1.00
C4     C     0.00980   0.85910   0.29040   0.01267  Uiso   1.00
C5     C     0.96470   0.79850   0.25320   0.01267  Uiso   1.00
C6     C     0.93910   0.78060   0.28500   0.01267  Uiso   1.00
C7     C     0.91448   0.81138   0.37816   0.01267  Uiso   1.00
C8     C     0.06540   0.97660   0.38220   0.01267  Uiso   1.00
C9     C     0.96360   0.75170   0.19540   0.01267  Uiso   1.00
C10    C     0.39670   0.51900   0.34720   0.01267  Uiso   1.00
C11    C     0.38380   0.48970   0.38080   0.01267  Uiso   1.00
C12    C     0.32701   0.44071   0.34722   0.01267  Uiso   1.00
C13    C     0.28060   0.43130   0.29040   0.01267  Uiso   1.00
C14    C     0.28850   0.45470   0.25320   0.01267  Uiso   1.00
C15    C     0.34590   0.50440   0.28500   0.01267  Uiso   1.00
C16    C     0.46368   0.56678   0.37816   0.01267  Uiso   1.00
C17    C     0.31680   0.40560   0.38220   0.01267  Uiso   1.00
C18    C     0.23180   0.44370   0.19540   0.01267  Uiso   1.00
C19    C     0.04950   0.48100   0.65280   0.01267  Uiso   1.00
C20    C     0.00300   0.51030   0.61920   0.01267  Uiso   1.00
C21    C     0.97979   0.55929   0.65278   0.01267  Uiso   1.00
C22    C     0.99020   0.56870   0.70960   0.01267  Uiso   1.00
C23    C     0.03530   0.54530   0.74680   0.01267  Uiso   1.00
C24    C     0.06090   0.49560   0.71500   0.01267  Uiso   1.00
C25    C     0.08552   0.43322   0.62184   0.01267  Uiso   1.00
C26    C     0.93460   0.59440   0.61780   0.01267  Uiso   1.00
C27    C     0.03640   0.55630   0.80460   0.01267  Uiso   1.00
C28    C     0.60330   0.17180   0.65280   0.01267  Uiso   1.00
C29    C     0.61620   0.10890   0.61920   0.01267  Uiso   1.00
C30    C     0.67299   0.09349   0.65278   0.01267  Uiso   1.00
C31    C     0.71940   0.14090   0.70960   0.01267  Uiso   1.00
C32    C     0.71150   0.20150   0.74680   0.01267  Uiso   1.00
C33    C     0.65410   0.21940   0.71500   0.01267  Uiso   1.00
C34    C     0.53632   0.18862   0.62184   0.01267  Uiso   1.00
C35    C     0.68320   0.02340   0.61780   0.01267  Uiso   1.00
C36    C     0.76820   0.24830   0.80460   0.01267  Uiso   1.00
O1     O     0.79696   0.60726   0.36312   0.01267  Uiso   1.00
O2     O     0.68344   0.54854   0.36228   0.01267  Uiso   1.00
O3     O     0.72485   0.69405   0.34250   0.01267  Uiso   1.00
O4     O     0.63851   0.60231   0.44942   0.01267  Uiso   1.00
O5     O     0.77304   0.62497   0.54388   0.01267  Uiso   1.00
O6     O     0.81977   0.56687   0.45694   0.01267  Uiso   1.00
O7     O     0.87951   0.72949   0.45102   0.01267  Uiso   1.00
O8     O     0.90147   0.69197   0.54854   0.01267  Uiso   1.00
O9     O     0.95653   0.81583   0.63226   0.01267  Uiso   1.00
O10    O     0.93689   0.85909   0.53778   0.01267  Uiso   1.00
O11    O     0.73614   0.70544   0.62988   0.01267  Uiso   1.00
O12    O     0.85504   0.77814   0.65248   0.01267  Uiso   1.00
O13    O     0.85670   0.76620   0.34060   0.01267  Uiso   1.00
O14    O     0.07339   0.99699   0.34738   0.01267  Uiso   1.00
O15    O     0.03427   0.61197   0.14654   0.01267  Uiso   1.00
O16    O     0.11140   0.69570   0.13580   0.01267  Uiso   1.00
O17    O     0.20167   0.60637   0.13614   0.01267  Uiso   1.00
O18    O     0.97915   0.65825   0.04610   0.01267  Uiso   1.00
O19    O     0.87253   0.55973   0.04166   0.01267  Uiso   1.00
O20    O     0.91550   0.69540   0.16400   0.01267  Uiso   1.00
O21    O     0.00800   0.75310   0.17740   0.01267  Uiso   1.00
O22    O     0.16193   0.65373   0.04946   0.01267  Uiso   1.00
O23    O     0.93524   0.84334   0.43028   0.01267  Uiso   1.00
O24    O     0.08855   0.00645   0.43570   0.01267  Uiso   1.00
O25    O     0.56616   0.75586   0.36312   0.01267  Uiso   1.00
O26    O     0.67884   0.81374   0.36228   0.01267  Uiso   1.00
O27    O     0.61765   0.64845   0.34250   0.01267  Uiso   1.00
O28    O     0.81091   0.84711   0.44942   0.01267  Uiso   1.00
O29    O     0.77084   0.91891   0.54388   0.01267  Uiso   1.00
O30    O     0.63717   0.89007   0.45694   0.01267  Uiso   1.00
O31    O     0.57151   0.72153   0.45102   0.01267  Uiso   1.00
O32    O     0.64707   0.85657   0.54854   0.01267  Uiso   1.00
O33    O     0.67573   0.81643   0.63226   0.01267  Uiso   1.00
O34    O     0.60089   0.67869   0.53778   0.01267  Uiso   1.00
O35    O     0.89374   0.92444   0.62988   0.01267  Uiso   1.00
O36    O     0.79744   0.87434   0.65248   0.01267  Uiso   1.00
O37    O     0.48390   0.57440   0.34060   0.01267  Uiso   1.00
O38    O     0.27399   0.35039   0.34738   0.01267  Uiso   1.00
O39    O     0.11227   0.53457   0.14654   0.01267  Uiso   1.00
O40    O     0.02440   0.44010   0.13580   0.01267  Uiso   1.00
O41    O     0.93447   0.52977   0.13614   0.01267  Uiso   1.00
O42    O     0.06695   0.38785   0.04610   0.01267  Uiso   1.00
O43    O     0.16913   0.48193   0.04166   0.01267  Uiso   1.00
O44    O     0.24850   0.46860   0.16400   0.01267  Uiso   1.00
O45    O     0.16940   0.42430   0.17740   0.01267  Uiso   1.00
O46    O     0.88753   0.39573   0.04946   0.01267  Uiso   1.00
O47    O     0.49504   0.58694   0.43028   0.01267  Uiso   1.00
O48    O     0.34715   0.42925   0.43570   0.01267  Uiso   1.00
O49    O     0.20304   0.24414   0.63688   0.01267  Uiso   1.00
O50    O     0.31656   0.18626   0.63772   0.01267  Uiso   1.00
O51    O     0.27515   0.35155   0.65750   0.01267  Uiso   1.00
O52    O     0.36149   0.15289   0.55058   0.01267  Uiso   1.00
O53    O     0.22696   0.08109   0.45612   0.01267  Uiso   1.00
O54    O     0.18023   0.10993   0.54306   0.01267  Uiso   1.00
O55    O     0.12049   0.27847   0.54898   0.01267  Uiso   1.00
O56    O     0.09853   0.14343   0.45146   0.01267  Uiso   1.00
O57    O     0.04347   0.18357   0.36774   0.01267  Uiso   1.00
O58    O     0.06311   0.32131   0.46222   0.01267  Uiso   1.00
O59    O     0.26386   0.07556   0.37012   0.01267  Uiso   1.00
O60    O     0.14496   0.12566   0.34752   0.01267  Uiso   1.00
O61    O     0.14330   0.42560   0.65940   0.01267  Uiso   1.00
O62    O     0.92661   0.64961   0.65262   0.01267  Uiso   1.00
O63    O     0.96573   0.46543   0.85346   0.01267  Uiso   1.00
O64    O     0.88860   0.55990   0.86420   0.01267  Uiso   1.00
O65    O     0.79833   0.47023   0.86386   0.01267  Uiso   1.00
O66    O     0.02085   0.61215   0.95390   0.01267  Uiso   1.00
O67    O     0.12747   0.51807   0.95834   0.01267  Uiso   1.00
O68    O     0.08450   0.53140   0.83600   0.01267  Uiso   1.00
O69    O     0.99200   0.57570   0.82260   0.01267  Uiso   1.00
O70    O     0.83807   0.60427   0.95054   0.01267  Uiso   1.00
O71    O     0.06476   0.41306   0.56972   0.01267  Uiso   1.00
O72    O     0.91145   0.57075   0.56430   0.01267  Uiso   1.00
O73    O     0.43384   0.39274   0.63688   0.01267  Uiso   1.00
O74    O     0.32116   0.45146   0.63772   0.01267  Uiso   1.00
O75    O     0.38235   0.30595   0.65750   0.01267  Uiso   1.00
O76    O     0.18909   0.39769   0.55058   0.01267  Uiso   1.00
O77    O     0.22916   0.37503   0.45612   0.01267  Uiso   1.00
O78    O     0.36283   0.43313   0.54306   0.01267  Uiso   1.00
O79    O     0.42849   0.27051   0.54898   0.01267  Uiso   1.00
O80    O     0.35293   0.30803   0.45146   0.01267  Uiso   1.00
O81    O     0.32427   0.18417   0.36774   0.01267  Uiso   1.00
O82    O     0.39911   0.14091   0.46222   0.01267  Uiso   1.00
O83    O     0.10626   0.29456   0.37012   0.01267  Uiso   1.00
O84    O     0.20256   0.22186   0.34752   0.01267  Uiso   1.00
O85    O     0.51610   0.23380   0.65940   0.01267  Uiso   1.00
O86    O     0.72601   0.00301   0.65262   0.01267  Uiso   1.00
O87    O     0.88773   0.38803   0.85346   0.01267  Uiso   1.00
O88    O     0.97560   0.30430   0.86420   0.01267  Uiso   1.00
O89    O     0.06553   0.39363   0.86386   0.01267  Uiso   1.00
O90    O     0.93305   0.34175   0.95390   0.01267  Uiso   1.00
O91    O     0.83087   0.44027   0.95834   0.01267  Uiso   1.00
O92    O     0.75150   0.30460   0.83600   0.01267  Uiso   1.00
O93    O     0.83060   0.24690   0.82260   0.01267  Uiso   1.00
O94    O     0.11247   0.34627   0.95054   0.01267  Uiso   1.00
O95    O     0.50496   0.15666   0.56972   0.01267  Uiso   1.00
O96    O     0.65285   0.99355   0.56430   0.01267  Uiso   1.00
