data_image0
_cell_length_a       23.276
_cell_length_b       20.665
_cell_length_c       17.502
_cell_angle_alpha    90
_cell_angle_beta     126.265
_cell_angle_gamma    90

_symmetry_space_group_name_H-M    "P 1"
_symmetry_int_tables_number       1

loop_
  _symmetry_equiv_pos_as_xyz
  'x, y, z'

loop_
  _atom_site_label
  _atom_site_occupancy
  _atom_site_fract_x
  _atom_site_fract_y
  _atom_site_fract_z
  _atom_site_thermal_displace_type
  _atom_site_B_iso_or_equiv
  _atom_site_type_symbol
  Zn1      1.0000 0.14340  0.66458  0.66451  Biso   1.000  Zn
  O1       1.0000 0.47480  0.88810  0.81950  Biso   1.000  O
  O2       1.0000 0.58900  0.90850  0.92090  Biso   1.000  O
  O3       1.0000 0.27720  0.67880  0.80280  Biso   1.000  O
  C1       1.0000 0.40570  0.89050  0.91300  Biso   1.000  C
  O4       1.0000 0.19030  0.74750  0.71380  Biso   1.000  O
  C2       1.0000 0.42700  0.82580  0.94110  Biso   1.000  C
  C3       1.0000 0.51170  0.95630  0.94980  Biso   1.000  C
  C4       1.0000 0.55430  0.00980  0.99410  Biso   1.000  C
  H1       1.0000 0.59190  0.01610  0.99000  Biso   1.000  H
  C5       1.0000 0.45520  0.94560  0.95620  Biso   1.000  C
  C6       1.0000 0.25450  0.73670  0.77930  Biso   1.000  C
  C7       1.0000 0.37590  0.77700  0.89800  Biso   1.000  C
  H2       1.0000 0.39000  0.73440  0.91710  Biso   1.000  H
  N1       1.0000 0.14260  0.60110  0.75000  Biso   1.000  N
  C8       1.0000 0.52650  0.91450  0.89440  Biso   1.000  C
  C9       1.0000 0.30530  0.79000  0.82780  Biso   1.000  C
  C10      1.0000 0.33500  0.90210  0.84580  Biso   1.000  C
  H3       1.0000 0.31980  0.94470  0.82960  Biso   1.000  H
  C11      1.0000 0.50090  0.80780  0.01410  Biso   1.000  C
  C12      1.0000 0.28480  0.85320  0.80050  Biso   1.000  C
  H4       1.0000 0.23760  0.86310  0.75210  Biso   1.000  H
  N2       1.0000 0.17900  0.53020  0.85950  Biso   1.000  N
  C13      1.0000 0.10740  0.52870  0.80300  Biso   1.000  C
  H5       1.0000 0.07850  0.50110  0.80840  Biso   1.000  H
  C14      1.0000 0.08570  0.57450  0.73730  Biso   1.000  C
  H6       1.0000 0.03860  0.58590  0.69050  Biso   1.000  H
  C15      1.0000 0.23890  0.42940  0.91750  Biso   1.000  C
  H7       1.0000 0.25860  0.43380  0.88210  Biso   1.000  H
  H8       1.0000 0.19300  0.40810  0.87710  Biso   1.000  H
  C16      1.0000 0.19860  0.57410  0.82290  Biso   1.000  C
  H9       1.0000 0.24540  0.58370  0.84640  Biso   1.000  H
  O5       1.0000 0.52130  0.75920  0.98430  Biso   1.000  O
  C17      1.0000 0.28730  0.38900  0.00300  Biso   1.000  C
  H10      1.0000 0.33570  0.40490  0.03620  Biso   1.000  H
  H11      1.0000 0.27350  0.39220  0.04540  Biso   1.000  H
  C18      1.0000 0.22930  0.49160  0.94240  Biso   1.000  C
  H12      1.0000 0.27490  0.51380  0.97980  Biso   1.000  H
  H13      1.0000 0.21240  0.48710  0.98110  Biso   1.000  H
  C19      1.0000 0.28430  0.32330  0.97700  Biso   1.000  C
  H14      1.0000 0.29720  0.31870  0.93380  Biso   1.000  H
  H15      1.0000 0.23730  0.30510  0.94820  Biso   1.000  H
  C20      1.0000 0.38900  0.25200  0.09350  Biso   1.000  C
  H16      1.0000 0.40310  0.24370  0.05460  Biso   1.000  H
  N3       1.0000 0.33870  0.29240  0.07130  Biso   1.000  N
  C21      1.0000 0.33890  0.29360  0.15440  Biso   1.000  C
  H17      1.0000 0.31060  0.31930  0.16340  Biso   1.000  H
  N4       1.0000 0.41820  0.22410  0.17590  Biso   1.000  N
  C22      1.0000 0.38760  0.25070  0.21510  Biso   1.000  C
  H18      1.0000 0.39890  0.24060  0.27430  Biso   1.000  H
  O6       1.0000 0.54450  0.83570  0.06190  Biso   1.000  O
  Zn2      1.0000 0.64340  0.16458  0.66451  Biso   1.000  Zn
  O7       1.0000 0.97480  0.38810  0.81950  Biso   1.000  O
  O8       1.0000 0.08900  0.40850  0.92090  Biso   1.000  O
  O9       1.0000 0.77720  0.17880  0.80280  Biso   1.000  O
  C23      1.0000 0.90570  0.39050  0.91300  Biso   1.000  C
  O10      1.0000 0.69030  0.24750  0.71380  Biso   1.000  O
  C24      1.0000 0.92700  0.32580  0.94110  Biso   1.000  C
  C25      1.0000 0.01170  0.45630  0.94980  Biso   1.000  C
  C26      1.0000 0.05430  0.50980  0.99410  Biso   1.000  C
  H19      1.0000 0.09190  0.51610  0.99000  Biso   1.000  H
  C27      1.0000 0.95520  0.44560  0.95620  Biso   1.000  C
  C28      1.0000 0.75450  0.23670  0.77930  Biso   1.000  C
  C29      1.0000 0.87590  0.27700  0.89800  Biso   1.000  C
  H20      1.0000 0.89000  0.23440  0.91710  Biso   1.000  H
  N5       1.0000 0.64260  0.10110  0.75000  Biso   1.000  N
  C30      1.0000 0.02650  0.41450  0.89440  Biso   1.000  C
  C31      1.0000 0.80530  0.29000  0.82780  Biso   1.000  C
  C32      1.0000 0.83500  0.40210  0.84580  Biso   1.000  C
  H21      1.0000 0.81980  0.44470  0.82960  Biso   1.000  H
  C33      1.0000 0.00090  0.30780  0.01410  Biso   1.000  C
  C34      1.0000 0.78480  0.35320  0.80050  Biso   1.000  C
  H22      1.0000 0.73760  0.36310  0.75210  Biso   1.000  H
  N6       1.0000 0.67900  0.03020  0.85950  Biso   1.000  N
  C35      1.0000 0.60740  0.02870  0.80300  Biso   1.000  C
  H23      1.0000 0.57850  0.00110  0.80840  Biso   1.000  H
  C36      1.0000 0.58570  0.07450  0.73730  Biso   1.000  C
  H24      1.0000 0.53860  0.08590  0.69050  Biso   1.000  H
  C37      1.0000 0.73890  0.92940  0.91750  Biso   1.000  C
  H25      1.0000 0.75860  0.93380  0.88210  Biso   1.000  H
  H26      1.0000 0.69300  0.90810  0.87710  Biso   1.000  H
  C38      1.0000 0.69860  0.07410  0.82290  Biso   1.000  C
  H27      1.0000 0.74540  0.08370  0.84640  Biso   1.000  H
  O11      1.0000 0.02130  0.25920  0.98430  Biso   1.000  O
  C39      1.0000 0.78730  0.88900  0.00300  Biso   1.000  C
  H28      1.0000 0.83570  0.90490  0.03620  Biso   1.000  H
  H29      1.0000 0.77350  0.89220  0.04540  Biso   1.000  H
  C40      1.0000 0.72930  0.99160  0.94240  Biso   1.000  C
  H30      1.0000 0.77490  0.01380  0.97980  Biso   1.000  H
  H31      1.0000 0.71240  0.98710  0.98110  Biso   1.000  H
  C41      1.0000 0.78430  0.82330  0.97700  Biso   1.000  C
  H32      1.0000 0.79720  0.81870  0.93380  Biso   1.000  H
  H33      1.0000 0.73730  0.80510  0.94820  Biso   1.000  H
  C42      1.0000 0.88900  0.75200  0.09350  Biso   1.000  C
  H34      1.0000 0.90310  0.74370  0.05460  Biso   1.000  H
  N7       1.0000 0.83870  0.79240  0.07130  Biso   1.000  N
  C43      1.0000 0.83890  0.79360  0.15440  Biso   1.000  C
  H35      1.0000 0.81060  0.81930  0.16340  Biso   1.000  H
  N8       1.0000 0.91820  0.72410  0.17590  Biso   1.000  N
  C44      1.0000 0.88760  0.75070  0.21510  Biso   1.000  C
  H36      1.0000 0.89890  0.74060  0.27430  Biso   1.000  H
  O12      1.0000 0.04450  0.33570  0.06190  Biso   1.000  O
  Zn3      1.0000 0.85660  0.66458  0.83549  Biso   1.000  Zn
  O13      1.0000 0.52520  0.88810  0.68050  Biso   1.000  O
  O14      1.0000 0.41100  0.90850  0.57910  Biso   1.000  O
  O15      1.0000 0.72280  0.67880  0.69720  Biso   1.000  O
  C45      1.0000 0.59430  0.89050  0.58700  Biso   1.000  C
  O16      1.0000 0.80970  0.74750  0.78620  Biso   1.000  O
  C46      1.0000 0.57300  0.82580  0.55890  Biso   1.000  C
  C47      1.0000 0.48830  0.95630  0.55020  Biso   1.000  C
  C48      1.0000 0.44570  0.00980  0.50590  Biso   1.000  C
  H37      1.0000 0.40810  0.01610  0.51000  Biso   1.000  H
  C49      1.0000 0.54480  0.94560  0.54380  Biso   1.000  C
  C50      1.0000 0.74550  0.73670  0.72070  Biso   1.000  C
  C51      1.0000 0.62410  0.77700  0.60200  Biso   1.000  C
  H38      1.0000 0.61000  0.73440  0.58290  Biso   1.000  H
  N9       1.0000 0.85740  0.60110  0.75000  Biso   1.000  N
  C52      1.0000 0.47350  0.91450  0.60560  Biso   1.000  C
  C53      1.0000 0.69470  0.79000  0.67220  Biso   1.000  C
  C54      1.0000 0.66500  0.90210  0.65420  Biso   1.000  C
  H39      1.0000 0.68020  0.94470  0.67040  Biso   1.000  H
  C55      1.0000 0.49910  0.80780  0.48590  Biso   1.000  C
  C56      1.0000 0.71520  0.85320  0.69950  Biso   1.000  C
  H40      1.0000 0.76240  0.86310  0.74790  Biso   1.000  H
  N10      1.0000 0.82100  0.53020  0.64050  Biso   1.000  N
  C57      1.0000 0.89260  0.52870  0.69700  Biso   1.000  C
  H41      1.0000 0.92150  0.50110  0.69160  Biso   1.000  H
  C58      1.0000 0.91430  0.57450  0.76270  Biso   1.000  C
  H42      1.0000 0.96140  0.58590  0.80950  Biso   1.000  H
  C59      1.0000 0.76110  0.42940  0.58250  Biso   1.000  C
  H43      1.0000 0.74140  0.43380  0.61790  Biso   1.000  H
  H44      1.0000 0.80700  0.40810  0.62290  Biso   1.000  H
  C60      1.0000 0.80140  0.57410  0.67710  Biso   1.000  C
  H45      1.0000 0.75460  0.58370  0.65360  Biso   1.000  H
  O17      1.0000 0.47870  0.75920  0.51570  Biso   1.000  O
  C61      1.0000 0.71270  0.38900  0.49700  Biso   1.000  C
  H46      1.0000 0.66430  0.40490  0.46380  Biso   1.000  H
  H47      1.0000 0.72650  0.39220  0.45460  Biso   1.000  H
  C62      1.0000 0.77070  0.49160  0.55760  Biso   1.000  C
  H48      1.0000 0.72510  0.51380  0.52020  Biso   1.000  H
  H49      1.0000 0.78760  0.48710  0.51890  Biso   1.000  H
  C63      1.0000 0.71570  0.32330  0.52300  Biso   1.000  C
  H50      1.0000 0.70280  0.31870  0.56620  Biso   1.000  H
  H51      1.0000 0.76270  0.30510  0.55180  Biso   1.000  H
  C64      1.0000 0.61100  0.25200  0.40650  Biso   1.000  C
  H52      1.0000 0.59690  0.24370  0.44540  Biso   1.000  H
  N11      1.0000 0.66130  0.29240  0.42870  Biso   1.000  N
  C65      1.0000 0.66110  0.29360  0.34560  Biso   1.000  C
  H53      1.0000 0.68940  0.31930  0.33660  Biso   1.000  H
  N12      1.0000 0.58180  0.22410  0.32410  Biso   1.000  N
  C66      1.0000 0.61240  0.25070  0.28490  Biso   1.000  C
  H54      1.0000 0.60110  0.24060  0.22570  Biso   1.000  H
  O18      1.0000 0.45550  0.83570  0.43810  Biso   1.000  O
  Zn4      1.0000 0.35660  0.16458  0.83549  Biso   1.000  Zn
  O19      1.0000 0.02520  0.38810  0.68050  Biso   1.000  O
  O20      1.0000 0.91100  0.40850  0.57910  Biso   1.000  O
  O21      1.0000 0.22280  0.17880  0.69720  Biso   1.000  O
  C67      1.0000 0.09430  0.39050  0.58700  Biso   1.000  C
  O22      1.0000 0.30970  0.24750  0.78620  Biso   1.000  O
  C68      1.0000 0.07300  0.32580  0.55890  Biso   1.000  C
  C69      1.0000 0.98830  0.45630  0.55020  Biso   1.000  C
  C70      1.0000 0.94570  0.50980  0.50590  Biso   1.000  C
  H55      1.0000 0.90810  0.51610  0.51000  Biso   1.000  H
  C71      1.0000 0.04480  0.44560  0.54380  Biso   1.000  C
  C72      1.0000 0.24550  0.23670  0.72070  Biso   1.000  C
  C73      1.0000 0.12410  0.27700  0.60200  Biso   1.000  C
  H56      1.0000 0.11000  0.23440  0.58290  Biso   1.000  H
  N13      1.0000 0.35740  0.10110  0.75000  Biso   1.000  N
  C74      1.0000 0.97350  0.41450  0.60560  Biso   1.000  C
  C75      1.0000 0.19470  0.29000  0.67220  Biso   1.000  C
  C76      1.0000 0.16500  0.40210  0.65420  Biso   1.000  C
  H57      1.0000 0.18020  0.44470  0.67040  Biso   1.000  H
  C77      1.0000 0.99910  0.30780  0.48590  Biso   1.000  C
  C78      1.0000 0.21520  0.35320  0.69950  Biso   1.000  C
  H58      1.0000 0.26240  0.36310  0.74790  Biso   1.000  H
  N14      1.0000 0.32100  0.03020  0.64050  Biso   1.000  N
  C79      1.0000 0.39260  0.02870  0.69700  Biso   1.000  C
  H59      1.0000 0.42150  0.00110  0.69160  Biso   1.000  H
  C80      1.0000 0.41430  0.07450  0.76270  Biso   1.000  C
  H60      1.0000 0.46140  0.08590  0.80950  Biso   1.000  H
  C81      1.0000 0.26110  0.92940  0.58250  Biso   1.000  C
  H61      1.0000 0.24140  0.93380  0.61790  Biso   1.000  H
  H62      1.0000 0.30700  0.90810  0.62290  Biso   1.000  H
  C82      1.0000 0.30140  0.07410  0.67710  Biso   1.000  C
  H63      1.0000 0.25460  0.08370  0.65360  Biso   1.000  H
  O23      1.0000 0.97870  0.25920  0.51570  Biso   1.000  O
  C83      1.0000 0.21270  0.88900  0.49700  Biso   1.000  C
  H64      1.0000 0.16430  0.90490  0.46380  Biso   1.000  H
  H65      1.0000 0.22650  0.89220  0.45460  Biso   1.000  H
  C84      1.0000 0.27070  0.99160  0.55760  Biso   1.000  C
  H66      1.0000 0.22510  0.01380  0.52020  Biso   1.000  H
  H67      1.0000 0.28760  0.98710  0.51890  Biso   1.000  H
  C85      1.0000 0.21570  0.82330  0.52300  Biso   1.000  C
  H68      1.0000 0.20280  0.81870  0.56620  Biso   1.000  H
  H69      1.0000 0.26270  0.80510  0.55180  Biso   1.000  H
  C86      1.0000 0.11100  0.75200  0.40650  Biso   1.000  C
  H70      1.0000 0.09690  0.74370  0.44540  Biso   1.000  H
  N15      1.0000 0.16130  0.79240  0.42870  Biso   1.000  N
  C87      1.0000 0.16110  0.79360  0.34560  Biso   1.000  C
  H71      1.0000 0.18940  0.81930  0.33660  Biso   1.000  H
  N16      1.0000 0.08180  0.72410  0.32410  Biso   1.000  N
  C88      1.0000 0.11240  0.75070  0.28490  Biso   1.000  C
  H72      1.0000 0.10110  0.74060  0.22570  Biso   1.000  H
  O24      1.0000 0.95550  0.33570  0.43810  Biso   1.000  O
  Zn5      1.0000 0.85660  0.33542  0.33549  Biso   1.000  Zn
  O25      1.0000 0.52520  0.11190  0.18050  Biso   1.000  O
  O26      1.0000 0.41100  0.09150  0.07910  Biso   1.000  O
  O27      1.0000 0.72280  0.32120  0.19720  Biso   1.000  O
  C89      1.0000 0.59430  0.10950  0.08700  Biso   1.000  C
  O28      1.0000 0.80970  0.25250  0.28620  Biso   1.000  O
  C90      1.0000 0.57300  0.17420  0.05890  Biso   1.000  C
  C91      1.0000 0.48830  0.04370  0.05020  Biso   1.000  C
  C92      1.0000 0.44570  0.99020  0.00590  Biso   1.000  C
  H73      1.0000 0.40810  0.98390  0.01000  Biso   1.000  H
  C93      1.0000 0.54480  0.05440  0.04380  Biso   1.000  C
  C94      1.0000 0.74550  0.26330  0.22070  Biso   1.000  C
  C95      1.0000 0.62410  0.22300  0.10200  Biso   1.000  C
  H74      1.0000 0.61000  0.26560  0.08290  Biso   1.000  H
  N17      1.0000 0.85740  0.39890  0.25000  Biso   1.000  N
  C96      1.0000 0.47350  0.08550  0.10560  Biso   1.000  C
  C97      1.0000 0.69470  0.21000  0.17220  Biso   1.000  C
  C98      1.0000 0.66500  0.09790  0.15420  Biso   1.000  C
  H75      1.0000 0.68020  0.05530  0.17040  Biso   1.000  H
  C99      1.0000 0.49910  0.19220  0.98590  Biso   1.000  C
  C100     1.0000 0.71520  0.14680  0.19950  Biso   1.000  C
  H76      1.0000 0.76240  0.13690  0.24790  Biso   1.000  H
  N18      1.0000 0.82100  0.46980  0.14050  Biso   1.000  N
  C101     1.0000 0.89260  0.47130  0.19700  Biso   1.000  C
  H77      1.0000 0.92150  0.49890  0.19160  Biso   1.000  H
  C102     1.0000 0.91430  0.42550  0.26270  Biso   1.000  C
  H78      1.0000 0.96140  0.41410  0.30950  Biso   1.000  H
  C103     1.0000 0.76110  0.57060  0.08250  Biso   1.000  C
  H79      1.0000 0.74140  0.56620  0.11790  Biso   1.000  H
  H80      1.0000 0.80700  0.59190  0.12290  Biso   1.000  H
  C104     1.0000 0.80140  0.42590  0.17710  Biso   1.000  C
  H81      1.0000 0.75460  0.41630  0.15360  Biso   1.000  H
  O29      1.0000 0.47870  0.24080  0.01570  Biso   1.000  O
  C105     1.0000 0.71270  0.61100  0.99700  Biso   1.000  C
  H82      1.0000 0.66430  0.59510  0.96380  Biso   1.000  H
  H83      1.0000 0.72650  0.60780  0.95460  Biso   1.000  H
  C106     1.0000 0.77070  0.50840  0.05760  Biso   1.000  C
  H84      1.0000 0.72510  0.48620  0.02020  Biso   1.000  H
  H85      1.0000 0.78760  0.51290  0.01890  Biso   1.000  H
  C107     1.0000 0.71570  0.67670  0.02300  Biso   1.000  C
  H86      1.0000 0.70280  0.68130  0.06620  Biso   1.000  H
  H87      1.0000 0.76270  0.69490  0.05180  Biso   1.000  H
  C108     1.0000 0.61100  0.74800  0.90650  Biso   1.000  C
  H88      1.0000 0.59690  0.75630  0.94540  Biso   1.000  H
  N19      1.0000 0.66130  0.70760  0.92870  Biso   1.000  N
  C109     1.0000 0.66110  0.70640  0.84560  Biso   1.000  C
  H89      1.0000 0.68940  0.68070  0.83660  Biso   1.000  H
  N20      1.0000 0.58180  0.77590  0.82410  Biso   1.000  N
  C110     1.0000 0.61240  0.74930  0.78490  Biso   1.000  C
  H90      1.0000 0.60110  0.75940  0.72570  Biso   1.000  H
  O30      1.0000 0.45550  0.16430  0.93810  Biso   1.000  O
  Zn6      1.0000 0.35660  0.83542  0.33549  Biso   1.000  Zn
  O31      1.0000 0.02520  0.61190  0.18050  Biso   1.000  O
  O32      1.0000 0.91100  0.59150  0.07910  Biso   1.000  O
  O33      1.0000 0.22280  0.82120  0.19720  Biso   1.000  O
  C111     1.0000 0.09430  0.60950  0.08700  Biso   1.000  C
  O34      1.0000 0.30970  0.75250  0.28620  Biso   1.000  O
  C112     1.0000 0.07300  0.67420  0.05890  Biso   1.000  C
  C113     1.0000 0.98830  0.54370  0.05020  Biso   1.000  C
  C114     1.0000 0.94570  0.49020  0.00590  Biso   1.000  C
  H91      1.0000 0.90810  0.48390  0.01000  Biso   1.000  H
  C115     1.0000 0.04480  0.55440  0.04380  Biso   1.000  C
  C116     1.0000 0.24550  0.76330  0.22070  Biso   1.000  C
  C117     1.0000 0.12410  0.72300  0.10200  Biso   1.000  C
  H92      1.0000 0.11000  0.76560  0.08290  Biso   1.000  H
  N21      1.0000 0.35740  0.89890  0.25000  Biso   1.000  N
  C118     1.0000 0.97350  0.58550  0.10560  Biso   1.000  C
  C119     1.0000 0.19470  0.71000  0.17220  Biso   1.000  C
  C120     1.0000 0.16500  0.59790  0.15420  Biso   1.000  C
  H93      1.0000 0.18020  0.55530  0.17040  Biso   1.000  H
  C121     1.0000 0.99910  0.69220  0.98590  Biso   1.000  C
  C122     1.0000 0.21520  0.64680  0.19950  Biso   1.000  C
  H94      1.0000 0.26240  0.63690  0.24790  Biso   1.000  H
  N22      1.0000 0.32100  0.96980  0.14050  Biso   1.000  N
  C123     1.0000 0.39260  0.97130  0.19700  Biso   1.000  C
  H95      1.0000 0.42150  0.99890  0.19160  Biso   1.000  H
  C124     1.0000 0.41430  0.92550  0.26270  Biso   1.000  C
  H96      1.0000 0.46140  0.91410  0.30950  Biso   1.000  H
  C125     1.0000 0.26110  0.07060  0.08250  Biso   1.000  C
  H97      1.0000 0.24140  0.06620  0.11790  Biso   1.000  H
  H98      1.0000 0.30700  0.09190  0.12290  Biso   1.000  H
  C126     1.0000 0.30140  0.92590  0.17710  Biso   1.000  C
  H99      1.0000 0.25460  0.91630  0.15360  Biso   1.000  H
  O35      1.0000 0.97870  0.74080  0.01570  Biso   1.000  O
  C127     1.0000 0.21270  0.11100  0.99700  Biso   1.000  C
  H100     1.0000 0.16430  0.09510  0.96380  Biso   1.000  H
  H101     1.0000 0.22650  0.10780  0.95460  Biso   1.000  H
  C128     1.0000 0.27070  0.00840  0.05760  Biso   1.000  C
  H102     1.0000 0.22510  0.98620  0.02020  Biso   1.000  H
  H103     1.0000 0.28760  0.01290  0.01890  Biso   1.000  H
  C129     1.0000 0.21570  0.17670  0.02300  Biso   1.000  C
  H104     1.0000 0.20280  0.18130  0.06620  Biso   1.000  H
  H105     1.0000 0.26270  0.19490  0.05180  Biso   1.000  H
  C130     1.0000 0.11100  0.24800  0.90650  Biso   1.000  C
  H106     1.0000 0.09690  0.25630  0.94540  Biso   1.000  H
  N23      1.0000 0.16130  0.20760  0.92870  Biso   1.000  N
  C131     1.0000 0.16110  0.20640  0.84560  Biso   1.000  C
  H107     1.0000 0.18940  0.18070  0.83660  Biso   1.000  H
  N24      1.0000 0.08180  0.27590  0.82410  Biso   1.000  N
  C132     1.0000 0.11240  0.24930  0.78490  Biso   1.000  C
  H108     1.0000 0.10110  0.25940  0.72570  Biso   1.000  H
  O36      1.0000 0.95550  0.66430  0.93810  Biso   1.000  O
  Zn7      1.0000 0.14340  0.33542  0.16451  Biso   1.000  Zn
  O37      1.0000 0.47480  0.11190  0.31950  Biso   1.000  O
  O38      1.0000 0.58900  0.09150  0.42090  Biso   1.000  O
  O39      1.0000 0.27720  0.32120  0.30280  Biso   1.000  O
  C133     1.0000 0.40570  0.10950  0.41300  Biso   1.000  C
  O40      1.0000 0.19030  0.25250  0.21380  Biso   1.000  O
  C134     1.0000 0.42700  0.17420  0.44110  Biso   1.000  C
  C135     1.0000 0.51170  0.04370  0.44980  Biso   1.000  C
  C136     1.0000 0.55430  0.99020  0.49410  Biso   1.000  C
  H109     1.0000 0.59190  0.98390  0.49000  Biso   1.000  H
  C137     1.0000 0.45520  0.05440  0.45620  Biso   1.000  C
  C138     1.0000 0.25450  0.26330  0.27930  Biso   1.000  C
  C139     1.0000 0.37590  0.22300  0.39800  Biso   1.000  C
  H110     1.0000 0.39000  0.26560  0.41710  Biso   1.000  H
  N25      1.0000 0.14260  0.39890  0.25000  Biso   1.000  N
  C140     1.0000 0.52650  0.08550  0.39440  Biso   1.000  C
  C141     1.0000 0.30530  0.21000  0.32780  Biso   1.000  C
  C142     1.0000 0.33500  0.09790  0.34580  Biso   1.000  C
  H111     1.0000 0.31980  0.05530  0.32960  Biso   1.000  H
  C143     1.0000 0.50090  0.19220  0.51410  Biso   1.000  C
  C144     1.0000 0.28480  0.14680  0.30050  Biso   1.000  C
  H112     1.0000 0.23760  0.13690  0.25210  Biso   1.000  H
  N26      1.0000 0.17900  0.46980  0.35950  Biso   1.000  N
  C145     1.0000 0.10740  0.47130  0.30300  Biso   1.000  C
  H113     1.0000 0.07850  0.49890  0.30840  Biso   1.000  H
  C146     1.0000 0.08570  0.42550  0.23730  Biso   1.000  C
  H114     1.0000 0.03860  0.41410  0.19050  Biso   1.000  H
  C147     1.0000 0.23890  0.57060  0.41750  Biso   1.000  C
  H115     1.0000 0.25860  0.56620  0.38210  Biso   1.000  H
  H116     1.0000 0.19300  0.59190  0.37710  Biso   1.000  H
  C148     1.0000 0.19860  0.42590  0.32290  Biso   1.000  C
  H117     1.0000 0.24540  0.41630  0.34640  Biso   1.000  H
  O41      1.0000 0.52130  0.24080  0.48430  Biso   1.000  O
  C149     1.0000 0.28730  0.61100  0.50300  Biso   1.000  C
  H118     1.0000 0.33570  0.59510  0.53620  Biso   1.000  H
  H119     1.0000 0.27350  0.60780  0.54540  Biso   1.000  H
  C150     1.0000 0.22930  0.50840  0.44240  Biso   1.000  C
  H120     1.0000 0.27490  0.48620  0.47980  Biso   1.000  H
  H121     1.0000 0.21240  0.51290  0.48110  Biso   1.000  H
  C151     1.0000 0.28430  0.67670  0.47700  Biso   1.000  C
  H122     1.0000 0.29720  0.68130  0.43380  Biso   1.000  H
  H123     1.0000 0.23730  0.69490  0.44820  Biso   1.000  H
  C152     1.0000 0.38900  0.74800  0.59350  Biso   1.000  C
  H124     1.0000 0.40310  0.75630  0.55460  Biso   1.000  H
  N27      1.0000 0.33870  0.70760  0.57130  Biso   1.000  N
  C153     1.0000 0.33890  0.70640  0.65440  Biso   1.000  C
  H125     1.0000 0.31060  0.68070  0.66340  Biso   1.000  H
  N28      1.0000 0.41820  0.77590  0.67590  Biso   1.000  N
  C154     1.0000 0.38760  0.74930  0.71510  Biso   1.000  C
  H126     1.0000 0.39890  0.75940  0.77430  Biso   1.000  H
  O42      1.0000 0.54450  0.16430  0.56190  Biso   1.000  O
  Zn8      1.0000 0.64340  0.83542  0.16451  Biso   1.000  Zn
  O43      1.0000 0.97480  0.61190  0.31950  Biso   1.000  O
  O44      1.0000 0.08900  0.59150  0.42090  Biso   1.000  O
  O45      1.0000 0.77720  0.82120  0.30280  Biso   1.000  O
  C155     1.0000 0.90570  0.60950  0.41300  Biso   1.000  C
  O46      1.0000 0.69030  0.75250  0.21380  Biso   1.000  O
  C156     1.0000 0.92700  0.67420  0.44110  Biso   1.000  C
  C157     1.0000 0.01170  0.54370  0.44980  Biso   1.000  C
  C158     1.0000 0.05430  0.49020  0.49410  Biso   1.000  C
  H127     1.0000 0.09190  0.48390  0.49000  Biso   1.000  H
  C159     1.0000 0.95520  0.55440  0.45620  Biso   1.000  C
  C160     1.0000 0.75450  0.76330  0.27930  Biso   1.000  C
  C161     1.0000 0.87590  0.72300  0.39800  Biso   1.000  C
  H128     1.0000 0.89000  0.76560  0.41710  Biso   1.000  H
  N29      1.0000 0.64260  0.89890  0.25000  Biso   1.000  N
  C162     1.0000 0.02650  0.58550  0.39440  Biso   1.000  C
  C163     1.0000 0.80530  0.71000  0.32780  Biso   1.000  C
  C164     1.0000 0.83500  0.59790  0.34580  Biso   1.000  C
  H129     1.0000 0.81980  0.55530  0.32960  Biso   1.000  H
  C165     1.0000 0.00090  0.69220  0.51410  Biso   1.000  C
  C166     1.0000 0.78480  0.64680  0.30050  Biso   1.000  C
  H130     1.0000 0.73760  0.63690  0.25210  Biso   1.000  H
  N30      1.0000 0.67900  0.96980  0.35950  Biso   1.000  N
  C167     1.0000 0.60740  0.97130  0.30300  Biso   1.000  C
  H131     1.0000 0.57850  0.99890  0.30840  Biso   1.000  H
  C168     1.0000 0.58570  0.92550  0.23730  Biso   1.000  C
  H132     1.0000 0.53860  0.91410  0.19050  Biso   1.000  H
  C169     1.0000 0.73890  0.07060  0.41750  Biso   1.000  C
  H133     1.0000 0.75860  0.06620  0.38210  Biso   1.000  H
  H134     1.0000 0.69300  0.09190  0.37710  Biso   1.000  H
  C170     1.0000 0.69860  0.92590  0.32290  Biso   1.000  C
  H135     1.0000 0.74540  0.91630  0.34640  Biso   1.000  H
  O47      1.0000 0.02130  0.74080  0.48430  Biso   1.000  O
  C171     1.0000 0.78730  0.11100  0.50300  Biso   1.000  C
  H136     1.0000 0.83570  0.09510  0.53620  Biso   1.000  H
  H137     1.0000 0.77350  0.10780  0.54540  Biso   1.000  H
  C172     1.0000 0.72930  0.00840  0.44240  Biso   1.000  C
  H138     1.0000 0.77490  0.98620  0.47980  Biso   1.000  H
  H139     1.0000 0.71240  0.01290  0.48110  Biso   1.000  H
  C173     1.0000 0.78430  0.17670  0.47700  Biso   1.000  C
  H140     1.0000 0.79720  0.18130  0.43380  Biso   1.000  H
  H141     1.0000 0.73730  0.19490  0.44820  Biso   1.000  H
  C174     1.0000 0.88900  0.24800  0.59350  Biso   1.000  C
  H142     1.0000 0.90310  0.25630  0.55460  Biso   1.000  H
  N31      1.0000 0.83870  0.20760  0.57130  Biso   1.000  N
  C175     1.0000 0.83890  0.20640  0.65440  Biso   1.000  C
  H143     1.0000 0.81060  0.18070  0.66340  Biso   1.000  H
  N32      1.0000 0.91820  0.27590  0.67590  Biso   1.000  N
  C176     1.0000 0.88760  0.24930  0.71510  Biso   1.000  C
  H144     1.0000 0.89890  0.25940  0.77430  Biso   1.000  H
  O48      1.0000 0.04450  0.66430  0.56190  Biso   1.000  O
  Zn9      1.0000 0.50000  0.83744  0.75000  Biso   1.000  Zn
  Zn10     1.0000 0.00000  0.33744  0.75000  Biso   1.000  Zn
  Zn11     1.0000 0.50000  0.16256  0.25000  Biso   1.000  Zn
  Zn12     1.0000 0.00000  0.66256  0.25000  Biso   1.000  Zn
