data_image0
_cell_length_a       10.7228
_cell_length_b       16.774
_cell_length_c       19.6191
_cell_angle_alpha    90
_cell_angle_beta     120.924
_cell_angle_gamma    90

_symmetry_space_group_name_H-M    "P 1"
_symmetry_int_tables_number       1

loop_
  _symmetry_equiv_pos_as_xyz
  'x, y, z'

loop_
  _atom_site_label
  _atom_site_occupancy
  _atom_site_fract_x
  _atom_site_fract_y
  _atom_site_fract_z
  _atom_site_thermal_displace_type
  _atom_site_B_iso_or_equiv
  _atom_site_type_symbol
  C1       1.0000 0.63720  0.19210  0.26840  Biso   1.000  C
  H1       1.0000 0.67330  0.24090  0.26380  Biso   1.000  H
  C2       1.0000 0.51480  0.10370  0.28760  Biso   1.000  C
  H2       1.0000 0.44800  0.07990  0.29790  Biso   1.000  H
  C3       1.0000 0.61060  0.06410  0.27440  Biso   1.000  C
  H3       1.0000 0.62250  0.00920  0.27480  Biso   1.000  H
  C4       1.0000 0.81400  0.10720  0.25310  Biso   1.000  C
  H4       1.0000 0.84350  0.05210  0.26730  Biso   1.000  H
  H5       1.0000 0.89270  0.14030  0.29200  Biso   1.000  H
  C5       1.0000 0.79770  0.12300  0.17150  Biso   1.000  C
  C6       1.0000 0.66730  0.07730  0.10360  Biso   1.000  C
  H6       1.0000 0.57930  0.09520  0.10150  Biso   1.000  H
  H7       1.0000 0.65950  0.09210  0.05380  Biso   1.000  H
  C7       1.0000 0.59970  0.94440  0.13300  Biso   1.000  C
  H8       1.0000 0.53650  0.96390  0.14830  Biso   1.000  H
  C8       1.0000 0.72410  0.86520  0.10550  Biso   1.000  C
  H9       1.0000 0.76500  0.81890  0.09930  Biso   1.000  H
  C9       1.0000 0.75020  0.93940  0.08980  Biso   1.000  C
  H10      1.0000 0.80890  0.95340  0.06960  Biso   1.000  H
  C10      1.0000 0.93930  0.09380  0.17660  Biso   1.000  C
  H11      1.0000 0.94300  0.03610  0.18080  Biso   1.000  H
  H12      1.0000 0.93480  0.10750  0.12740  Biso   1.000  H
  C11      1.0000 0.15060  0.09820  0.31970  Biso   1.000  C
  H13      1.0000 0.12310  0.05640  0.34040  Biso   1.000  H
  C12      1.0000 0.15560  0.18520  0.23940  Biso   1.000  C
  H14      1.0000 0.12960  0.21410  0.19350  Biso   1.000  H
  C13      1.0000 0.76980  0.21300  0.15250  Biso   1.000  C
  H15      1.0000 0.68920  0.22910  0.15860  Biso   1.000  H
  H16      1.0000 0.85500  0.24220  0.19150  Biso   1.000  H
  C14      1.0000 0.83080  0.26250  0.05010  Biso   1.000  C
  H17      1.0000 0.93030  0.27070  0.08260  Biso   1.000  H
  C15      1.0000 0.75040  0.27380  0.97110  Biso   1.000  C
  H18      1.0000 0.78650  0.29130  0.93950  Biso   1.000  H
  C16      1.0000 0.60330  0.23510  0.00750  Biso   1.000  C
  H19      1.0000 0.51920  0.22130  0.00740  Biso   1.000  H
  Co1      1.0000 0.44620  0.27470  0.32310  Biso   1.000  Co
  N1       1.0000 0.53150  0.18400  0.28330  Biso   1.000  N
  N2       1.0000 0.68680  0.12120  0.26040  Biso   1.000  N
  N3       1.0000 0.07480  0.12640  0.24320  Biso   1.000  N
  C17      1.0000 0.27520  0.19770  0.30760  Biso   1.000  C
  H20      1.0000 0.34640  0.23550  0.31850  Biso   1.000  H
  N4       1.0000 0.73720  0.23640  0.07320  Biso   1.000  N
  N5       1.0000 0.60650  0.25580  0.94360  Biso   1.000  N
  N6       1.0000 0.67280  0.99040  0.10940  Biso   1.000  N
  N7       1.0000 0.62820  0.86820  0.13200  Biso   1.000  N
  N8       1.0000 0.27390  0.14300  0.35980  Biso   1.000  N
  C18      1.0000 0.36280  0.69210  0.23160  Biso   1.000  C
  H21      1.0000 0.32670  0.74090  0.23620  Biso   1.000  H
  C19      1.0000 0.48520  0.60370  0.21240  Biso   1.000  C
  H22      1.0000 0.55200  0.57990  0.20210  Biso   1.000  H
  C20      1.0000 0.38940  0.56410  0.22560  Biso   1.000  C
  H23      1.0000 0.37750  0.50920  0.22520  Biso   1.000  H
  C21      1.0000 0.18600  0.60720  0.24690  Biso   1.000  C
  H24      1.0000 0.15650  0.55210  0.23270  Biso   1.000  H
  H25      1.0000 0.10730  0.64030  0.20800  Biso   1.000  H
  C22      1.0000 0.20230  0.62300  0.32850  Biso   1.000  C
  C23      1.0000 0.33270  0.57730  0.39640  Biso   1.000  C
  H26      1.0000 0.42070  0.59520  0.39850  Biso   1.000  H
  H27      1.0000 0.34050  0.59210  0.44620  Biso   1.000  H
  C24      1.0000 0.40030  0.44440  0.36700  Biso   1.000  C
  H28      1.0000 0.46350  0.46390  0.35170  Biso   1.000  H
  C25      1.0000 0.27590  0.36520  0.39450  Biso   1.000  C
  H29      1.0000 0.23500  0.31890  0.40070  Biso   1.000  H
  C26      1.0000 0.24980  0.43940  0.41020  Biso   1.000  C
  H30      1.0000 0.19110  0.45340  0.43040  Biso   1.000  H
  C27      1.0000 0.06070  0.59380  0.32340  Biso   1.000  C
  H31      1.0000 0.05700  0.53610  0.31920  Biso   1.000  H
  H32      1.0000 0.06520  0.60750  0.37260  Biso   1.000  H
  C28      1.0000 0.84940  0.59820  0.18030  Biso   1.000  C
  H33      1.0000 0.87690  0.55640  0.15960  Biso   1.000  H
  C29      1.0000 0.84440  0.68520  0.26060  Biso   1.000  C
  H34      1.0000 0.87040  0.71410  0.30650  Biso   1.000  H
  C30      1.0000 0.23020  0.71300  0.34750  Biso   1.000  C
  H35      1.0000 0.31080  0.72910  0.34140  Biso   1.000  H
  H36      1.0000 0.14500  0.74220  0.30850  Biso   1.000  H
  C31      1.0000 0.16920  0.76250  0.44990  Biso   1.000  C
  H37      1.0000 0.06970  0.77070  0.41740  Biso   1.000  H
  C32      1.0000 0.24960  0.77380  0.52890  Biso   1.000  C
  H38      1.0000 0.21350  0.79130  0.56050  Biso   1.000  H
  C33      1.0000 0.39670  0.73510  0.49250  Biso   1.000  C
  H39      1.0000 0.48080  0.72130  0.49260  Biso   1.000  H
  Co2      1.0000 0.55380  0.77470  0.17690  Biso   1.000  Co
  N9       1.0000 0.46850  0.68400  0.21670  Biso   1.000  N
  N10      1.0000 0.31320  0.62120  0.23960  Biso   1.000  N
  N11      1.0000 0.92520  0.62640  0.25680  Biso   1.000  N
  C34      1.0000 0.72480  0.69770  0.19240  Biso   1.000  C
  H40      1.0000 0.65360  0.73550  0.18150  Biso   1.000  H
  N12      1.0000 0.26280  0.73640  0.42680  Biso   1.000  N
  N13      1.0000 0.39350  0.75580  0.55640  Biso   1.000  N
  N14      1.0000 0.32720  0.49040  0.39060  Biso   1.000  N
  N15      1.0000 0.37180  0.36820  0.36800  Biso   1.000  N
  N16      1.0000 0.72610  0.64300  0.14020  Biso   1.000  N
  C35      1.0000 0.36280  0.80790  0.73160  Biso   1.000  C
  H41      1.0000 0.32670  0.75910  0.73620  Biso   1.000  H
  C36      1.0000 0.48520  0.89630  0.71240  Biso   1.000  C
  H42      1.0000 0.55200  0.92010  0.70210  Biso   1.000  H
  C37      1.0000 0.38940  0.93590  0.72560  Biso   1.000  C
  H43      1.0000 0.37750  0.99080  0.72520  Biso   1.000  H
  C38      1.0000 0.18600  0.89280  0.74690  Biso   1.000  C
  H44      1.0000 0.15650  0.94790  0.73270  Biso   1.000  H
  H45      1.0000 0.10730  0.85970  0.70800  Biso   1.000  H
  C39      1.0000 0.20230  0.87700  0.82850  Biso   1.000  C
  C40      1.0000 0.33270  0.92270  0.89640  Biso   1.000  C
  H46      1.0000 0.42070  0.90480  0.89850  Biso   1.000  H
  H47      1.0000 0.34050  0.90790  0.94620  Biso   1.000  H
  C41      1.0000 0.40030  0.05560  0.86700  Biso   1.000  C
  H48      1.0000 0.46350  0.03610  0.85170  Biso   1.000  H
  C42      1.0000 0.27590  0.13480  0.89450  Biso   1.000  C
  H49      1.0000 0.23500  0.18110  0.90070  Biso   1.000  H
  C43      1.0000 0.24980  0.06060  0.91020  Biso   1.000  C
  H50      1.0000 0.19110  0.04660  0.93040  Biso   1.000  H
  C44      1.0000 0.06070  0.90620  0.82340  Biso   1.000  C
  H51      1.0000 0.05700  0.96390  0.81920  Biso   1.000  H
  H52      1.0000 0.06520  0.89250  0.87260  Biso   1.000  H
  C45      1.0000 0.84940  0.90180  0.68030  Biso   1.000  C
  H53      1.0000 0.87690  0.94360  0.65960  Biso   1.000  H
  C46      1.0000 0.84440  0.81480  0.76060  Biso   1.000  C
  H54      1.0000 0.87040  0.78590  0.80650  Biso   1.000  H
  C47      1.0000 0.23020  0.78700  0.84750  Biso   1.000  C
  H55      1.0000 0.31080  0.77090  0.84140  Biso   1.000  H
  H56      1.0000 0.14500  0.75780  0.80850  Biso   1.000  H
  C48      1.0000 0.16920  0.73750  0.94990  Biso   1.000  C
  H57      1.0000 0.06970  0.72930  0.91740  Biso   1.000  H
  C49      1.0000 0.24960  0.72620  0.02890  Biso   1.000  C
  H58      1.0000 0.21350  0.70870  0.06050  Biso   1.000  H
  C50      1.0000 0.39670  0.76490  0.99250  Biso   1.000  C
  H59      1.0000 0.48080  0.77870  0.99260  Biso   1.000  H
  Co3      1.0000 0.55380  0.72530  0.67690  Biso   1.000  Co
  N17      1.0000 0.46850  0.81600  0.71670  Biso   1.000  N
  N18      1.0000 0.31320  0.87880  0.73960  Biso   1.000  N
  N19      1.0000 0.92520  0.87360  0.75680  Biso   1.000  N
  C51      1.0000 0.72480  0.80230  0.69240  Biso   1.000  C
  H60      1.0000 0.65360  0.76450  0.68150  Biso   1.000  H
  N20      1.0000 0.26280  0.76360  0.92680  Biso   1.000  N
  N21      1.0000 0.39350  0.74420  0.05640  Biso   1.000  N
  N22      1.0000 0.32720  0.00960  0.89060  Biso   1.000  N
  N23      1.0000 0.37180  0.13180  0.86800  Biso   1.000  N
  N24      1.0000 0.72610  0.85700  0.64020  Biso   1.000  N
  C52      1.0000 0.63720  0.30790  0.76840  Biso   1.000  C
  H61      1.0000 0.67330  0.25910  0.76380  Biso   1.000  H
  C53      1.0000 0.51480  0.39630  0.78760  Biso   1.000  C
  H62      1.0000 0.44800  0.42010  0.79790  Biso   1.000  H
  C54      1.0000 0.61060  0.43590  0.77440  Biso   1.000  C
  H63      1.0000 0.62250  0.49080  0.77480  Biso   1.000  H
  C55      1.0000 0.81400  0.39280  0.75310  Biso   1.000  C
  H64      1.0000 0.84350  0.44790  0.76730  Biso   1.000  H
  H65      1.0000 0.89270  0.35970  0.79200  Biso   1.000  H
  C56      1.0000 0.79770  0.37700  0.67150  Biso   1.000  C
  C57      1.0000 0.66730  0.42270  0.60360  Biso   1.000  C
  H66      1.0000 0.57930  0.40480  0.60150  Biso   1.000  H
  H67      1.0000 0.65950  0.40790  0.55380  Biso   1.000  H
  C58      1.0000 0.59970  0.55560  0.63300  Biso   1.000  C
  H68      1.0000 0.53650  0.53610  0.64830  Biso   1.000  H
  C59      1.0000 0.72410  0.63480  0.60550  Biso   1.000  C
  H69      1.0000 0.76500  0.68110  0.59930  Biso   1.000  H
  C60      1.0000 0.75020  0.56060  0.58980  Biso   1.000  C
  H70      1.0000 0.80890  0.54660  0.56960  Biso   1.000  H
  C61      1.0000 0.93930  0.40620  0.67660  Biso   1.000  C
  H71      1.0000 0.94300  0.46390  0.68080  Biso   1.000  H
  H72      1.0000 0.93480  0.39250  0.62740  Biso   1.000  H
  C62      1.0000 0.15060  0.40180  0.81970  Biso   1.000  C
  H73      1.0000 0.12310  0.44360  0.84040  Biso   1.000  H
  C63      1.0000 0.15560  0.31480  0.73940  Biso   1.000  C
  H74      1.0000 0.12960  0.28590  0.69350  Biso   1.000  H
  C64      1.0000 0.76980  0.28700  0.65250  Biso   1.000  C
  H75      1.0000 0.68920  0.27090  0.65860  Biso   1.000  H
  H76      1.0000 0.85500  0.25780  0.69150  Biso   1.000  H
  C65      1.0000 0.83080  0.23750  0.55010  Biso   1.000  C
  H77      1.0000 0.93030  0.22930  0.58260  Biso   1.000  H
  C66      1.0000 0.75040  0.22620  0.47110  Biso   1.000  C
  H78      1.0000 0.78650  0.20870  0.43950  Biso   1.000  H
  C67      1.0000 0.60330  0.26490  0.50750  Biso   1.000  C
  H79      1.0000 0.51920  0.27870  0.50740  Biso   1.000  H
  Co4      1.0000 0.44620  0.22530  0.82310  Biso   1.000  Co
  N25      1.0000 0.53150  0.31600  0.78330  Biso   1.000  N
  N26      1.0000 0.68680  0.37880  0.76040  Biso   1.000  N
  N27      1.0000 0.07480  0.37360  0.74320  Biso   1.000  N
  C68      1.0000 0.27520  0.30230  0.80760  Biso   1.000  C
  H80      1.0000 0.34640  0.26450  0.81850  Biso   1.000  H
  N28      1.0000 0.73720  0.26360  0.57320  Biso   1.000  N
  N29      1.0000 0.60650  0.24420  0.44360  Biso   1.000  N
  N30      1.0000 0.67280  0.50960  0.60940  Biso   1.000  N
  N31      1.0000 0.62820  0.63180  0.63200  Biso   1.000  N
  N32      1.0000 0.27390  0.35700  0.85980  Biso   1.000  N
