data_image0
_cell_length_a       7.696
_cell_length_b       21.222
_cell_length_c       19.668
_cell_angle_alpha    90
_cell_angle_beta     97.801
_cell_angle_gamma    90

_symmetry_space_group_name_H-M    "P 1"
_symmetry_int_tables_number       1

loop_
  _symmetry_equiv_pos_as_xyz
  'x, y, z'

loop_
  _atom_site_label
  _atom_site_occupancy
  _atom_site_fract_x
  _atom_site_fract_y
  _atom_site_fract_z
  _atom_site_thermal_displace_type
  _atom_site_B_iso_or_equiv
  _atom_site_type_symbol
  Ce1      1.0000 0.00903  0.22313  0.24502  Biso   1.000  Ce
  C1       1.0000 0.28310  0.21470  0.36870  Biso   1.000  C
  C2       1.0000 0.39670  0.21480  0.43600  Biso   1.000  C
  C3       1.0000 0.44390  0.15740  0.46900  Biso   1.000  C
  N1       1.0000 0.36600  0.10020  0.44680  Biso   1.000  N
  N2       1.0000 0.39600  0.32540  0.44140  Biso   1.000  N
  C4       1.0000 0.44870  0.27150  0.46800  Biso   1.000  C
  C5       1.0000 0.74490  0.18920  0.12370  Biso   1.000  C
  C6       1.0000 0.62060  0.17730  0.05990  Biso   1.000  C
  C7       1.0000 0.68260  0.17460  0.99620  Biso   1.000  C
  C8       1.0000 0.44220  0.17550  0.06270  Biso   1.000  C
  H1       1.0000 0.40340  0.17490  0.10550  Biso   1.000  H
  N3       1.0000 0.85100  0.15990  0.99060  Biso   1.000  N
  C9       1.0000 0.88770  0.36460  0.24970  Biso   1.000  C
  C10      1.0000 0.87790  0.43490  0.25050  Biso   1.000  C
  C11      1.0000 0.75440  0.46700  0.20330  Biso   1.000  C
  C12      1.0000 0.99470  0.46740  0.29840  Biso   1.000  C
  N4       1.0000 0.63100  0.44380  0.14980  Biso   1.000  N
  N5       1.0000 0.12800  0.43970  0.33810  Biso   1.000  N
  O1       1.0000 0.86860  0.11660  0.26560  Biso   1.000  O
  H2       1.0000 0.83060  0.09330  0.23160  Biso   1.000  H
  H3       1.0000 0.97800  0.10810  0.27390  Biso   1.000  H
  O2       1.0000 0.17180  0.17220  0.35340  Biso   1.000  O
  O3       1.0000 0.29630  0.26010  0.32690  Biso   1.000  O
  O4       1.0000 0.68440  0.20920  0.17730  Biso   1.000  O
  O5       1.0000 0.90680  0.18130  0.12560  Biso   1.000  O
  O6       1.0000 0.76880  0.33300  0.21390  Biso   1.000  O
  O7       1.0000 0.01720  0.33820  0.28290  Biso   1.000  O
  Ce2      1.0000 0.50903  0.72313  0.24502  Biso   1.000  Ce
  C13      1.0000 0.78310  0.71470  0.36870  Biso   1.000  C
  C14      1.0000 0.89670  0.71480  0.43600  Biso   1.000  C
  C15      1.0000 0.94390  0.65740  0.46900  Biso   1.000  C
  N6       1.0000 0.86600  0.60020  0.44680  Biso   1.000  N
  N7       1.0000 0.89600  0.82540  0.44140  Biso   1.000  N
  C16      1.0000 0.94870  0.77150  0.46800  Biso   1.000  C
  C17      1.0000 0.24490  0.68920  0.12370  Biso   1.000  C
  C18      1.0000 0.12060  0.67730  0.05990  Biso   1.000  C
  C19      1.0000 0.18260  0.67460  0.99620  Biso   1.000  C
  C20      1.0000 0.94220  0.67550  0.06270  Biso   1.000  C
  H4       1.0000 0.90340  0.67490  0.10550  Biso   1.000  H
  N8       1.0000 0.35100  0.65990  0.99060  Biso   1.000  N
  C21      1.0000 0.38770  0.86460  0.24970  Biso   1.000  C
  C22      1.0000 0.37790  0.93490  0.25050  Biso   1.000  C
  C23      1.0000 0.25440  0.96700  0.20330  Biso   1.000  C
  C24      1.0000 0.49470  0.96740  0.29840  Biso   1.000  C
  N9       1.0000 0.13100  0.94380  0.14980  Biso   1.000  N
  N10      1.0000 0.62800  0.93970  0.33810  Biso   1.000  N
  O8       1.0000 0.36860  0.61660  0.26560  Biso   1.000  O
  H5       1.0000 0.33060  0.59330  0.23160  Biso   1.000  H
  H6       1.0000 0.47800  0.60810  0.27390  Biso   1.000  H
  O9       1.0000 0.67180  0.67220  0.35340  Biso   1.000  O
  O10      1.0000 0.79630  0.76010  0.32690  Biso   1.000  O
  O11      1.0000 0.18440  0.70920  0.17730  Biso   1.000  O
  O12      1.0000 0.40680  0.68130  0.12560  Biso   1.000  O
  O13      1.0000 0.26880  0.83300  0.21390  Biso   1.000  O
  O14      1.0000 0.51720  0.83820  0.28290  Biso   1.000  O
  Ce3      1.0000 0.99097  0.22313  0.75498  Biso   1.000  Ce
  C25      1.0000 0.71690  0.21470  0.63130  Biso   1.000  C
  C26      1.0000 0.60330  0.21480  0.56400  Biso   1.000  C
  C27      1.0000 0.55610  0.15740  0.53100  Biso   1.000  C
  N11      1.0000 0.63400  0.10020  0.55320  Biso   1.000  N
  N12      1.0000 0.60400  0.32540  0.55860  Biso   1.000  N
  C28      1.0000 0.55130  0.27150  0.53200  Biso   1.000  C
  C29      1.0000 0.25510  0.18920  0.87630  Biso   1.000  C
  C30      1.0000 0.37940  0.17730  0.94010  Biso   1.000  C
  C31      1.0000 0.31740  0.17460  0.00380  Biso   1.000  C
  C32      1.0000 0.55780  0.17550  0.93730  Biso   1.000  C
  H7       1.0000 0.59660  0.17490  0.89450  Biso   1.000  H
  N13      1.0000 0.14900  0.15990  0.00940  Biso   1.000  N
  C33      1.0000 0.11230  0.36460  0.75030  Biso   1.000  C
  C34      1.0000 0.12210  0.43490  0.74950  Biso   1.000  C
  C35      1.0000 0.24560  0.46700  0.79670  Biso   1.000  C
  C36      1.0000 0.00530  0.46740  0.70160  Biso   1.000  C
  N14      1.0000 0.36900  0.44380  0.85020  Biso   1.000  N
  N15      1.0000 0.87200  0.43970  0.66190  Biso   1.000  N
  O15      1.0000 0.13140  0.11660  0.73440  Biso   1.000  O
  H8       1.0000 0.16940  0.09330  0.76840  Biso   1.000  H
  H9       1.0000 0.02200  0.10810  0.72610  Biso   1.000  H
  O16      1.0000 0.82820  0.17220  0.64660  Biso   1.000  O
  O17      1.0000 0.70370  0.26010  0.67310  Biso   1.000  O
  O18      1.0000 0.31560  0.20920  0.82270  Biso   1.000  O
  O19      1.0000 0.09320  0.18130  0.87440  Biso   1.000  O
  O20      1.0000 0.23120  0.33300  0.78610  Biso   1.000  O
  O21      1.0000 0.98280  0.33820  0.71710  Biso   1.000  O
  Ce4      1.0000 0.49097  0.72313  0.75498  Biso   1.000  Ce
  C37      1.0000 0.21690  0.71470  0.63130  Biso   1.000  C
  C38      1.0000 0.10330  0.71480  0.56400  Biso   1.000  C
  C39      1.0000 0.05610  0.65740  0.53100  Biso   1.000  C
  N16      1.0000 0.13400  0.60020  0.55320  Biso   1.000  N
  N17      1.0000 0.10400  0.82540  0.55860  Biso   1.000  N
  C40      1.0000 0.05130  0.77150  0.53200  Biso   1.000  C
  C41      1.0000 0.75510  0.68920  0.87630  Biso   1.000  C
  C42      1.0000 0.87940  0.67730  0.94010  Biso   1.000  C
  C43      1.0000 0.81740  0.67460  0.00380  Biso   1.000  C
  C44      1.0000 0.05780  0.67550  0.93730  Biso   1.000  C
  H10      1.0000 0.09660  0.67490  0.89450  Biso   1.000  H
  N18      1.0000 0.64900  0.65990  0.00940  Biso   1.000  N
  C45      1.0000 0.61230  0.86460  0.75030  Biso   1.000  C
  C46      1.0000 0.62210  0.93490  0.74950  Biso   1.000  C
  C47      1.0000 0.74560  0.96700  0.79670  Biso   1.000  C
  C48      1.0000 0.50530  0.96740  0.70160  Biso   1.000  C
  N19      1.0000 0.86900  0.94380  0.85020  Biso   1.000  N
  N20      1.0000 0.37200  0.93970  0.66190  Biso   1.000  N
  O22      1.0000 0.63140  0.61660  0.73440  Biso   1.000  O
  H11      1.0000 0.66940  0.59330  0.76840  Biso   1.000  H
  H12      1.0000 0.52200  0.60810  0.72610  Biso   1.000  H
  O23      1.0000 0.32820  0.67220  0.64660  Biso   1.000  O
  O24      1.0000 0.20370  0.76010  0.67310  Biso   1.000  O
  O25      1.0000 0.81560  0.70920  0.82270  Biso   1.000  O
  O26      1.0000 0.59320  0.68130  0.87440  Biso   1.000  O
  O27      1.0000 0.73120  0.83300  0.78610  Biso   1.000  O
  O28      1.0000 0.48280  0.83820  0.71710  Biso   1.000  O
  Ce5      1.0000 0.99097  0.77687  0.75498  Biso   1.000  Ce
  C49      1.0000 0.71690  0.78530  0.63130  Biso   1.000  C
  C50      1.0000 0.60330  0.78520  0.56400  Biso   1.000  C
  C51      1.0000 0.55610  0.84260  0.53100  Biso   1.000  C
  N21      1.0000 0.63400  0.89980  0.55320  Biso   1.000  N
  N22      1.0000 0.60400  0.67460  0.55860  Biso   1.000  N
  C52      1.0000 0.55130  0.72850  0.53200  Biso   1.000  C
  C53      1.0000 0.25510  0.81080  0.87630  Biso   1.000  C
  C54      1.0000 0.37940  0.82270  0.94010  Biso   1.000  C
  C55      1.0000 0.31740  0.82540  0.00380  Biso   1.000  C
  C56      1.0000 0.55780  0.82450  0.93730  Biso   1.000  C
  H13      1.0000 0.59660  0.82510  0.89450  Biso   1.000  H
  N23      1.0000 0.14900  0.84010  0.00940  Biso   1.000  N
  C57      1.0000 0.11230  0.63540  0.75030  Biso   1.000  C
  C58      1.0000 0.12210  0.56510  0.74950  Biso   1.000  C
  C59      1.0000 0.24560  0.53300  0.79670  Biso   1.000  C
  C60      1.0000 0.00530  0.53260  0.70160  Biso   1.000  C
  N24      1.0000 0.36900  0.55620  0.85020  Biso   1.000  N
  N25      1.0000 0.87200  0.56030  0.66190  Biso   1.000  N
  O29      1.0000 0.13140  0.88340  0.73440  Biso   1.000  O
  H14      1.0000 0.16940  0.90670  0.76840  Biso   1.000  H
  H15      1.0000 0.02200  0.89190  0.72610  Biso   1.000  H
  O30      1.0000 0.82820  0.82780  0.64660  Biso   1.000  O
  O31      1.0000 0.70370  0.73990  0.67310  Biso   1.000  O
  O32      1.0000 0.31560  0.79080  0.82270  Biso   1.000  O
  O33      1.0000 0.09320  0.81870  0.87440  Biso   1.000  O
  O34      1.0000 0.23120  0.66700  0.78610  Biso   1.000  O
  O35      1.0000 0.98280  0.66180  0.71710  Biso   1.000  O
  Ce6      1.0000 0.49097  0.27687  0.75498  Biso   1.000  Ce
  C61      1.0000 0.21690  0.28530  0.63130  Biso   1.000  C
  C62      1.0000 0.10330  0.28520  0.56400  Biso   1.000  C
  C63      1.0000 0.05610  0.34260  0.53100  Biso   1.000  C
  N26      1.0000 0.13400  0.39980  0.55320  Biso   1.000  N
  N27      1.0000 0.10400  0.17460  0.55860  Biso   1.000  N
  C64      1.0000 0.05130  0.22850  0.53200  Biso   1.000  C
  C65      1.0000 0.75510  0.31080  0.87630  Biso   1.000  C
  C66      1.0000 0.87940  0.32270  0.94010  Biso   1.000  C
  C67      1.0000 0.81740  0.32540  0.00380  Biso   1.000  C
  C68      1.0000 0.05780  0.32450  0.93730  Biso   1.000  C
  H16      1.0000 0.09660  0.32510  0.89450  Biso   1.000  H
  N28      1.0000 0.64900  0.34010  0.00940  Biso   1.000  N
  C69      1.0000 0.61230  0.13540  0.75030  Biso   1.000  C
  C70      1.0000 0.62210  0.06510  0.74950  Biso   1.000  C
  C71      1.0000 0.74560  0.03300  0.79670  Biso   1.000  C
  C72      1.0000 0.50530  0.03260  0.70160  Biso   1.000  C
  N29      1.0000 0.86900  0.05620  0.85020  Biso   1.000  N
  N30      1.0000 0.37200  0.06030  0.66190  Biso   1.000  N
  O36      1.0000 0.63140  0.38340  0.73440  Biso   1.000  O
  H17      1.0000 0.66940  0.40670  0.76840  Biso   1.000  H
  H18      1.0000 0.52200  0.39190  0.72610  Biso   1.000  H
  O37      1.0000 0.32820  0.32780  0.64660  Biso   1.000  O
  O38      1.0000 0.20370  0.23990  0.67310  Biso   1.000  O
  O39      1.0000 0.81560  0.29080  0.82270  Biso   1.000  O
  O40      1.0000 0.59320  0.31870  0.87440  Biso   1.000  O
  O41      1.0000 0.73120  0.16700  0.78610  Biso   1.000  O
  O42      1.0000 0.48280  0.16180  0.71710  Biso   1.000  O
  Ce7      1.0000 0.00903  0.77687  0.24502  Biso   1.000  Ce
  C73      1.0000 0.28310  0.78530  0.36870  Biso   1.000  C
  C74      1.0000 0.39670  0.78520  0.43600  Biso   1.000  C
  C75      1.0000 0.44390  0.84260  0.46900  Biso   1.000  C
  N31      1.0000 0.36600  0.89980  0.44680  Biso   1.000  N
  N32      1.0000 0.39600  0.67460  0.44140  Biso   1.000  N
  C76      1.0000 0.44870  0.72850  0.46800  Biso   1.000  C
  C77      1.0000 0.74490  0.81080  0.12370  Biso   1.000  C
  C78      1.0000 0.62060  0.82270  0.05990  Biso   1.000  C
  C79      1.0000 0.68260  0.82540  0.99620  Biso   1.000  C
  C80      1.0000 0.44220  0.82450  0.06270  Biso   1.000  C
  H19      1.0000 0.40340  0.82510  0.10550  Biso   1.000  H
  N33      1.0000 0.85100  0.84010  0.99060  Biso   1.000  N
  C81      1.0000 0.88770  0.63540  0.24970  Biso   1.000  C
  C82      1.0000 0.87790  0.56510  0.25050  Biso   1.000  C
  C83      1.0000 0.75440  0.53300  0.20330  Biso   1.000  C
  C84      1.0000 0.99470  0.53260  0.29840  Biso   1.000  C
  N34      1.0000 0.63100  0.55620  0.14980  Biso   1.000  N
  N35      1.0000 0.12800  0.56030  0.33810  Biso   1.000  N
  O43      1.0000 0.86860  0.88340  0.26560  Biso   1.000  O
  H20      1.0000 0.83060  0.90670  0.23160  Biso   1.000  H
  H21      1.0000 0.97800  0.89190  0.27390  Biso   1.000  H
  O44      1.0000 0.17180  0.82780  0.35340  Biso   1.000  O
  O45      1.0000 0.29630  0.73990  0.32690  Biso   1.000  O
  O46      1.0000 0.68440  0.79080  0.17730  Biso   1.000  O
  O47      1.0000 0.90680  0.81870  0.12560  Biso   1.000  O
  O48      1.0000 0.76880  0.66700  0.21390  Biso   1.000  O
  O49      1.0000 0.01720  0.66180  0.28290  Biso   1.000  O
  Ce8      1.0000 0.50903  0.27687  0.24502  Biso   1.000  Ce
  C85      1.0000 0.78310  0.28530  0.36870  Biso   1.000  C
  C86      1.0000 0.89670  0.28520  0.43600  Biso   1.000  C
  C87      1.0000 0.94390  0.34260  0.46900  Biso   1.000  C
  N36      1.0000 0.86600  0.39980  0.44680  Biso   1.000  N
  N37      1.0000 0.89600  0.17460  0.44140  Biso   1.000  N
  C88      1.0000 0.94870  0.22850  0.46800  Biso   1.000  C
  C89      1.0000 0.24490  0.31080  0.12370  Biso   1.000  C
  C90      1.0000 0.12060  0.32270  0.05990  Biso   1.000  C
  C91      1.0000 0.18260  0.32540  0.99620  Biso   1.000  C
  C92      1.0000 0.94220  0.32450  0.06270  Biso   1.000  C
  H22      1.0000 0.90340  0.32510  0.10550  Biso   1.000  H
  N38      1.0000 0.35100  0.34010  0.99060  Biso   1.000  N
  C93      1.0000 0.38770  0.13540  0.24970  Biso   1.000  C
  C94      1.0000 0.37790  0.06510  0.25050  Biso   1.000  C
  C95      1.0000 0.25440  0.03300  0.20330  Biso   1.000  C
  C96      1.0000 0.49470  0.03260  0.29840  Biso   1.000  C
  N39      1.0000 0.13100  0.05620  0.14980  Biso   1.000  N
  N40      1.0000 0.62800  0.06030  0.33810  Biso   1.000  N
  O50      1.0000 0.36860  0.38340  0.26560  Biso   1.000  O
  H23      1.0000 0.33060  0.40670  0.23160  Biso   1.000  H
  H24      1.0000 0.47800  0.39190  0.27390  Biso   1.000  H
  O51      1.0000 0.67180  0.32780  0.35340  Biso   1.000  O
  O52      1.0000 0.79630  0.23990  0.32690  Biso   1.000  O
  O53      1.0000 0.18440  0.29080  0.17730  Biso   1.000  O
  O54      1.0000 0.40680  0.31870  0.12560  Biso   1.000  O
  O55      1.0000 0.26880  0.16700  0.21390  Biso   1.000  O
  O56      1.0000 0.51720  0.16180  0.28290  Biso   1.000  O
