data_image0
_cell_length_a       7.6391
_cell_length_b       21.127
_cell_length_c       19.578
_cell_angle_alpha    90
_cell_angle_beta     98.306
_cell_angle_gamma    90

_symmetry_space_group_name_H-M    "P 1"
_symmetry_int_tables_number       1

loop_
  _symmetry_equiv_pos_as_xyz
  'x, y, z'

loop_
  _atom_site_label
  _atom_site_occupancy
  _atom_site_fract_x
  _atom_site_fract_y
  _atom_site_fract_z
  _atom_site_thermal_displace_type
  _atom_site_B_iso_or_equiv
  _atom_site_type_symbol
  Pr1      1.0000 0.98920  0.27663  0.25526  Biso   1.000  Pr
  O1       1.0000 0.82810  0.32661  0.14707  Biso   1.000  O
  O2       1.0000 0.70060  0.23927  0.17447  Biso   1.000  O
  C1       1.0000 0.71640  0.28440  0.13170  Biso   1.000  C
  C2       1.0000 0.60200  0.28480  0.06400  Biso   1.000  C
  C3       1.0000 0.55290  0.34130  0.03200  Biso   1.000  C
  C4       1.0000 0.54840  0.22820  0.03200  Biso   1.000  C
  O3       1.0000 0.31570  0.28991  0.32307  Biso   1.000  O
  O4       1.0000 0.09160  0.31790  0.37393  Biso   1.000  O
  C5       1.0000 0.25560  0.31070  0.37620  Biso   1.000  C
  C6       1.0000 0.37860  0.32230  0.43990  Biso   1.000  C
  C7       1.0000 0.55830  0.32450  0.43720  Biso   1.000  C
  H1       1.0000 0.59740  0.32530  0.39440  Biso   1.000  H
  C8       1.0000 0.31750  0.32540  0.50330  Biso   1.000  C
  O5       1.0000 0.23270  0.16728  0.28596  Biso   1.000  O
  O6       1.0000 0.98200  0.16238  0.21770  Biso   1.000  O
  C9       1.0000 0.11150  0.13550  0.25050  Biso   1.000  C
  C10      1.0000 0.12110  0.06560  0.24990  Biso   1.000  C
  C11      1.0000 0.24090  0.03310  0.29720  Biso   1.000  C
  C12      1.0000 0.00460  0.03190  0.20240  Biso   1.000  C
  N1       1.0000 0.63300  0.40040  0.05230  Biso   1.000  N
  N2       1.0000 0.59800  0.17660  0.05640  Biso   1.000  N
  N3       1.0000 0.36100  0.05740  0.34970  Biso   1.000  N
  N4       1.0000 0.88000  0.05980  0.16080  Biso   1.000  N
  N5       1.0000 0.14800  0.33880  0.50920  Biso   1.000  N
  Pr2      1.0000 0.48920  0.77663  0.25526  Biso   1.000  Pr
  O7       1.0000 0.32810  0.82661  0.14707  Biso   1.000  O
  O8       1.0000 0.20060  0.73927  0.17447  Biso   1.000  O
  C13      1.0000 0.21640  0.78440  0.13170  Biso   1.000  C
  C14      1.0000 0.10200  0.78480  0.06400  Biso   1.000  C
  C15      1.0000 0.05290  0.84130  0.03200  Biso   1.000  C
  C16      1.0000 0.04840  0.72820  0.03200  Biso   1.000  C
  O9       1.0000 0.81570  0.78991  0.32307  Biso   1.000  O
  O10      1.0000 0.59160  0.81790  0.37393  Biso   1.000  O
  C17      1.0000 0.75560  0.81070  0.37620  Biso   1.000  C
  C18      1.0000 0.87860  0.82230  0.43990  Biso   1.000  C
  C19      1.0000 0.05830  0.82450  0.43720  Biso   1.000  C
  H2       1.0000 0.09740  0.82530  0.39440  Biso   1.000  H
  C20      1.0000 0.81750  0.82540  0.50330  Biso   1.000  C
  O11      1.0000 0.73270  0.66728  0.28596  Biso   1.000  O
  O12      1.0000 0.48200  0.66238  0.21770  Biso   1.000  O
  C21      1.0000 0.61150  0.63550  0.25050  Biso   1.000  C
  C22      1.0000 0.62110  0.56560  0.24990  Biso   1.000  C
  C23      1.0000 0.74090  0.53310  0.29720  Biso   1.000  C
  C24      1.0000 0.50460  0.53190  0.20240  Biso   1.000  C
  N6       1.0000 0.13300  0.90040  0.05230  Biso   1.000  N
  N7       1.0000 0.09800  0.67660  0.05640  Biso   1.000  N
  N8       1.0000 0.86100  0.55740  0.34970  Biso   1.000  N
  N9       1.0000 0.38000  0.55980  0.16080  Biso   1.000  N
  N10      1.0000 0.64800  0.83880  0.50920  Biso   1.000  N
  Pr3      1.0000 0.01080  0.27663  0.74474  Biso   1.000  Pr
  O13      1.0000 0.17190  0.32661  0.85293  Biso   1.000  O
  O14      1.0000 0.29940  0.23927  0.82553  Biso   1.000  O
  C25      1.0000 0.28360  0.28440  0.86830  Biso   1.000  C
  C26      1.0000 0.39800  0.28480  0.93600  Biso   1.000  C
  C27      1.0000 0.44710  0.34130  0.96800  Biso   1.000  C
  C28      1.0000 0.45160  0.22820  0.96800  Biso   1.000  C
  O15      1.0000 0.68430  0.28991  0.67693  Biso   1.000  O
  O16      1.0000 0.90840  0.31790  0.62607  Biso   1.000  O
  C29      1.0000 0.74440  0.31070  0.62380  Biso   1.000  C
  C30      1.0000 0.62140  0.32230  0.56010  Biso   1.000  C
  C31      1.0000 0.44170  0.32450  0.56280  Biso   1.000  C
  H3       1.0000 0.40260  0.32530  0.60560  Biso   1.000  H
  C32      1.0000 0.68250  0.32540  0.49670  Biso   1.000  C
  O17      1.0000 0.76730  0.16728  0.71404  Biso   1.000  O
  O18      1.0000 0.01800  0.16238  0.78230  Biso   1.000  O
  C33      1.0000 0.88850  0.13550  0.74950  Biso   1.000  C
  C34      1.0000 0.87890  0.06560  0.75010  Biso   1.000  C
  C35      1.0000 0.75910  0.03310  0.70280  Biso   1.000  C
  C36      1.0000 0.99540  0.03190  0.79760  Biso   1.000  C
  N11      1.0000 0.36700  0.40040  0.94770  Biso   1.000  N
  N12      1.0000 0.40200  0.17660  0.94360  Biso   1.000  N
  N13      1.0000 0.63900  0.05740  0.65030  Biso   1.000  N
  N14      1.0000 0.12000  0.05980  0.83920  Biso   1.000  N
  N15      1.0000 0.85200  0.33880  0.49080  Biso   1.000  N
  Pr4      1.0000 0.51080  0.77663  0.74474  Biso   1.000  Pr
  O19      1.0000 0.67190  0.82661  0.85293  Biso   1.000  O
  O20      1.0000 0.79940  0.73927  0.82553  Biso   1.000  O
  C37      1.0000 0.78360  0.78440  0.86830  Biso   1.000  C
  C38      1.0000 0.89800  0.78480  0.93600  Biso   1.000  C
  C39      1.0000 0.94710  0.84130  0.96800  Biso   1.000  C
  C40      1.0000 0.95160  0.72820  0.96800  Biso   1.000  C
  O21      1.0000 0.18430  0.78991  0.67693  Biso   1.000  O
  O22      1.0000 0.40840  0.81790  0.62607  Biso   1.000  O
  C41      1.0000 0.24440  0.81070  0.62380  Biso   1.000  C
  C42      1.0000 0.12140  0.82230  0.56010  Biso   1.000  C
  C43      1.0000 0.94170  0.82450  0.56280  Biso   1.000  C
  H4       1.0000 0.90260  0.82530  0.60560  Biso   1.000  H
  C44      1.0000 0.18250  0.82540  0.49670  Biso   1.000  C
  O23      1.0000 0.26730  0.66728  0.71404  Biso   1.000  O
  O24      1.0000 0.51800  0.66238  0.78230  Biso   1.000  O
  C45      1.0000 0.38850  0.63550  0.74950  Biso   1.000  C
  C46      1.0000 0.37890  0.56560  0.75010  Biso   1.000  C
  C47      1.0000 0.25910  0.53310  0.70280  Biso   1.000  C
  C48      1.0000 0.49540  0.53190  0.79760  Biso   1.000  C
  N16      1.0000 0.86700  0.90040  0.94770  Biso   1.000  N
  N17      1.0000 0.90200  0.67660  0.94360  Biso   1.000  N
  N18      1.0000 0.13900  0.55740  0.65030  Biso   1.000  N
  N19      1.0000 0.62000  0.55980  0.83920  Biso   1.000  N
  N20      1.0000 0.35200  0.83880  0.49080  Biso   1.000  N
  Pr5      1.0000 0.01080  0.72337  0.74474  Biso   1.000  Pr
  O25      1.0000 0.17190  0.67339  0.85293  Biso   1.000  O
  O26      1.0000 0.29940  0.76073  0.82553  Biso   1.000  O
  C49      1.0000 0.28360  0.71560  0.86830  Biso   1.000  C
  C50      1.0000 0.39800  0.71520  0.93600  Biso   1.000  C
  C51      1.0000 0.44710  0.65870  0.96800  Biso   1.000  C
  C52      1.0000 0.45160  0.77180  0.96800  Biso   1.000  C
  O27      1.0000 0.68430  0.71009  0.67693  Biso   1.000  O
  O28      1.0000 0.90840  0.68210  0.62607  Biso   1.000  O
  C53      1.0000 0.74440  0.68930  0.62380  Biso   1.000  C
  C54      1.0000 0.62140  0.67770  0.56010  Biso   1.000  C
  C55      1.0000 0.44170  0.67550  0.56280  Biso   1.000  C
  H5       1.0000 0.40260  0.67470  0.60560  Biso   1.000  H
  C56      1.0000 0.68250  0.67460  0.49670  Biso   1.000  C
  O29      1.0000 0.76730  0.83272  0.71404  Biso   1.000  O
  O30      1.0000 0.01800  0.83762  0.78230  Biso   1.000  O
  C57      1.0000 0.88850  0.86450  0.74950  Biso   1.000  C
  C58      1.0000 0.87890  0.93440  0.75010  Biso   1.000  C
  C59      1.0000 0.75910  0.96690  0.70280  Biso   1.000  C
  C60      1.0000 0.99540  0.96810  0.79760  Biso   1.000  C
  N21      1.0000 0.36700  0.59960  0.94770  Biso   1.000  N
  N22      1.0000 0.40200  0.82340  0.94360  Biso   1.000  N
  N23      1.0000 0.63900  0.94260  0.65030  Biso   1.000  N
  N24      1.0000 0.12000  0.94020  0.83920  Biso   1.000  N
  N25      1.0000 0.85200  0.66120  0.49080  Biso   1.000  N
  Pr6      1.0000 0.51080  0.22337  0.74474  Biso   1.000  Pr
  O31      1.0000 0.67190  0.17339  0.85293  Biso   1.000  O
  O32      1.0000 0.79940  0.26073  0.82553  Biso   1.000  O
  C61      1.0000 0.78360  0.21560  0.86830  Biso   1.000  C
  C62      1.0000 0.89800  0.21520  0.93600  Biso   1.000  C
  C63      1.0000 0.94710  0.15870  0.96800  Biso   1.000  C
  C64      1.0000 0.95160  0.27180  0.96800  Biso   1.000  C
  O33      1.0000 0.18430  0.21009  0.67693  Biso   1.000  O
  O34      1.0000 0.40840  0.18210  0.62607  Biso   1.000  O
  C65      1.0000 0.24440  0.18930  0.62380  Biso   1.000  C
  C66      1.0000 0.12140  0.17770  0.56010  Biso   1.000  C
  C67      1.0000 0.94170  0.17550  0.56280  Biso   1.000  C
  H6       1.0000 0.90260  0.17470  0.60560  Biso   1.000  H
  C68      1.0000 0.18250  0.17460  0.49670  Biso   1.000  C
  O35      1.0000 0.26730  0.33272  0.71404  Biso   1.000  O
  O36      1.0000 0.51800  0.33762  0.78230  Biso   1.000  O
  C69      1.0000 0.38850  0.36450  0.74950  Biso   1.000  C
  C70      1.0000 0.37890  0.43440  0.75010  Biso   1.000  C
  C71      1.0000 0.25910  0.46690  0.70280  Biso   1.000  C
  C72      1.0000 0.49540  0.46810  0.79760  Biso   1.000  C
  N26      1.0000 0.86700  0.09960  0.94770  Biso   1.000  N
  N27      1.0000 0.90200  0.32340  0.94360  Biso   1.000  N
  N28      1.0000 0.13900  0.44260  0.65030  Biso   1.000  N
  N29      1.0000 0.62000  0.44020  0.83920  Biso   1.000  N
  N30      1.0000 0.35200  0.16120  0.49080  Biso   1.000  N
  Pr7      1.0000 0.98920  0.72337  0.25526  Biso   1.000  Pr
  O37      1.0000 0.82810  0.67339  0.14707  Biso   1.000  O
  O38      1.0000 0.70060  0.76073  0.17447  Biso   1.000  O
  C73      1.0000 0.71640  0.71560  0.13170  Biso   1.000  C
  C74      1.0000 0.60200  0.71520  0.06400  Biso   1.000  C
  C75      1.0000 0.55290  0.65870  0.03200  Biso   1.000  C
  C76      1.0000 0.54840  0.77180  0.03200  Biso   1.000  C
  O39      1.0000 0.31570  0.71009  0.32307  Biso   1.000  O
  O40      1.0000 0.09160  0.68210  0.37393  Biso   1.000  O
  C77      1.0000 0.25560  0.68930  0.37620  Biso   1.000  C
  C78      1.0000 0.37860  0.67770  0.43990  Biso   1.000  C
  C79      1.0000 0.55830  0.67550  0.43720  Biso   1.000  C
  H7       1.0000 0.59740  0.67470  0.39440  Biso   1.000  H
  C80      1.0000 0.31750  0.67460  0.50330  Biso   1.000  C
  O41      1.0000 0.23270  0.83272  0.28596  Biso   1.000  O
  O42      1.0000 0.98200  0.83762  0.21770  Biso   1.000  O
  C81      1.0000 0.11150  0.86450  0.25050  Biso   1.000  C
  C82      1.0000 0.12110  0.93440  0.24990  Biso   1.000  C
  C83      1.0000 0.24090  0.96690  0.29720  Biso   1.000  C
  C84      1.0000 0.00460  0.96810  0.20240  Biso   1.000  C
  N31      1.0000 0.63300  0.59960  0.05230  Biso   1.000  N
  N32      1.0000 0.59800  0.82340  0.05640  Biso   1.000  N
  N33      1.0000 0.36100  0.94260  0.34970  Biso   1.000  N
  N34      1.0000 0.88000  0.94020  0.16080  Biso   1.000  N
  N35      1.0000 0.14800  0.66120  0.50920  Biso   1.000  N
  Pr8      1.0000 0.48920  0.22337  0.25526  Biso   1.000  Pr
  O43      1.0000 0.32810  0.17339  0.14707  Biso   1.000  O
  O44      1.0000 0.20060  0.26073  0.17447  Biso   1.000  O
  C85      1.0000 0.21640  0.21560  0.13170  Biso   1.000  C
  C86      1.0000 0.10200  0.21520  0.06400  Biso   1.000  C
  C87      1.0000 0.05290  0.15870  0.03200  Biso   1.000  C
  C88      1.0000 0.04840  0.27180  0.03200  Biso   1.000  C
  O45      1.0000 0.81570  0.21009  0.32307  Biso   1.000  O
  O46      1.0000 0.59160  0.18210  0.37393  Biso   1.000  O
  C89      1.0000 0.75560  0.18930  0.37620  Biso   1.000  C
  C90      1.0000 0.87860  0.17770  0.43990  Biso   1.000  C
  C91      1.0000 0.05830  0.17550  0.43720  Biso   1.000  C
  H8       1.0000 0.09740  0.17470  0.39440  Biso   1.000  H
  C92      1.0000 0.81750  0.17460  0.50330  Biso   1.000  C
  O47      1.0000 0.73270  0.33272  0.28596  Biso   1.000  O
  O48      1.0000 0.48200  0.33762  0.21770  Biso   1.000  O
  C93      1.0000 0.61150  0.36450  0.25050  Biso   1.000  C
  C94      1.0000 0.62110  0.43440  0.24990  Biso   1.000  C
  C95      1.0000 0.74090  0.46690  0.29720  Biso   1.000  C
  C96      1.0000 0.50460  0.46810  0.20240  Biso   1.000  C
  N36      1.0000 0.13300  0.09960  0.05230  Biso   1.000  N
  N37      1.0000 0.09800  0.32340  0.05640  Biso   1.000  N
  N38      1.0000 0.86100  0.44260  0.34970  Biso   1.000  N
  N39      1.0000 0.38000  0.44020  0.16080  Biso   1.000  N
  N40      1.0000 0.64800  0.16120  0.50920  Biso   1.000  N
