data_image0
_cell_length_a       7.3181
_cell_length_b       29.042
_cell_length_c       23.593
_cell_angle_alpha    90
_cell_angle_beta     91.721
_cell_angle_gamma    90

_symmetry_space_group_name_H-M    "P 1"
_symmetry_int_tables_number       1

loop_
  _symmetry_equiv_pos_as_xyz
  'x, y, z'

loop_
  _atom_site_label
  _atom_site_occupancy
  _atom_site_fract_x
  _atom_site_fract_y
  _atom_site_fract_z
  _atom_site_thermal_displace_type
  _atom_site_B_iso_or_equiv
  _atom_site_type_symbol
  C1       1.0000 0.77850  0.71122  0.16395  Biso   1.000  C
  C2       1.0000 0.87210  0.67875  0.20449  Biso   1.000  C
  C3       1.0000 0.05560  0.68478  0.22054  Biso   1.000  C
  H1       1.0000 0.12170  0.70890  0.20540  Biso   1.000  H
  C4       1.0000 0.13980  0.65496  0.25890  Biso   1.000  C
  H2       1.0000 0.26150  0.65970  0.26990  Biso   1.000  H
  C5       1.0000 0.04440  0.61783  0.28130  Biso   1.000  C
  C6       1.0000 0.86340  0.61187  0.26432  Biso   1.000  C
  H3       1.0000 0.79790  0.58720  0.27850  Biso   1.000  H
  C7       1.0000 0.77800  0.64203  0.22650  Biso   1.000  C
  H4       1.0000 0.65600  0.63750  0.21580  Biso   1.000  H
  C8       1.0000 0.14790  0.58595  0.32337  Biso   1.000  C
  C9       1.0000 0.01570  0.55297  0.35406  Biso   1.000  C
  C10      1.0000 0.28210  0.55669  0.28849  Biso   1.000  C
  C11      1.0000 0.24650  0.61408  0.37091  Biso   1.000  C
  C12      1.0000 0.15240  0.65154  0.39309  Biso   1.000  C
  H5       1.0000 0.03860  0.65970  0.37760  Biso   1.000  H
  C13      1.0000 0.22760  0.67657  0.43794  Biso   1.000  C
  H6       1.0000 0.16260  0.70110  0.45260  Biso   1.000  H
  C14      1.0000 0.39750  0.66569  0.46127  Biso   1.000  C
  C15      1.0000 0.49280  0.62893  0.43863  Biso   1.000  C
  H7       1.0000 0.60860  0.62160  0.45330  Biso   1.000  H
  C16      1.0000 0.41670  0.60313  0.39444  Biso   1.000  C
  H8       1.0000 0.48080  0.57810  0.38040  Biso   1.000  H
  C17      1.0000 0.47700  0.69229  0.51053  Biso   1.000  C
  C18      1.0000 0.44430  0.80185  0.16695  Biso   1.000  C
  C19      1.0000 0.35980  0.82793  0.21446  Biso   1.000  C
  C20      1.0000 0.19260  0.81510  0.23580  Biso   1.000  C
  H9       1.0000 0.12930  0.79020  0.22020  Biso   1.000  H
  C21      1.0000 0.12010  0.83936  0.28035  Biso   1.000  C
  H10      1.0000 0.00940  0.83000  0.29500  Biso   1.000  H
  C22      1.0000 0.20940  0.87725  0.30350  Biso   1.000  C
  C23      1.0000 0.37560  0.89041  0.28177  Biso   1.000  C
  H11      1.0000 0.43730  0.91590  0.29660  Biso   1.000  H
  C24      1.0000 0.44890  0.86564  0.23804  Biso   1.000  C
  H12      1.0000 0.56100  0.87450  0.22410  Biso   1.000  H
  C25      1.0000 0.11140  0.90556  0.34948  Biso   1.000  C
  C26      1.0000 0.24740  0.93541  0.38617  Biso   1.000  C
  C27      1.0000 0.97930  0.93825  0.31693  Biso   1.000  C
  C28      1.0000 0.01410  0.87409  0.39120  Biso   1.000  C
  C29      1.0000 0.11250  0.83719  0.41529  Biso   1.000  C
  H13      1.0000 0.23140  0.83170  0.40430  Biso   1.000  H
  C30      1.0000 0.03550  0.80873  0.45524  Biso   1.000  C
  H14      1.0000 0.10330  0.78470  0.47130  Biso   1.000  H
  C31      1.0000 0.85760  0.81620  0.47122  Biso   1.000  C
  C32      1.0000 0.76010  0.85257  0.44756  Biso   1.000  C
  H15      1.0000 0.64040  0.85770  0.45820  Biso   1.000  H
  C33      1.0000 0.83730  0.88132  0.40858  Biso   1.000  C
  H16      1.0000 0.76990  0.90590  0.39370  Biso   1.000  H
  C34      1.0000 0.77170  0.78641  0.51532  Biso   1.000  C
  C35      1.0000 0.08330  0.85893  0.07750  Biso   1.000  C
  H17      1.0000 0.12720  0.84290  0.04660  Biso   1.000  H
  C36      1.0000 0.92970  0.87774  0.14847  Biso   1.000  C
  H18      1.0000 0.84300  0.87710  0.17650  Biso   1.000  H
  C37      1.0000 0.05650  0.91087  0.14269  Biso   1.000  C
  H19      1.0000 0.07380  0.93660  0.16570  Biso   1.000  H
  C38      1.0000 0.29860  0.92511  0.07276  Biso   1.000  C
  C39      1.0000 0.47830  0.91936  0.08054  Biso   1.000  C
  H20      1.0000 0.53070  0.89680  0.10380  Biso   1.000  H
  C40      1.0000 0.58040  0.95151  0.04945  Biso   1.000  C
  H21      1.0000 0.70750  0.95230  0.04990  Biso   1.000  H
  C41      1.0000 0.47300  0.98129  0.01871  Biso   1.000  C
  C42      1.0000 0.04710  0.60530  0.08600  Biso   1.000  C
  H22      1.0000 0.92290  0.61590  0.08670  Biso   1.000  H
  H23      1.0000 0.07350  0.58680  0.11900  Biso   1.000  H
  H24      1.0000 0.06390  0.58720  0.05250  Biso   1.000  H
  C43      1.0000 0.17760  0.64720  0.08580  Biso   1.000  C
  Cu1      1.0000 0.76402  0.78893  0.09261  Biso   1.000  Cu
  Cu2      1.0000 0.47225  0.73205  0.08769  Biso   1.000  Cu
  F1       1.0000 0.88450  0.57521  0.37948  Biso   1.000  F
  F2       1.0000 0.93680  0.52204  0.31879  Biso   1.000  F
  F3       1.0000 0.10550  0.52817  0.39432  Biso   1.000  F
  F4       1.0000 0.19870  0.53942  0.24203  Biso   1.000  F
  F5       1.0000 0.35290  0.52065  0.31691  Biso   1.000  F
  F6       1.0000 0.42100  0.58155  0.27129  Biso   1.000  F
  F7       1.0000 0.16480  0.95262  0.43111  Biso   1.000  F
  F8       1.0000 0.31420  0.97114  0.35803  Biso   1.000  F
  F9       1.0000 0.38930  0.91112  0.40532  Biso   1.000  F
  F10      1.0000 0.06360  0.96098  0.27606  Biso   1.000  F
  F11      1.0000 0.90530  0.97018  0.35019  Biso   1.000  F
  F12      1.0000 0.84170  0.91540  0.29203  Biso   1.000  F
  N1       1.0000 0.94690  0.84514  0.10706  Biso   1.000  N
  N2       1.0000 0.15460  0.89929  0.09657  Biso   1.000  N
  N3       1.0000 0.25610  0.68058  0.08428  Biso   1.000  N
  O1       1.0000 0.85980  0.74779  0.15187  Biso   1.000  O
  O2       1.0000 0.62460  0.69865  0.14427  Biso   1.000  O
  O3       1.0000 0.37920  0.72378  0.53005  Biso   1.000  O
  O4       1.0000 0.63250  0.68059  0.52944  Biso   1.000  O
  O5       1.0000 0.59220  0.81720  0.14883  Biso   1.000  O
  O6       1.0000 0.36240  0.76666  0.14893  Biso   1.000  O
  O7       1.0000 0.86530  0.75386  0.53602  Biso   1.000  O
  O8       1.0000 0.61080  0.79702  0.52823  Biso   1.000  O
  S1       1.0000 0.24476  0.96978  0.02746  Biso   1.000  S
  C44      1.0000 0.22150  0.21122  0.33605  Biso   1.000  C
  C45      1.0000 0.12790  0.17875  0.29551  Biso   1.000  C
  C46      1.0000 0.94440  0.18478  0.27946  Biso   1.000  C
  H25      1.0000 0.87830  0.20890  0.29460  Biso   1.000  H
  C47      1.0000 0.86020  0.15496  0.24110  Biso   1.000  C
  H26      1.0000 0.73850  0.15970  0.23010  Biso   1.000  H
  C48      1.0000 0.95560  0.11783  0.21870  Biso   1.000  C
  C49      1.0000 0.13660  0.11187  0.23568  Biso   1.000  C
  H27      1.0000 0.20210  0.08720  0.22150  Biso   1.000  H
  C50      1.0000 0.22200  0.14203  0.27350  Biso   1.000  C
  H28      1.0000 0.34400  0.13750  0.28420  Biso   1.000  H
  C51      1.0000 0.85210  0.08595  0.17663  Biso   1.000  C
  C52      1.0000 0.98430  0.05297  0.14594  Biso   1.000  C
  C53      1.0000 0.71790  0.05669  0.21151  Biso   1.000  C
  C54      1.0000 0.75350  0.11408  0.12909  Biso   1.000  C
  C55      1.0000 0.84760  0.15154  0.10691  Biso   1.000  C
  H29      1.0000 0.96140  0.15970  0.12240  Biso   1.000  H
  C56      1.0000 0.77240  0.17657  0.06206  Biso   1.000  C
  H30      1.0000 0.83740  0.20110  0.04740  Biso   1.000  H
  C57      1.0000 0.60250  0.16569  0.03873  Biso   1.000  C
  C58      1.0000 0.50720  0.12893  0.06137  Biso   1.000  C
  H31      1.0000 0.39140  0.12160  0.04670  Biso   1.000  H
  C59      1.0000 0.58330  0.10313  0.10556  Biso   1.000  C
  H32      1.0000 0.51920  0.07810  0.11960  Biso   1.000  H
  C60      1.0000 0.52300  0.19229  0.98947  Biso   1.000  C
  C61      1.0000 0.55570  0.30185  0.33305  Biso   1.000  C
  C62      1.0000 0.64020  0.32793  0.28554  Biso   1.000  C
  C63      1.0000 0.80740  0.31510  0.26420  Biso   1.000  C
  H33      1.0000 0.87070  0.29020  0.27980  Biso   1.000  H
  C64      1.0000 0.87990  0.33936  0.21965  Biso   1.000  C
  H34      1.0000 0.99060  0.33000  0.20500  Biso   1.000  H
  C65      1.0000 0.79060  0.37725  0.19650  Biso   1.000  C
  C66      1.0000 0.62440  0.39041  0.21823  Biso   1.000  C
  H35      1.0000 0.56270  0.41590  0.20340  Biso   1.000  H
  C67      1.0000 0.55110  0.36564  0.26196  Biso   1.000  C
  H36      1.0000 0.43900  0.37450  0.27590  Biso   1.000  H
  C68      1.0000 0.88860  0.40556  0.15052  Biso   1.000  C
  C69      1.0000 0.75260  0.43541  0.11383  Biso   1.000  C
  C70      1.0000 0.02070  0.43825  0.18307  Biso   1.000  C
  C71      1.0000 0.98590  0.37409  0.10880  Biso   1.000  C
  C72      1.0000 0.88750  0.33719  0.08471  Biso   1.000  C
  H37      1.0000 0.76860  0.33170  0.09570  Biso   1.000  H
  C73      1.0000 0.96450  0.30873  0.04476  Biso   1.000  C
  H38      1.0000 0.89670  0.28470  0.02870  Biso   1.000  H
  C74      1.0000 0.14240  0.31620  0.02878  Biso   1.000  C
  C75      1.0000 0.23990  0.35257  0.05244  Biso   1.000  C
  H39      1.0000 0.35960  0.35770  0.04180  Biso   1.000  H
  C76      1.0000 0.16270  0.38132  0.09142  Biso   1.000  C
  H40      1.0000 0.23010  0.40590  0.10630  Biso   1.000  H
  C77      1.0000 0.22830  0.28641  0.98468  Biso   1.000  C
  C78      1.0000 0.91670  0.35893  0.42250  Biso   1.000  C
  H41      1.0000 0.87280  0.34290  0.45340  Biso   1.000  H
  C79      1.0000 0.07030  0.37774  0.35153  Biso   1.000  C
  H42      1.0000 0.15700  0.37710  0.32350  Biso   1.000  H
  C80      1.0000 0.94350  0.41087  0.35731  Biso   1.000  C
  H43      1.0000 0.92620  0.43660  0.33430  Biso   1.000  H
  C81      1.0000 0.70140  0.42511  0.42724  Biso   1.000  C
  C82      1.0000 0.52170  0.41936  0.41946  Biso   1.000  C
  H44      1.0000 0.46930  0.39680  0.39620  Biso   1.000  H
  C83      1.0000 0.41960  0.45151  0.45055  Biso   1.000  C
  H45      1.0000 0.29250  0.45230  0.45010  Biso   1.000  H
  C84      1.0000 0.52700  0.48129  0.48129  Biso   1.000  C
  C85      1.0000 0.95290  0.10530  0.41400  Biso   1.000  C
  H46      1.0000 0.07710  0.11590  0.41330  Biso   1.000  H
  H47      1.0000 0.92650  0.08680  0.38100  Biso   1.000  H
  H48      1.0000 0.93610  0.08720  0.44750  Biso   1.000  H
  C86      1.0000 0.82240  0.14720  0.41420  Biso   1.000  C
  Cu3      1.0000 0.23598  0.28893  0.40739  Biso   1.000  Cu
  Cu4      1.0000 0.52775  0.23205  0.41231  Biso   1.000  Cu
  F13      1.0000 0.11550  0.07521  0.12052  Biso   1.000  F
  F14      1.0000 0.06320  0.02204  0.18121  Biso   1.000  F
  F15      1.0000 0.89450  0.02817  0.10568  Biso   1.000  F
  F16      1.0000 0.80130  0.03942  0.25797  Biso   1.000  F
  F17      1.0000 0.64710  0.02065  0.18309  Biso   1.000  F
  F18      1.0000 0.57900  0.08155  0.22871  Biso   1.000  F
  F19      1.0000 0.83520  0.45262  0.06889  Biso   1.000  F
  F20      1.0000 0.68580  0.47114  0.14197  Biso   1.000  F
  F21      1.0000 0.61070  0.41112  0.09468  Biso   1.000  F
  F22      1.0000 0.93640  0.46098  0.22394  Biso   1.000  F
  F23      1.0000 0.09470  0.47018  0.14981  Biso   1.000  F
  F24      1.0000 0.15830  0.41540  0.20797  Biso   1.000  F
  N4       1.0000 0.05310  0.34514  0.39294  Biso   1.000  N
  N5       1.0000 0.84540  0.39929  0.40343  Biso   1.000  N
  N6       1.0000 0.74390  0.18058  0.41572  Biso   1.000  N
  O9       1.0000 0.14020  0.24779  0.34813  Biso   1.000  O
  O10      1.0000 0.37540  0.19865  0.35573  Biso   1.000  O
  O11      1.0000 0.62080  0.22378  0.96995  Biso   1.000  O
  O12      1.0000 0.36750  0.18059  0.97056  Biso   1.000  O
  O13      1.0000 0.40780  0.31720  0.35117  Biso   1.000  O
  O14      1.0000 0.63760  0.26666  0.35107  Biso   1.000  O
  O15      1.0000 0.13470  0.25386  0.96398  Biso   1.000  O
  O16      1.0000 0.38920  0.29702  0.97177  Biso   1.000  O
  S2       1.0000 0.75524  0.46978  0.47254  Biso   1.000  S
  C87      1.0000 0.22150  0.28878  0.83605  Biso   1.000  C
  C88      1.0000 0.12790  0.32125  0.79551  Biso   1.000  C
  C89      1.0000 0.94440  0.31522  0.77946  Biso   1.000  C
  H49      1.0000 0.87830  0.29110  0.79460  Biso   1.000  H
  C90      1.0000 0.86020  0.34504  0.74110  Biso   1.000  C
  H50      1.0000 0.73850  0.34030  0.73010  Biso   1.000  H
  C91      1.0000 0.95560  0.38217  0.71870  Biso   1.000  C
  C92      1.0000 0.13660  0.38813  0.73568  Biso   1.000  C
  H51      1.0000 0.20210  0.41280  0.72150  Biso   1.000  H
  C93      1.0000 0.22200  0.35797  0.77350  Biso   1.000  C
  H52      1.0000 0.34400  0.36250  0.78420  Biso   1.000  H
  C94      1.0000 0.85210  0.41405  0.67663  Biso   1.000  C
  C95      1.0000 0.98430  0.44703  0.64594  Biso   1.000  C
  C96      1.0000 0.71790  0.44331  0.71151  Biso   1.000  C
  C97      1.0000 0.75350  0.38592  0.62909  Biso   1.000  C
  C98      1.0000 0.84760  0.34846  0.60691  Biso   1.000  C
  H53      1.0000 0.96140  0.34030  0.62240  Biso   1.000  H
  C99      1.0000 0.77240  0.32343  0.56206  Biso   1.000  C
  H54      1.0000 0.83740  0.29890  0.54740  Biso   1.000  H
  C100     1.0000 0.60250  0.33431  0.53873  Biso   1.000  C
  C101     1.0000 0.50720  0.37107  0.56137  Biso   1.000  C
  H55      1.0000 0.39140  0.37840  0.54670  Biso   1.000  H
  C102     1.0000 0.58330  0.39687  0.60556  Biso   1.000  C
  H56      1.0000 0.51920  0.42190  0.61960  Biso   1.000  H
  C103     1.0000 0.52300  0.30771  0.48947  Biso   1.000  C
  C104     1.0000 0.55570  0.19815  0.83305  Biso   1.000  C
  C105     1.0000 0.64020  0.17207  0.78554  Biso   1.000  C
  C106     1.0000 0.80740  0.18490  0.76420  Biso   1.000  C
  H57      1.0000 0.87070  0.20980  0.77980  Biso   1.000  H
  C107     1.0000 0.87990  0.16064  0.71965  Biso   1.000  C
  H58      1.0000 0.99060  0.17000  0.70500  Biso   1.000  H
  C108     1.0000 0.79060  0.12275  0.69650  Biso   1.000  C
  C109     1.0000 0.62440  0.10959  0.71823  Biso   1.000  C
  H59      1.0000 0.56270  0.08410  0.70340  Biso   1.000  H
  C110     1.0000 0.55110  0.13436  0.76196  Biso   1.000  C
  H60      1.0000 0.43900  0.12550  0.77590  Biso   1.000  H
  C111     1.0000 0.88860  0.09444  0.65052  Biso   1.000  C
  C112     1.0000 0.75260  0.06459  0.61383  Biso   1.000  C
  C113     1.0000 0.02070  0.06175  0.68307  Biso   1.000  C
  C114     1.0000 0.98590  0.12591  0.60880  Biso   1.000  C
  C115     1.0000 0.88750  0.16281  0.58471  Biso   1.000  C
  H61      1.0000 0.76860  0.16830  0.59570  Biso   1.000  H
  C116     1.0000 0.96450  0.19127  0.54476  Biso   1.000  C
  H62      1.0000 0.89670  0.21530  0.52870  Biso   1.000  H
  C117     1.0000 0.14240  0.18380  0.52878  Biso   1.000  C
  C118     1.0000 0.23990  0.14743  0.55244  Biso   1.000  C
  H63      1.0000 0.35960  0.14230  0.54180  Biso   1.000  H
  C119     1.0000 0.16270  0.11868  0.59142  Biso   1.000  C
  H64      1.0000 0.23010  0.09410  0.60630  Biso   1.000  H
  C120     1.0000 0.22830  0.21359  0.48468  Biso   1.000  C
  C121     1.0000 0.91670  0.14107  0.92250  Biso   1.000  C
  H65      1.0000 0.87280  0.15710  0.95340  Biso   1.000  H
  C122     1.0000 0.07030  0.12226  0.85153  Biso   1.000  C
  H66      1.0000 0.15700  0.12290  0.82350  Biso   1.000  H
  C123     1.0000 0.94350  0.08913  0.85731  Biso   1.000  C
  H67      1.0000 0.92620  0.06340  0.83430  Biso   1.000  H
  C124     1.0000 0.70140  0.07489  0.92724  Biso   1.000  C
  C125     1.0000 0.52170  0.08064  0.91946  Biso   1.000  C
  H68      1.0000 0.46930  0.10320  0.89620  Biso   1.000  H
  C126     1.0000 0.41960  0.04849  0.95055  Biso   1.000  C
  H69      1.0000 0.29250  0.04770  0.95010  Biso   1.000  H
  C127     1.0000 0.52700  0.01871  0.98129  Biso   1.000  C
  C128     1.0000 0.95290  0.39470  0.91400  Biso   1.000  C
  H70      1.0000 0.07710  0.38410  0.91330  Biso   1.000  H
  H71      1.0000 0.92650  0.41320  0.88100  Biso   1.000  H
  H72      1.0000 0.93610  0.41280  0.94750  Biso   1.000  H
  C129     1.0000 0.82240  0.35280  0.91420  Biso   1.000  C
  Cu5      1.0000 0.23598  0.21107  0.90739  Biso   1.000  Cu
  Cu6      1.0000 0.52775  0.26795  0.91231  Biso   1.000  Cu
  F25      1.0000 0.11550  0.42479  0.62052  Biso   1.000  F
  F26      1.0000 0.06320  0.47796  0.68121  Biso   1.000  F
  F27      1.0000 0.89450  0.47183  0.60568  Biso   1.000  F
  F28      1.0000 0.80130  0.46058  0.75797  Biso   1.000  F
  F29      1.0000 0.64710  0.47935  0.68309  Biso   1.000  F
  F30      1.0000 0.57900  0.41845  0.72871  Biso   1.000  F
  F31      1.0000 0.83520  0.04738  0.56889  Biso   1.000  F
  F32      1.0000 0.68580  0.02886  0.64197  Biso   1.000  F
  F33      1.0000 0.61070  0.08888  0.59468  Biso   1.000  F
  F34      1.0000 0.93640  0.03902  0.72394  Biso   1.000  F
  F35      1.0000 0.09470  0.02982  0.64981  Biso   1.000  F
  F36      1.0000 0.15830  0.08460  0.70797  Biso   1.000  F
  N7       1.0000 0.05310  0.15486  0.89294  Biso   1.000  N
  N8       1.0000 0.84540  0.10071  0.90343  Biso   1.000  N
  N9       1.0000 0.74390  0.31942  0.91572  Biso   1.000  N
  O17      1.0000 0.14020  0.25221  0.84813  Biso   1.000  O
  O18      1.0000 0.37540  0.30135  0.85573  Biso   1.000  O
  O19      1.0000 0.62080  0.27622  0.46995  Biso   1.000  O
  O20      1.0000 0.36750  0.31941  0.47056  Biso   1.000  O
  O21      1.0000 0.40780  0.18280  0.85117  Biso   1.000  O
  O22      1.0000 0.63760  0.23334  0.85107  Biso   1.000  O
  O23      1.0000 0.13470  0.24614  0.46398  Biso   1.000  O
  O24      1.0000 0.38920  0.20298  0.47177  Biso   1.000  O
  S3       1.0000 0.75524  0.03022  0.97254  Biso   1.000  S
  C130     1.0000 0.77850  0.78878  0.66395  Biso   1.000  C
  C131     1.0000 0.87210  0.82125  0.70449  Biso   1.000  C
  C132     1.0000 0.05560  0.81522  0.72054  Biso   1.000  C
  H73      1.0000 0.12170  0.79110  0.70540  Biso   1.000  H
  C133     1.0000 0.13980  0.84504  0.75890  Biso   1.000  C
  H74      1.0000 0.26150  0.84030  0.76990  Biso   1.000  H
  C134     1.0000 0.04440  0.88217  0.78130  Biso   1.000  C
  C135     1.0000 0.86340  0.88813  0.76432  Biso   1.000  C
  H75      1.0000 0.79790  0.91280  0.77850  Biso   1.000  H
  C136     1.0000 0.77800  0.85797  0.72650  Biso   1.000  C
  H76      1.0000 0.65600  0.86250  0.71580  Biso   1.000  H
  C137     1.0000 0.14790  0.91405  0.82337  Biso   1.000  C
  C138     1.0000 0.01570  0.94703  0.85406  Biso   1.000  C
  C139     1.0000 0.28210  0.94331  0.78849  Biso   1.000  C
  C140     1.0000 0.24650  0.88592  0.87091  Biso   1.000  C
  C141     1.0000 0.15240  0.84846  0.89309  Biso   1.000  C
  H77      1.0000 0.03860  0.84030  0.87760  Biso   1.000  H
  C142     1.0000 0.22760  0.82343  0.93794  Biso   1.000  C
  H78      1.0000 0.16260  0.79890  0.95260  Biso   1.000  H
  C143     1.0000 0.39750  0.83431  0.96127  Biso   1.000  C
  C144     1.0000 0.49280  0.87107  0.93863  Biso   1.000  C
  H79      1.0000 0.60860  0.87840  0.95330  Biso   1.000  H
  C145     1.0000 0.41670  0.89687  0.89444  Biso   1.000  C
  H80      1.0000 0.48080  0.92190  0.88040  Biso   1.000  H
  C146     1.0000 0.47700  0.80771  0.01053  Biso   1.000  C
  C147     1.0000 0.44430  0.69815  0.66695  Biso   1.000  C
  C148     1.0000 0.35980  0.67207  0.71446  Biso   1.000  C
  C149     1.0000 0.19260  0.68490  0.73580  Biso   1.000  C
  H81      1.0000 0.12930  0.70980  0.72020  Biso   1.000  H
  C150     1.0000 0.12010  0.66064  0.78035  Biso   1.000  C
  H82      1.0000 0.00940  0.67000  0.79500  Biso   1.000  H
  C151     1.0000 0.20940  0.62275  0.80350  Biso   1.000  C
  C152     1.0000 0.37560  0.60959  0.78177  Biso   1.000  C
  H83      1.0000 0.43730  0.58410  0.79660  Biso   1.000  H
  C153     1.0000 0.44890  0.63436  0.73804  Biso   1.000  C
  H84      1.0000 0.56100  0.62550  0.72410  Biso   1.000  H
  C154     1.0000 0.11140  0.59444  0.84948  Biso   1.000  C
  C155     1.0000 0.24740  0.56459  0.88617  Biso   1.000  C
  C156     1.0000 0.97930  0.56175  0.81693  Biso   1.000  C
  C157     1.0000 0.01410  0.62591  0.89120  Biso   1.000  C
  C158     1.0000 0.11250  0.66281  0.91529  Biso   1.000  C
  H85      1.0000 0.23140  0.66830  0.90430  Biso   1.000  H
  C159     1.0000 0.03550  0.69127  0.95524  Biso   1.000  C
  H86      1.0000 0.10330  0.71530  0.97130  Biso   1.000  H
  C160     1.0000 0.85760  0.68380  0.97122  Biso   1.000  C
  C161     1.0000 0.76010  0.64743  0.94756  Biso   1.000  C
  H87      1.0000 0.64040  0.64230  0.95820  Biso   1.000  H
  C162     1.0000 0.83730  0.61868  0.90858  Biso   1.000  C
  H88      1.0000 0.76990  0.59410  0.89370  Biso   1.000  H
  C163     1.0000 0.77170  0.71359  0.01532  Biso   1.000  C
  C164     1.0000 0.08330  0.64107  0.57750  Biso   1.000  C
  H89      1.0000 0.12720  0.65710  0.54660  Biso   1.000  H
  C165     1.0000 0.92970  0.62226  0.64847  Biso   1.000  C
  H90      1.0000 0.84300  0.62290  0.67650  Biso   1.000  H
  C166     1.0000 0.05650  0.58913  0.64269  Biso   1.000  C
  H91      1.0000 0.07380  0.56340  0.66570  Biso   1.000  H
  C167     1.0000 0.29860  0.57489  0.57276  Biso   1.000  C
  C168     1.0000 0.47830  0.58064  0.58054  Biso   1.000  C
  H92      1.0000 0.53070  0.60320  0.60380  Biso   1.000  H
  C169     1.0000 0.58040  0.54849  0.54945  Biso   1.000  C
  H93      1.0000 0.70750  0.54770  0.54990  Biso   1.000  H
  C170     1.0000 0.47300  0.51871  0.51871  Biso   1.000  C
  C171     1.0000 0.04710  0.89470  0.58600  Biso   1.000  C
  H94      1.0000 0.92290  0.88410  0.58670  Biso   1.000  H
  H95      1.0000 0.07350  0.91320  0.61900  Biso   1.000  H
  H96      1.0000 0.06390  0.91280  0.55250  Biso   1.000  H
  C172     1.0000 0.17760  0.85280  0.58580  Biso   1.000  C
  Cu7      1.0000 0.76402  0.71107  0.59261  Biso   1.000  Cu
  Cu8      1.0000 0.47225  0.76795  0.58769  Biso   1.000  Cu
  F37      1.0000 0.88450  0.92479  0.87948  Biso   1.000  F
  F38      1.0000 0.93680  0.97796  0.81879  Biso   1.000  F
  F39      1.0000 0.10550  0.97183  0.89432  Biso   1.000  F
  F40      1.0000 0.19870  0.96058  0.74203  Biso   1.000  F
  F41      1.0000 0.35290  0.97935  0.81691  Biso   1.000  F
  F42      1.0000 0.42100  0.91845  0.77129  Biso   1.000  F
  F43      1.0000 0.16480  0.54738  0.93111  Biso   1.000  F
  F44      1.0000 0.31420  0.52886  0.85803  Biso   1.000  F
  F45      1.0000 0.38930  0.58888  0.90532  Biso   1.000  F
  F46      1.0000 0.06360  0.53902  0.77606  Biso   1.000  F
  F47      1.0000 0.90530  0.52982  0.85019  Biso   1.000  F
  F48      1.0000 0.84170  0.58460  0.79203  Biso   1.000  F
  N10      1.0000 0.94690  0.65486  0.60706  Biso   1.000  N
  N11      1.0000 0.15460  0.60071  0.59657  Biso   1.000  N
  N12      1.0000 0.25610  0.81942  0.58428  Biso   1.000  N
  O25      1.0000 0.85980  0.75221  0.65187  Biso   1.000  O
  O26      1.0000 0.62460  0.80135  0.64427  Biso   1.000  O
  O27      1.0000 0.37920  0.77622  0.03005  Biso   1.000  O
  O28      1.0000 0.63250  0.81941  0.02944  Biso   1.000  O
  O29      1.0000 0.59220  0.68280  0.64883  Biso   1.000  O
  O30      1.0000 0.36240  0.73334  0.64893  Biso   1.000  O
  O31      1.0000 0.86530  0.74614  0.03602  Biso   1.000  O
  O32      1.0000 0.61080  0.70298  0.02823  Biso   1.000  O
  S4       1.0000 0.24476  0.53022  0.52746  Biso   1.000  S
