data_image0
_cell_length_a       11.446
_cell_length_b       19.909
_cell_length_c       11.82
_cell_angle_alpha    90
_cell_angle_beta     106.098
_cell_angle_gamma    90

_symmetry_space_group_name_H-M    "P 1"
_symmetry_int_tables_number       1

loop_
  _symmetry_equiv_pos_as_xyz
  'x, y, z'

loop_
  _atom_site_label
  _atom_site_occupancy
  _atom_site_fract_x
  _atom_site_fract_y
  _atom_site_fract_z
  _atom_site_thermal_displace_type
  _atom_site_B_iso_or_equiv
  _atom_site_type_symbol
  C1       1.0000 0.02420  0.21460  0.32720  Biso   1.000  C
  C2       1.0000 0.03070  0.28910  0.34910  Biso   1.000  C
  C3       1.0000 0.03050  0.31350  0.45860  Biso   1.000  C
  H1       1.0000 0.02680  0.28370  0.51810  Biso   1.000  H
  C4       1.0000 0.03570  0.38180  0.48040  Biso   1.000  C
  C5       1.0000 0.03770  0.42670  0.39210  Biso   1.000  C
  H2       1.0000 0.03690  0.47280  0.40520  Biso   1.000  H
  C6       1.0000 0.04090  0.40200  0.28360  Biso   1.000  C
  C7       1.0000 0.03650  0.33400  0.26120  Biso   1.000  C
  H3       1.0000 0.03730  0.31830  0.18730  Biso   1.000  H
  C8       1.0000 0.03970  0.45020  0.18690  Biso   1.000  C
  C9       1.0000 0.23390  0.05170  0.33340  Biso   1.000  C
  H4       1.0000 0.17740  0.03170  0.27030  Biso   1.000  H
  C10      1.0000 0.35110  0.05400  0.32770  Biso   1.000  C
  H5       1.0000 0.37030  0.03770  0.26140  Biso   1.000  H
  C11      1.0000 0.40270  0.10370  0.51070  Biso   1.000  C
  H6       1.0000 0.45840  0.12240  0.57580  Biso   1.000  H
  C12      1.0000 0.28280  0.09990  0.50720  Biso   1.000  C
  H7       1.0000 0.26170  0.11620  0.57260  Biso   1.000  H
  C13      1.0000 0.65870  0.11320  0.50210  Biso   1.000  C
  H8       1.0000 0.63750  0.13550  0.56270  Biso   1.000  H
  C14      1.0000 0.44070  0.08020  0.41890  Biso   1.000  C
  C15      1.0000 0.57420  0.08170  0.41760  Biso   1.000  C
  C16      1.0000 0.60820  0.05110  0.32880  Biso   1.000  C
  H9       1.0000 0.55130  0.02870  0.26920  Biso   1.000  H
  C17      1.0000 0.72680  0.05400  0.32890  Biso   1.000  C
  H10      1.0000 0.74870  0.03480  0.26600  Biso   1.000  H
  C18      1.0000 0.77680  0.11210  0.49780  Biso   1.000  C
  H11      1.0000 0.83520  0.13330  0.55770  Biso   1.000  H
  N1       1.0000 0.81230  0.08235  0.41280  Biso   1.000  N
  N2       1.0000 0.19260  0.07519  0.42040  Biso   1.000  N
  O1       1.0000 0.00460  0.17885  0.40680  Biso   1.000  O
  O2       1.0000 0.03670  0.19276  0.23520  Biso   1.000  O
  O3       1.0000 0.05200  0.42801  0.09210  Biso   1.000  O
  O4       1.0000 0.02820  0.51191  0.20750  Biso   1.000  O
  O5       1.0000 0.03590  0.40687  0.58750  Biso   1.000  O
  Zn1      1.0000 0.00460  0.08133  0.41717  Biso   1.000  Zn
  C19      1.0000 0.97580  0.71460  0.17280  Biso   1.000  C
  C20      1.0000 0.96930  0.78910  0.15090  Biso   1.000  C
  C21      1.0000 0.96950  0.81350  0.04140  Biso   1.000  C
  H12      1.0000 0.97320  0.78370  0.98190  Biso   1.000  H
  C22      1.0000 0.96430  0.88180  0.01960  Biso   1.000  C
  C23      1.0000 0.96230  0.92670  0.10790  Biso   1.000  C
  H13      1.0000 0.96310  0.97280  0.09480  Biso   1.000  H
  C24      1.0000 0.95910  0.90200  0.21640  Biso   1.000  C
  C25      1.0000 0.96350  0.83400  0.23880  Biso   1.000  C
  H14      1.0000 0.96270  0.81830  0.31270  Biso   1.000  H
  C26      1.0000 0.96030  0.95020  0.31310  Biso   1.000  C
  C27      1.0000 0.76610  0.55170  0.16660  Biso   1.000  C
  H15      1.0000 0.82260  0.53170  0.22970  Biso   1.000  H
  C28      1.0000 0.64890  0.55400  0.17230  Biso   1.000  C
  H16      1.0000 0.62970  0.53770  0.23860  Biso   1.000  H
  C29      1.0000 0.59730  0.60370  0.98930  Biso   1.000  C
  H17      1.0000 0.54160  0.62240  0.92420  Biso   1.000  H
  C30      1.0000 0.71720  0.59990  0.99280  Biso   1.000  C
  H18      1.0000 0.73830  0.61620  0.92740  Biso   1.000  H
  C31      1.0000 0.34130  0.61320  0.99790  Biso   1.000  C
  H19      1.0000 0.36250  0.63550  0.93730  Biso   1.000  H
  C32      1.0000 0.55930  0.58020  0.08110  Biso   1.000  C
  C33      1.0000 0.42580  0.58170  0.08240  Biso   1.000  C
  C34      1.0000 0.39180  0.55110  0.17120  Biso   1.000  C
  H20      1.0000 0.44870  0.52870  0.23080  Biso   1.000  H
  C35      1.0000 0.27320  0.55400  0.17110  Biso   1.000  C
  H21      1.0000 0.25130  0.53480  0.23400  Biso   1.000  H
  C36      1.0000 0.22320  0.61210  0.00220  Biso   1.000  C
  H22      1.0000 0.16480  0.63330  0.94230  Biso   1.000  H
  N3       1.0000 0.18770  0.58235  0.08720  Biso   1.000  N
  N4       1.0000 0.80740  0.57519  0.07960  Biso   1.000  N
  O6       1.0000 0.99540  0.67885  0.09320  Biso   1.000  O
  O7       1.0000 0.96330  0.69276  0.26480  Biso   1.000  O
  O8       1.0000 0.94800  0.92801  0.40790  Biso   1.000  O
  O9       1.0000 0.97180  0.01191  0.29250  Biso   1.000  O
  O10      1.0000 0.96410  0.90687  0.91250  Biso   1.000  O
  Zn2      1.0000 0.99540  0.58133  0.08283  Biso   1.000  Zn
  C37      1.0000 0.97580  0.78540  0.67280  Biso   1.000  C
  C38      1.0000 0.96930  0.71090  0.65090  Biso   1.000  C
  C39      1.0000 0.96950  0.68650  0.54140  Biso   1.000  C
  H23      1.0000 0.97320  0.71630  0.48190  Biso   1.000  H
  C40      1.0000 0.96430  0.61820  0.51960  Biso   1.000  C
  C41      1.0000 0.96230  0.57330  0.60790  Biso   1.000  C
  H24      1.0000 0.96310  0.52720  0.59480  Biso   1.000  H
  C42      1.0000 0.95910  0.59800  0.71640  Biso   1.000  C
  C43      1.0000 0.96350  0.66600  0.73880  Biso   1.000  C
  H25      1.0000 0.96270  0.68170  0.81270  Biso   1.000  H
  C44      1.0000 0.96030  0.54980  0.81310  Biso   1.000  C
  C45      1.0000 0.76610  0.94830  0.66660  Biso   1.000  C
  H26      1.0000 0.82260  0.96830  0.72970  Biso   1.000  H
  C46      1.0000 0.64890  0.94600  0.67230  Biso   1.000  C
  H27      1.0000 0.62970  0.96230  0.73860  Biso   1.000  H
  C47      1.0000 0.59730  0.89630  0.48930  Biso   1.000  C
  H28      1.0000 0.54160  0.87760  0.42420  Biso   1.000  H
  C48      1.0000 0.71720  0.90010  0.49280  Biso   1.000  C
  H29      1.0000 0.73830  0.88380  0.42740  Biso   1.000  H
  C49      1.0000 0.34130  0.88680  0.49790  Biso   1.000  C
  H30      1.0000 0.36250  0.86450  0.43730  Biso   1.000  H
  C50      1.0000 0.55930  0.91980  0.58110  Biso   1.000  C
  C51      1.0000 0.42580  0.91830  0.58240  Biso   1.000  C
  C52      1.0000 0.39180  0.94890  0.67120  Biso   1.000  C
  H31      1.0000 0.44870  0.97130  0.73080  Biso   1.000  H
  C53      1.0000 0.27320  0.94600  0.67110  Biso   1.000  C
  H32      1.0000 0.25130  0.96520  0.73400  Biso   1.000  H
  C54      1.0000 0.22320  0.88790  0.50220  Biso   1.000  C
  H33      1.0000 0.16480  0.86670  0.44230  Biso   1.000  H
  N5       1.0000 0.18770  0.91765  0.58720  Biso   1.000  N
  N6       1.0000 0.80740  0.92481  0.57960  Biso   1.000  N
  O11      1.0000 0.99540  0.82115  0.59320  Biso   1.000  O
  O12      1.0000 0.96330  0.80724  0.76480  Biso   1.000  O
  O13      1.0000 0.94800  0.57199  0.90790  Biso   1.000  O
  O14      1.0000 0.97180  0.48809  0.79250  Biso   1.000  O
  O15      1.0000 0.96410  0.59313  0.41250  Biso   1.000  O
  Zn3      1.0000 0.99540  0.91867  0.58283  Biso   1.000  Zn
  C55      1.0000 0.02420  0.28540  0.82720  Biso   1.000  C
  C56      1.0000 0.03070  0.21090  0.84910  Biso   1.000  C
  C57      1.0000 0.03050  0.18650  0.95860  Biso   1.000  C
  H34      1.0000 0.02680  0.21630  0.01810  Biso   1.000  H
  C58      1.0000 0.03570  0.11820  0.98040  Biso   1.000  C
  C59      1.0000 0.03770  0.07330  0.89210  Biso   1.000  C
  H35      1.0000 0.03690  0.02720  0.90520  Biso   1.000  H
  C60      1.0000 0.04090  0.09800  0.78360  Biso   1.000  C
  C61      1.0000 0.03650  0.16600  0.76120  Biso   1.000  C
  H36      1.0000 0.03730  0.18170  0.68730  Biso   1.000  H
  C62      1.0000 0.03970  0.04980  0.68690  Biso   1.000  C
  C63      1.0000 0.23390  0.44830  0.83340  Biso   1.000  C
  H37      1.0000 0.17740  0.46830  0.77030  Biso   1.000  H
  C64      1.0000 0.35110  0.44600  0.82770  Biso   1.000  C
  H38      1.0000 0.37030  0.46230  0.76140  Biso   1.000  H
  C65      1.0000 0.40270  0.39630  0.01070  Biso   1.000  C
  H39      1.0000 0.45840  0.37760  0.07580  Biso   1.000  H
  C66      1.0000 0.28280  0.40010  0.00720  Biso   1.000  C
  H40      1.0000 0.26170  0.38380  0.07260  Biso   1.000  H
  C67      1.0000 0.65870  0.38680  0.00210  Biso   1.000  C
  H41      1.0000 0.63750  0.36450  0.06270  Biso   1.000  H
  C68      1.0000 0.44070  0.41980  0.91890  Biso   1.000  C
  C69      1.0000 0.57420  0.41830  0.91760  Biso   1.000  C
  C70      1.0000 0.60820  0.44890  0.82880  Biso   1.000  C
  H42      1.0000 0.55130  0.47130  0.76920  Biso   1.000  H
  C71      1.0000 0.72680  0.44600  0.82890  Biso   1.000  C
  H43      1.0000 0.74870  0.46520  0.76600  Biso   1.000  H
  C72      1.0000 0.77680  0.38790  0.99780  Biso   1.000  C
  H44      1.0000 0.83520  0.36670  0.05770  Biso   1.000  H
  N7       1.0000 0.81230  0.41765  0.91280  Biso   1.000  N
  N8       1.0000 0.19260  0.42481  0.92040  Biso   1.000  N
  O16      1.0000 0.00460  0.32115  0.90680  Biso   1.000  O
  O17      1.0000 0.03670  0.30724  0.73520  Biso   1.000  O
  O18      1.0000 0.05200  0.07199  0.59210  Biso   1.000  O
  O19      1.0000 0.02820  0.98809  0.70750  Biso   1.000  O
  O20      1.0000 0.03590  0.09313  0.08750  Biso   1.000  O
  Zn4      1.0000 0.00460  0.41867  0.91717  Biso   1.000  Zn
