data_image0
_cell_length_a       16.5611
_cell_length_b       16.5611
_cell_length_c       22.312
_cell_angle_alpha    90
_cell_angle_beta     90
_cell_angle_gamma    90

_symmetry_space_group_name_H-M    "P 1"
_symmetry_int_tables_number       1

loop_
  _symmetry_equiv_pos_as_xyz
  'x, y, z'

loop_
  _atom_site_label
  _atom_site_occupancy
  _atom_site_fract_x
  _atom_site_fract_y
  _atom_site_fract_z
  _atom_site_thermal_displace_type
  _atom_site_B_iso_or_equiv
  _atom_site_type_symbol
  N1       1.0000 0.10260  0.84160  0.92780  Biso   1.000  N
  N2       1.0000 0.11080  0.79520  0.88240  Biso   1.000  N
  C1       1.0000 0.18430  0.71960  0.77550  Biso   1.000  C
  H1       1.0000 0.13880  0.69650  0.79280  Biso   1.000  H
  N3       1.0000 0.60260  0.34160  0.42780  Biso   1.000  N
  N4       1.0000 0.61080  0.29520  0.38240  Biso   1.000  N
  C2       1.0000 0.68430  0.21960  0.27550  Biso   1.000  C
  H2       1.0000 0.63880  0.19650  0.29280  Biso   1.000  H
  N5       1.0000 0.89740  0.15840  0.92780  Biso   1.000  N
  N6       1.0000 0.88920  0.20480  0.88240  Biso   1.000  N
  C3       1.0000 0.81570  0.28040  0.77550  Biso   1.000  C
  H3       1.0000 0.86120  0.30350  0.79280  Biso   1.000  H
  N7       1.0000 0.39740  0.65840  0.42780  Biso   1.000  N
  N8       1.0000 0.38920  0.70480  0.38240  Biso   1.000  N
  C4       1.0000 0.31570  0.78040  0.27550  Biso   1.000  C
  H4       1.0000 0.36120  0.80350  0.29280  Biso   1.000  H
  N9       1.0000 0.15840  0.10260  0.92780  Biso   1.000  N
  N10      1.0000 0.20480  0.11080  0.88240  Biso   1.000  N
  C5       1.0000 0.28040  0.18430  0.77550  Biso   1.000  C
  H5       1.0000 0.30350  0.13880  0.79280  Biso   1.000  H
  N11      1.0000 0.65840  0.60260  0.42780  Biso   1.000  N
  N12      1.0000 0.70480  0.61080  0.38240  Biso   1.000  N
  C6       1.0000 0.78040  0.68430  0.27550  Biso   1.000  C
  H6       1.0000 0.80350  0.63880  0.29280  Biso   1.000  H
  N13      1.0000 0.84160  0.89740  0.92780  Biso   1.000  N
  N14      1.0000 0.79520  0.88920  0.88240  Biso   1.000  N
  C7       1.0000 0.71960  0.81570  0.77550  Biso   1.000  C
  H7       1.0000 0.69650  0.86120  0.79280  Biso   1.000  H
  N15      1.0000 0.34160  0.39740  0.42780  Biso   1.000  N
  N16      1.0000 0.29520  0.38920  0.38240  Biso   1.000  N
  C8       1.0000 0.21960  0.31570  0.27550  Biso   1.000  C
  H8       1.0000 0.19650  0.36120  0.29280  Biso   1.000  H
  N17      1.0000 0.89740  0.84160  0.07220  Biso   1.000  N
  N18      1.0000 0.88920  0.79520  0.11760  Biso   1.000  N
  C9       1.0000 0.81570  0.71960  0.22450  Biso   1.000  C
  H9       1.0000 0.86120  0.69650  0.20720  Biso   1.000  H
  N19      1.0000 0.39740  0.34160  0.57220  Biso   1.000  N
  N20      1.0000 0.38920  0.29520  0.61760  Biso   1.000  N
  C10      1.0000 0.31570  0.21960  0.72450  Biso   1.000  C
  H10      1.0000 0.36120  0.19650  0.70720  Biso   1.000  H
  N21      1.0000 0.10260  0.15840  0.07220  Biso   1.000  N
  N22      1.0000 0.11080  0.20480  0.11760  Biso   1.000  N
  C11      1.0000 0.18430  0.28040  0.22450  Biso   1.000  C
  H11      1.0000 0.13880  0.30350  0.20720  Biso   1.000  H
  N23      1.0000 0.60260  0.65840  0.57220  Biso   1.000  N
  N24      1.0000 0.61080  0.70480  0.61760  Biso   1.000  N
  C12      1.0000 0.68430  0.78040  0.72450  Biso   1.000  C
  H12      1.0000 0.63880  0.80350  0.70720  Biso   1.000  H
  N25      1.0000 0.84160  0.10260  0.07220  Biso   1.000  N
  N26      1.0000 0.79520  0.11080  0.11760  Biso   1.000  N
  C13      1.0000 0.71960  0.18430  0.22450  Biso   1.000  C
  H13      1.0000 0.69650  0.13880  0.20720  Biso   1.000  H
  N27      1.0000 0.34160  0.60260  0.57220  Biso   1.000  N
  N28      1.0000 0.29520  0.61080  0.61760  Biso   1.000  N
  C14      1.0000 0.21960  0.68430  0.72450  Biso   1.000  C
  H14      1.0000 0.19650  0.63880  0.70720  Biso   1.000  H
  N29      1.0000 0.15840  0.89740  0.07220  Biso   1.000  N
  N30      1.0000 0.20480  0.88920  0.11760  Biso   1.000  N
  C15      1.0000 0.28040  0.81570  0.22450  Biso   1.000  C
  H15      1.0000 0.30350  0.86120  0.20720  Biso   1.000  H
  N31      1.0000 0.65840  0.39740  0.57220  Biso   1.000  N
  N32      1.0000 0.70480  0.38920  0.61760  Biso   1.000  N
  C16      1.0000 0.78040  0.31570  0.72450  Biso   1.000  C
  H16      1.0000 0.80350  0.36120  0.70720  Biso   1.000  H
  N33      1.0000 0.89740  0.15840  0.07220  Biso   1.000  N
  N34      1.0000 0.88920  0.20480  0.11760  Biso   1.000  N
  C17      1.0000 0.81570  0.28040  0.22450  Biso   1.000  C
  H17      1.0000 0.86120  0.30350  0.20720  Biso   1.000  H
  N35      1.0000 0.39740  0.65840  0.57220  Biso   1.000  N
  N36      1.0000 0.38920  0.70480  0.61760  Biso   1.000  N
  C18      1.0000 0.31570  0.78040  0.72450  Biso   1.000  C
  H18      1.0000 0.36120  0.80350  0.70720  Biso   1.000  H
  N37      1.0000 0.10260  0.84160  0.07220  Biso   1.000  N
  N38      1.0000 0.11080  0.79520  0.11760  Biso   1.000  N
  C19      1.0000 0.18430  0.71960  0.22450  Biso   1.000  C
  H19      1.0000 0.13880  0.69650  0.20720  Biso   1.000  H
  N39      1.0000 0.60260  0.34160  0.57220  Biso   1.000  N
  N40      1.0000 0.61080  0.29520  0.61760  Biso   1.000  N
  C20      1.0000 0.68430  0.21960  0.72450  Biso   1.000  C
  H20      1.0000 0.63880  0.19650  0.70720  Biso   1.000  H
  N41      1.0000 0.84160  0.89740  0.07220  Biso   1.000  N
  N42      1.0000 0.79520  0.88920  0.11760  Biso   1.000  N
  C21      1.0000 0.71960  0.81570  0.22450  Biso   1.000  C
  H21      1.0000 0.69650  0.86120  0.20720  Biso   1.000  H
  N43      1.0000 0.34160  0.39740  0.57220  Biso   1.000  N
  N44      1.0000 0.29520  0.38920  0.61760  Biso   1.000  N
  C22      1.0000 0.21960  0.31570  0.72450  Biso   1.000  C
  H22      1.0000 0.19650  0.36120  0.70720  Biso   1.000  H
  N45      1.0000 0.15840  0.10260  0.07220  Biso   1.000  N
  N46      1.0000 0.20480  0.11080  0.11760  Biso   1.000  N
  C23      1.0000 0.28040  0.18430  0.22450  Biso   1.000  C
  H23      1.0000 0.30350  0.13880  0.20720  Biso   1.000  H
  N47      1.0000 0.65840  0.60260  0.57220  Biso   1.000  N
  N48      1.0000 0.70480  0.61080  0.61760  Biso   1.000  N
  C24      1.0000 0.78040  0.68430  0.72450  Biso   1.000  C
  H24      1.0000 0.80350  0.63880  0.70720  Biso   1.000  H
  N49      1.0000 0.10260  0.15840  0.92780  Biso   1.000  N
  N50      1.0000 0.11080  0.20480  0.88240  Biso   1.000  N
  C25      1.0000 0.18430  0.28040  0.77550  Biso   1.000  C
  H25      1.0000 0.13880  0.30350  0.79280  Biso   1.000  H
  N51      1.0000 0.60260  0.65840  0.42780  Biso   1.000  N
  N52      1.0000 0.61080  0.70480  0.38240  Biso   1.000  N
  C26      1.0000 0.68430  0.78040  0.27550  Biso   1.000  C
  H26      1.0000 0.63880  0.80350  0.29280  Biso   1.000  H
  N53      1.0000 0.89740  0.84160  0.92780  Biso   1.000  N
  N54      1.0000 0.88920  0.79520  0.88240  Biso   1.000  N
  C27      1.0000 0.81570  0.71960  0.77550  Biso   1.000  C
  H27      1.0000 0.86120  0.69650  0.79280  Biso   1.000  H
  N55      1.0000 0.39740  0.34160  0.42780  Biso   1.000  N
  N56      1.0000 0.38920  0.29520  0.38240  Biso   1.000  N
  C28      1.0000 0.31570  0.21960  0.27550  Biso   1.000  C
  H28      1.0000 0.36120  0.19650  0.29280  Biso   1.000  H
  N57      1.0000 0.15840  0.89740  0.92780  Biso   1.000  N
  N58      1.0000 0.20480  0.88920  0.88240  Biso   1.000  N
  C29      1.0000 0.28040  0.81570  0.77550  Biso   1.000  C
  H29      1.0000 0.30350  0.86120  0.79280  Biso   1.000  H
  N59      1.0000 0.65840  0.39740  0.42780  Biso   1.000  N
  N60      1.0000 0.70480  0.38920  0.38240  Biso   1.000  N
  C30      1.0000 0.78040  0.31570  0.27550  Biso   1.000  C
  H30      1.0000 0.80350  0.36120  0.29280  Biso   1.000  H
  N61      1.0000 0.84160  0.10260  0.92780  Biso   1.000  N
  N62      1.0000 0.79520  0.11080  0.88240  Biso   1.000  N
  C31      1.0000 0.71960  0.18430  0.77550  Biso   1.000  C
  H31      1.0000 0.69650  0.13880  0.79280  Biso   1.000  H
  N63      1.0000 0.34160  0.60260  0.42780  Biso   1.000  N
  N64      1.0000 0.29520  0.61080  0.38240  Biso   1.000  N
  C32      1.0000 0.21960  0.68430  0.27550  Biso   1.000  C
  H32      1.0000 0.19650  0.63880  0.29280  Biso   1.000  H
  Cd1      1.0000 0.00000  0.82890  0.00000  Biso   1.000  Cd
  Cd2      1.0000 0.50000  0.32890  0.50000  Biso   1.000  Cd
  Cd3      1.0000 0.00000  0.17110  0.00000  Biso   1.000  Cd
  Cd4      1.0000 0.50000  0.67110  0.50000  Biso   1.000  Cd
  Cd5      1.0000 0.17110  0.00000  0.00000  Biso   1.000  Cd
  Cd6      1.0000 0.67110  0.50000  0.50000  Biso   1.000  Cd
  Cd7      1.0000 0.82890  0.00000  0.00000  Biso   1.000  Cd
  Cd8      1.0000 0.32890  0.50000  0.50000  Biso   1.000  Cd
  C33      1.0000 0.21560  0.78440  0.79820  Biso   1.000  C
  C34      1.0000 0.17790  0.82210  0.85400  Biso   1.000  C
  C35      1.0000 0.71560  0.28440  0.29820  Biso   1.000  C
  C36      1.0000 0.67790  0.32210  0.35400  Biso   1.000  C
  C37      1.0000 0.78440  0.21560  0.79820  Biso   1.000  C
  C38      1.0000 0.82210  0.17790  0.85400  Biso   1.000  C
  C39      1.0000 0.28440  0.71560  0.29820  Biso   1.000  C
  C40      1.0000 0.32210  0.67790  0.35400  Biso   1.000  C
  C41      1.0000 0.21560  0.21560  0.79820  Biso   1.000  C
  C42      1.0000 0.17790  0.17790  0.85400  Biso   1.000  C
  C43      1.0000 0.71560  0.71560  0.29820  Biso   1.000  C
  C44      1.0000 0.67790  0.67790  0.35400  Biso   1.000  C
  C45      1.0000 0.78440  0.78440  0.79820  Biso   1.000  C
  C46      1.0000 0.82210  0.82210  0.85400  Biso   1.000  C
  C47      1.0000 0.28440  0.28440  0.29820  Biso   1.000  C
  C48      1.0000 0.32210  0.32210  0.35400  Biso   1.000  C
  C49      1.0000 0.78440  0.78440  0.20180  Biso   1.000  C
  C50      1.0000 0.82210  0.82210  0.14600  Biso   1.000  C
  C51      1.0000 0.28440  0.28440  0.70180  Biso   1.000  C
  C52      1.0000 0.32210  0.32210  0.64600  Biso   1.000  C
  C53      1.0000 0.21560  0.21560  0.20180  Biso   1.000  C
  C54      1.0000 0.17790  0.17790  0.14600  Biso   1.000  C
  C55      1.0000 0.71560  0.71560  0.70180  Biso   1.000  C
  C56      1.0000 0.67790  0.67790  0.64600  Biso   1.000  C
  C57      1.0000 0.78440  0.21560  0.20180  Biso   1.000  C
  C58      1.0000 0.82210  0.17790  0.14600  Biso   1.000  C
  C59      1.0000 0.28440  0.71560  0.70180  Biso   1.000  C
  C60      1.0000 0.32210  0.67790  0.64600  Biso   1.000  C
  C61      1.0000 0.21560  0.78440  0.20180  Biso   1.000  C
  C62      1.0000 0.17790  0.82210  0.14600  Biso   1.000  C
  C63      1.0000 0.71560  0.28440  0.70180  Biso   1.000  C
  C64      1.0000 0.67790  0.32210  0.64600  Biso   1.000  C
