data_image0
_cell_length_a       7.5999
_cell_length_b       21.092
_cell_length_c       19.515
_cell_angle_alpha    90
_cell_angle_beta     98.305
_cell_angle_gamma    90

_symmetry_space_group_name_H-M    "P 1"
_symmetry_int_tables_number       1

loop_
  _symmetry_equiv_pos_as_xyz
  'x, y, z'

loop_
  _atom_site_label
  _atom_site_occupancy
  _atom_site_fract_x
  _atom_site_fract_y
  _atom_site_fract_z
  _atom_site_thermal_displace_type
  _atom_site_B_iso_or_equiv
  _atom_site_type_symbol
  Nd1      1.0000 0.98859  0.72359  0.75539  Biso   1.000  Nd
  O1       1.0000 0.82930  0.67380  0.64790  Biso   1.000  O
  O2       1.0000 0.70020  0.76090  0.67500  Biso   1.000  O
  C1       1.0000 0.71750  0.71610  0.63220  Biso   1.000  C
  C2       1.0000 0.60220  0.71580  0.56430  Biso   1.000  C
  C3       1.0000 0.55210  0.65840  0.53220  Biso   1.000  C
  C4       1.0000 0.54880  0.77280  0.53240  Biso   1.000  C
  N1       1.0000 0.59900  0.82640  0.55400  Biso   1.000  N
  N2       1.0000 0.63600  0.59910  0.55190  Biso   1.000  N
  O3       1.0000 0.31460  0.71050  0.82250  Biso   1.000  O
  O4       1.0000 0.09090  0.68300  0.87370  Biso   1.000  O
  C5       1.0000 0.25430  0.69010  0.87580  Biso   1.000  C
  C6       1.0000 0.37810  0.67800  0.93890  Biso   1.000  C
  C7       1.0000 0.31730  0.67480  0.00330  Biso   1.000  C
  C8       1.0000 0.55890  0.67550  0.93770  Biso   1.000  C
  H1       1.0000 0.59930  0.67430  0.89490  Biso   1.000  H
  O5       1.0000 0.23450  0.83330  0.78600  Biso   1.000  O
  O6       1.0000 0.98290  0.83740  0.71790  Biso   1.000  O
  C9       1.0000 0.11370  0.86460  0.75190  Biso   1.000  C
  C10      1.0000 0.12120  0.93490  0.75070  Biso   1.000  C
  C11      1.0000 0.00440  0.96760  0.70250  Biso   1.000  C
  C12      1.0000 0.24250  0.96670  0.79740  Biso   1.000  C
  N3       1.0000 0.36300  0.94270  0.84970  Biso   1.000  N
  N4       1.0000 0.87700  0.93970  0.66040  Biso   1.000  N
  N5       1.0000 0.14670  0.66090  0.00950  Biso   1.000  N
  Nd2      1.0000 0.48859  0.22359  0.75539  Biso   1.000  Nd
  O7       1.0000 0.32930  0.17380  0.64790  Biso   1.000  O
  O8       1.0000 0.20020  0.26090  0.67500  Biso   1.000  O
  C13      1.0000 0.21750  0.21610  0.63220  Biso   1.000  C
  C14      1.0000 0.10220  0.21580  0.56430  Biso   1.000  C
  C15      1.0000 0.05210  0.15840  0.53220  Biso   1.000  C
  C16      1.0000 0.04880  0.27280  0.53240  Biso   1.000  C
  N6       1.0000 0.09900  0.32640  0.55400  Biso   1.000  N
  N7       1.0000 0.13600  0.09910  0.55190  Biso   1.000  N
  O9       1.0000 0.81460  0.21050  0.82250  Biso   1.000  O
  O10      1.0000 0.59090  0.18300  0.87370  Biso   1.000  O
  C17      1.0000 0.75430  0.19010  0.87580  Biso   1.000  C
  C18      1.0000 0.87810  0.17800  0.93890  Biso   1.000  C
  C19      1.0000 0.81730  0.17480  0.00330  Biso   1.000  C
  C20      1.0000 0.05890  0.17550  0.93770  Biso   1.000  C
  H2       1.0000 0.09930  0.17430  0.89490  Biso   1.000  H
  O11      1.0000 0.73450  0.33330  0.78600  Biso   1.000  O
  O12      1.0000 0.48290  0.33740  0.71790  Biso   1.000  O
  C21      1.0000 0.61370  0.36460  0.75190  Biso   1.000  C
  C22      1.0000 0.62120  0.43490  0.75070  Biso   1.000  C
  C23      1.0000 0.50440  0.46760  0.70250  Biso   1.000  C
  C24      1.0000 0.74250  0.46670  0.79740  Biso   1.000  C
  N8       1.0000 0.86300  0.44270  0.84970  Biso   1.000  N
  N9       1.0000 0.37700  0.43970  0.66040  Biso   1.000  N
  N10      1.0000 0.64670  0.16090  0.00950  Biso   1.000  N
  Nd3      1.0000 0.01141  0.72359  0.24461  Biso   1.000  Nd
  O13      1.0000 0.17070  0.67380  0.35210  Biso   1.000  O
  O14      1.0000 0.29980  0.76090  0.32500  Biso   1.000  O
  C25      1.0000 0.28250  0.71610  0.36780  Biso   1.000  C
  C26      1.0000 0.39780  0.71580  0.43570  Biso   1.000  C
  C27      1.0000 0.44790  0.65840  0.46780  Biso   1.000  C
  C28      1.0000 0.45120  0.77280  0.46760  Biso   1.000  C
  N11      1.0000 0.40100  0.82640  0.44600  Biso   1.000  N
  N12      1.0000 0.36400  0.59910  0.44810  Biso   1.000  N
  O15      1.0000 0.68540  0.71050  0.17750  Biso   1.000  O
  O16      1.0000 0.90910  0.68300  0.12630  Biso   1.000  O
  C29      1.0000 0.74570  0.69010  0.12420  Biso   1.000  C
  C30      1.0000 0.62190  0.67800  0.06110  Biso   1.000  C
  C31      1.0000 0.68270  0.67480  0.99670  Biso   1.000  C
  C32      1.0000 0.44110  0.67550  0.06230  Biso   1.000  C
  H3       1.0000 0.40070  0.67430  0.10510  Biso   1.000  H
  O17      1.0000 0.76550  0.83330  0.21400  Biso   1.000  O
  O18      1.0000 0.01710  0.83740  0.28210  Biso   1.000  O
  C33      1.0000 0.88630  0.86460  0.24810  Biso   1.000  C
  C34      1.0000 0.87880  0.93490  0.24930  Biso   1.000  C
  C35      1.0000 0.99560  0.96760  0.29750  Biso   1.000  C
  C36      1.0000 0.75750  0.96670  0.20260  Biso   1.000  C
  N13      1.0000 0.63700  0.94270  0.15030  Biso   1.000  N
  N14      1.0000 0.12300  0.93970  0.33960  Biso   1.000  N
  N15      1.0000 0.85330  0.66090  0.99050  Biso   1.000  N
  Nd4      1.0000 0.51141  0.22359  0.24461  Biso   1.000  Nd
  O19      1.0000 0.67070  0.17380  0.35210  Biso   1.000  O
  O20      1.0000 0.79980  0.26090  0.32500  Biso   1.000  O
  C37      1.0000 0.78250  0.21610  0.36780  Biso   1.000  C
  C38      1.0000 0.89780  0.21580  0.43570  Biso   1.000  C
  C39      1.0000 0.94790  0.15840  0.46780  Biso   1.000  C
  C40      1.0000 0.95120  0.27280  0.46760  Biso   1.000  C
  N16      1.0000 0.90100  0.32640  0.44600  Biso   1.000  N
  N17      1.0000 0.86400  0.09910  0.44810  Biso   1.000  N
  O21      1.0000 0.18540  0.21050  0.17750  Biso   1.000  O
  O22      1.0000 0.40910  0.18300  0.12630  Biso   1.000  O
  C41      1.0000 0.24570  0.19010  0.12420  Biso   1.000  C
  C42      1.0000 0.12190  0.17800  0.06110  Biso   1.000  C
  C43      1.0000 0.18270  0.17480  0.99670  Biso   1.000  C
  C44      1.0000 0.94110  0.17550  0.06230  Biso   1.000  C
  H4       1.0000 0.90070  0.17430  0.10510  Biso   1.000  H
  O23      1.0000 0.26550  0.33330  0.21400  Biso   1.000  O
  O24      1.0000 0.51710  0.33740  0.28210  Biso   1.000  O
  C45      1.0000 0.38630  0.36460  0.24810  Biso   1.000  C
  C46      1.0000 0.37880  0.43490  0.24930  Biso   1.000  C
  C47      1.0000 0.49560  0.46760  0.29750  Biso   1.000  C
  C48      1.0000 0.25750  0.46670  0.20260  Biso   1.000  C
  N18      1.0000 0.13700  0.44270  0.15030  Biso   1.000  N
  N19      1.0000 0.62300  0.43970  0.33960  Biso   1.000  N
  N20      1.0000 0.35330  0.16090  0.99050  Biso   1.000  N
  Nd5      1.0000 0.01141  0.27641  0.24461  Biso   1.000  Nd
  O25      1.0000 0.17070  0.32620  0.35210  Biso   1.000  O
  O26      1.0000 0.29980  0.23910  0.32500  Biso   1.000  O
  C49      1.0000 0.28250  0.28390  0.36780  Biso   1.000  C
  C50      1.0000 0.39780  0.28420  0.43570  Biso   1.000  C
  C51      1.0000 0.44790  0.34160  0.46780  Biso   1.000  C
  C52      1.0000 0.45120  0.22720  0.46760  Biso   1.000  C
  N21      1.0000 0.40100  0.17360  0.44600  Biso   1.000  N
  N22      1.0000 0.36400  0.40090  0.44810  Biso   1.000  N
  O27      1.0000 0.68540  0.28950  0.17750  Biso   1.000  O
  O28      1.0000 0.90910  0.31700  0.12630  Biso   1.000  O
  C53      1.0000 0.74570  0.30990  0.12420  Biso   1.000  C
  C54      1.0000 0.62190  0.32200  0.06110  Biso   1.000  C
  C55      1.0000 0.68270  0.32520  0.99670  Biso   1.000  C
  C56      1.0000 0.44110  0.32450  0.06230  Biso   1.000  C
  H5       1.0000 0.40070  0.32570  0.10510  Biso   1.000  H
  O29      1.0000 0.76550  0.16670  0.21400  Biso   1.000  O
  O30      1.0000 0.01710  0.16260  0.28210  Biso   1.000  O
  C57      1.0000 0.88630  0.13540  0.24810  Biso   1.000  C
  C58      1.0000 0.87880  0.06510  0.24930  Biso   1.000  C
  C59      1.0000 0.99560  0.03240  0.29750  Biso   1.000  C
  C60      1.0000 0.75750  0.03330  0.20260  Biso   1.000  C
  N23      1.0000 0.63700  0.05730  0.15030  Biso   1.000  N
  N24      1.0000 0.12300  0.06030  0.33960  Biso   1.000  N
  N25      1.0000 0.85330  0.33910  0.99050  Biso   1.000  N
  Nd6      1.0000 0.51141  0.77641  0.24461  Biso   1.000  Nd
  O31      1.0000 0.67070  0.82620  0.35210  Biso   1.000  O
  O32      1.0000 0.79980  0.73910  0.32500  Biso   1.000  O
  C61      1.0000 0.78250  0.78390  0.36780  Biso   1.000  C
  C62      1.0000 0.89780  0.78420  0.43570  Biso   1.000  C
  C63      1.0000 0.94790  0.84160  0.46780  Biso   1.000  C
  C64      1.0000 0.95120  0.72720  0.46760  Biso   1.000  C
  N26      1.0000 0.90100  0.67360  0.44600  Biso   1.000  N
  N27      1.0000 0.86400  0.90090  0.44810  Biso   1.000  N
  O33      1.0000 0.18540  0.78950  0.17750  Biso   1.000  O
  O34      1.0000 0.40910  0.81700  0.12630  Biso   1.000  O
  C65      1.0000 0.24570  0.80990  0.12420  Biso   1.000  C
  C66      1.0000 0.12190  0.82200  0.06110  Biso   1.000  C
  C67      1.0000 0.18270  0.82520  0.99670  Biso   1.000  C
  C68      1.0000 0.94110  0.82450  0.06230  Biso   1.000  C
  H6       1.0000 0.90070  0.82570  0.10510  Biso   1.000  H
  O35      1.0000 0.26550  0.66670  0.21400  Biso   1.000  O
  O36      1.0000 0.51710  0.66260  0.28210  Biso   1.000  O
  C69      1.0000 0.38630  0.63540  0.24810  Biso   1.000  C
  C70      1.0000 0.37880  0.56510  0.24930  Biso   1.000  C
  C71      1.0000 0.49560  0.53240  0.29750  Biso   1.000  C
  C72      1.0000 0.25750  0.53330  0.20260  Biso   1.000  C
  N28      1.0000 0.13700  0.55730  0.15030  Biso   1.000  N
  N29      1.0000 0.62300  0.56030  0.33960  Biso   1.000  N
  N30      1.0000 0.35330  0.83910  0.99050  Biso   1.000  N
  Nd7      1.0000 0.98859  0.27641  0.75539  Biso   1.000  Nd
  O37      1.0000 0.82930  0.32620  0.64790  Biso   1.000  O
  O38      1.0000 0.70020  0.23910  0.67500  Biso   1.000  O
  C73      1.0000 0.71750  0.28390  0.63220  Biso   1.000  C
  C74      1.0000 0.60220  0.28420  0.56430  Biso   1.000  C
  C75      1.0000 0.55210  0.34160  0.53220  Biso   1.000  C
  C76      1.0000 0.54880  0.22720  0.53240  Biso   1.000  C
  N31      1.0000 0.59900  0.17360  0.55400  Biso   1.000  N
  N32      1.0000 0.63600  0.40090  0.55190  Biso   1.000  N
  O39      1.0000 0.31460  0.28950  0.82250  Biso   1.000  O
  O40      1.0000 0.09090  0.31700  0.87370  Biso   1.000  O
  C77      1.0000 0.25430  0.30990  0.87580  Biso   1.000  C
  C78      1.0000 0.37810  0.32200  0.93890  Biso   1.000  C
  C79      1.0000 0.31730  0.32520  0.00330  Biso   1.000  C
  C80      1.0000 0.55890  0.32450  0.93770  Biso   1.000  C
  H7       1.0000 0.59930  0.32570  0.89490  Biso   1.000  H
  O41      1.0000 0.23450  0.16670  0.78600  Biso   1.000  O
  O42      1.0000 0.98290  0.16260  0.71790  Biso   1.000  O
  C81      1.0000 0.11370  0.13540  0.75190  Biso   1.000  C
  C82      1.0000 0.12120  0.06510  0.75070  Biso   1.000  C
  C83      1.0000 0.00440  0.03240  0.70250  Biso   1.000  C
  C84      1.0000 0.24250  0.03330  0.79740  Biso   1.000  C
  N33      1.0000 0.36300  0.05730  0.84970  Biso   1.000  N
  N34      1.0000 0.87700  0.06030  0.66040  Biso   1.000  N
  N35      1.0000 0.14670  0.33910  0.00950  Biso   1.000  N
  Nd8      1.0000 0.48859  0.77641  0.75539  Biso   1.000  Nd
  O43      1.0000 0.32930  0.82620  0.64790  Biso   1.000  O
  O44      1.0000 0.20020  0.73910  0.67500  Biso   1.000  O
  C85      1.0000 0.21750  0.78390  0.63220  Biso   1.000  C
  C86      1.0000 0.10220  0.78420  0.56430  Biso   1.000  C
  C87      1.0000 0.05210  0.84160  0.53220  Biso   1.000  C
  C88      1.0000 0.04880  0.72720  0.53240  Biso   1.000  C
  N36      1.0000 0.09900  0.67360  0.55400  Biso   1.000  N
  N37      1.0000 0.13600  0.90090  0.55190  Biso   1.000  N
  O45      1.0000 0.81460  0.78950  0.82250  Biso   1.000  O
  O46      1.0000 0.59090  0.81700  0.87370  Biso   1.000  O
  C89      1.0000 0.75430  0.80990  0.87580  Biso   1.000  C
  C90      1.0000 0.87810  0.82200  0.93890  Biso   1.000  C
  C91      1.0000 0.81730  0.82520  0.00330  Biso   1.000  C
  C92      1.0000 0.05890  0.82450  0.93770  Biso   1.000  C
  H8       1.0000 0.09930  0.82570  0.89490  Biso   1.000  H
  O47      1.0000 0.73450  0.66670  0.78600  Biso   1.000  O
  O48      1.0000 0.48290  0.66260  0.71790  Biso   1.000  O
  C93      1.0000 0.61370  0.63540  0.75190  Biso   1.000  C
  C94      1.0000 0.62120  0.56510  0.75070  Biso   1.000  C
  C95      1.0000 0.50440  0.53240  0.70250  Biso   1.000  C
  C96      1.0000 0.74250  0.53330  0.79740  Biso   1.000  C
  N38      1.0000 0.86300  0.55730  0.84970  Biso   1.000  N
  N39      1.0000 0.37700  0.56030  0.66040  Biso   1.000  N
  N40      1.0000 0.64670  0.83910  0.00950  Biso   1.000  N
