data_image0
_cell_length_a       14.5649
_cell_length_b       7.8001
_cell_length_c       16.8042
_cell_angle_alpha    90
_cell_angle_beta     105.718
_cell_angle_gamma    90

_symmetry_space_group_name_H-M    "P 1"
_symmetry_int_tables_number       1

loop_
  _symmetry_equiv_pos_as_xyz
  'x, y, z'

loop_
  _atom_site_label
  _atom_site_occupancy
  _atom_site_fract_x
  _atom_site_fract_y
  _atom_site_fract_z
  _atom_site_thermal_displace_type
  _atom_site_B_iso_or_equiv
  _atom_site_type_symbol
  Cd1      1.0000 0.13330  0.34931  0.15980  Biso   1.000  Cd
  Br1      1.0000 0.57417  0.87434  0.91909  Biso   1.000  Br
  C1       1.0000 0.87470  0.09980  0.04250  Biso   1.000  C
  C2       1.0000 0.84510  0.07460  0.95740  Biso   1.000  C
  H1       1.0000 0.88630  0.10540  0.92460  Biso   1.000  H
  C3       1.0000 0.75630  0.00520  0.92007  Biso   1.000  C
  C4       1.0000 0.69730  0.96260  0.96970  Biso   1.000  C
  C5       1.0000 0.72630  0.98130  0.05450  Biso   1.000  C
  H2       1.0000 0.68600  0.94660  0.08760  Biso   1.000  H
  C6       1.0000 0.81530  0.05150  0.09070  Biso   1.000  C
  H3       1.0000 0.83580  0.06660  0.14890  Biso   1.000  H
  C7       1.0000 0.96910  0.18340  0.07960  Biso   1.000  C
  C8       1.0000 0.72560  0.99450  0.82690  Biso   1.000  C
  C9       1.0000 0.30350  0.53640  0.10550  Biso   1.000  C
  H4       1.0000 0.33390  0.56980  0.16070  Biso   1.000  H
  C10      1.0000 0.20880  0.43350  0.99930  Biso   1.000  C
  H5       1.0000 0.15540  0.37550  0.96470  Biso   1.000  H
  C11      1.0000 0.42140  0.66730  0.03840  Biso   1.000  C
  H6       1.0000 0.43920  0.74580  0.08650  Biso   1.000  H
  H7       1.0000 0.40750  0.73800  0.98760  Biso   1.000  H
  C12      1.0000 0.50530  0.54920  0.04000  Biso   1.000  C
  H8       1.0000 0.56440  0.61870  0.05140  Biso   1.000  H
  H9       1.0000 0.51250  0.46630  0.08590  Biso   1.000  H
  N1       1.0000 0.22370  0.44750  0.08218  Biso   1.000  N
  N2       1.0000 0.27470  0.50730  0.97110  Biso   1.000  N
  N3       1.0000 0.33480  0.57230  0.04070  Biso   1.000  N
  O1       1.0000 0.01338  0.25260  0.03468  Biso   1.000  O
  O2       1.0000 0.00240  0.18060  0.15839  Biso   1.000  O
  O3       1.0000 0.77010  0.89730  0.79154  Biso   1.000  O
  O4       1.0000 0.66182  0.09660  0.79173  Biso   1.000  O
  Cd2      1.0000 0.36670  0.84931  0.34020  Biso   1.000  Cd
  Br2      1.0000 0.92583  0.37434  0.58091  Biso   1.000  Br
  C13      1.0000 0.62530  0.59980  0.45750  Biso   1.000  C
  C14      1.0000 0.65490  0.57460  0.54260  Biso   1.000  C
  H10      1.0000 0.61370  0.60540  0.57540  Biso   1.000  H
  C15      1.0000 0.74370  0.50520  0.57993  Biso   1.000  C
  C16      1.0000 0.80270  0.46260  0.53030  Biso   1.000  C
  C17      1.0000 0.77370  0.48130  0.44550  Biso   1.000  C
  H11      1.0000 0.81400  0.44660  0.41240  Biso   1.000  H
  C18      1.0000 0.68470  0.55150  0.40930  Biso   1.000  C
  H12      1.0000 0.66420  0.56660  0.35110  Biso   1.000  H
  C19      1.0000 0.53090  0.68340  0.42040  Biso   1.000  C
  C20      1.0000 0.77440  0.49450  0.67310  Biso   1.000  C
  C21      1.0000 0.19650  0.03640  0.39450  Biso   1.000  C
  H13      1.0000 0.16610  0.06980  0.33930  Biso   1.000  H
  C22      1.0000 0.29120  0.93350  0.50070  Biso   1.000  C
  H14      1.0000 0.34460  0.87550  0.53530  Biso   1.000  H
  C23      1.0000 0.07860  0.16730  0.46160  Biso   1.000  C
  H15      1.0000 0.06080  0.24580  0.41350  Biso   1.000  H
  H16      1.0000 0.09250  0.23800  0.51240  Biso   1.000  H
  C24      1.0000 0.99470  0.04920  0.46000  Biso   1.000  C
  H17      1.0000 0.93560  0.11870  0.44860  Biso   1.000  H
  H18      1.0000 0.98750  0.96630  0.41410  Biso   1.000  H
  N4       1.0000 0.27630  0.94750  0.41782  Biso   1.000  N
  N5       1.0000 0.22530  0.00730  0.52890  Biso   1.000  N
  N6       1.0000 0.16520  0.07230  0.45930  Biso   1.000  N
  O5       1.0000 0.48662  0.75260  0.46532  Biso   1.000  O
  O6       1.0000 0.49760  0.68060  0.34161  Biso   1.000  O
  O7       1.0000 0.72990  0.39730  0.70846  Biso   1.000  O
  O8       1.0000 0.83818  0.59660  0.70827  Biso   1.000  O
  Cd3      1.0000 0.86670  0.65069  0.84020  Biso   1.000  Cd
  Br3      1.0000 0.42583  0.12566  0.08091  Biso   1.000  Br
  C25      1.0000 0.12530  0.90020  0.95750  Biso   1.000  C
  C26      1.0000 0.15490  0.92540  0.04260  Biso   1.000  C
  H19      1.0000 0.11370  0.89460  0.07540  Biso   1.000  H
  C27      1.0000 0.24370  0.99480  0.07993  Biso   1.000  C
  C28      1.0000 0.30270  0.03740  0.03030  Biso   1.000  C
  C29      1.0000 0.27370  0.01870  0.94550  Biso   1.000  C
  H20      1.0000 0.31400  0.05340  0.91240  Biso   1.000  H
  C30      1.0000 0.18470  0.94850  0.90930  Biso   1.000  C
  H21      1.0000 0.16420  0.93340  0.85110  Biso   1.000  H
  C31      1.0000 0.03090  0.81660  0.92040  Biso   1.000  C
  C32      1.0000 0.27440  0.00550  0.17310  Biso   1.000  C
  C33      1.0000 0.69650  0.46360  0.89450  Biso   1.000  C
  H22      1.0000 0.66610  0.43020  0.83930  Biso   1.000  H
  C34      1.0000 0.79120  0.56650  0.00070  Biso   1.000  C
  H23      1.0000 0.84460  0.62450  0.03530  Biso   1.000  H
  C35      1.0000 0.57860  0.33270  0.96160  Biso   1.000  C
  H24      1.0000 0.56080  0.25420  0.91350  Biso   1.000  H
  H25      1.0000 0.59250  0.26200  0.01240  Biso   1.000  H
  C36      1.0000 0.49470  0.45080  0.96000  Biso   1.000  C
  H26      1.0000 0.43560  0.38130  0.94860  Biso   1.000  H
  H27      1.0000 0.48750  0.53370  0.91410  Biso   1.000  H
  N7       1.0000 0.77630  0.55250  0.91782  Biso   1.000  N
  N8       1.0000 0.72530  0.49270  0.02890  Biso   1.000  N
  N9       1.0000 0.66520  0.42770  0.95930  Biso   1.000  N
  O9       1.0000 0.98662  0.74740  0.96532  Biso   1.000  O
  O10      1.0000 0.99760  0.81940  0.84161  Biso   1.000  O
  O11      1.0000 0.22990  0.10270  0.20846  Biso   1.000  O
  O12      1.0000 0.33818  0.90340  0.20827  Biso   1.000  O
  Cd4      1.0000 0.63330  0.15069  0.65980  Biso   1.000  Cd
  Br4      1.0000 0.07417  0.62566  0.41909  Biso   1.000  Br
  C37      1.0000 0.37470  0.40020  0.54250  Biso   1.000  C
  C38      1.0000 0.34510  0.42540  0.45740  Biso   1.000  C
  H28      1.0000 0.38630  0.39460  0.42460  Biso   1.000  H
  C39      1.0000 0.25630  0.49480  0.42007  Biso   1.000  C
  C40      1.0000 0.19730  0.53740  0.46970  Biso   1.000  C
  C41      1.0000 0.22630  0.51870  0.55450  Biso   1.000  C
  H29      1.0000 0.18600  0.55340  0.58760  Biso   1.000  H
  C42      1.0000 0.31530  0.44850  0.59070  Biso   1.000  C
  H30      1.0000 0.33580  0.43340  0.64890  Biso   1.000  H
  C43      1.0000 0.46910  0.31660  0.57960  Biso   1.000  C
  C44      1.0000 0.22560  0.50550  0.32690  Biso   1.000  C
  C45      1.0000 0.80350  0.96360  0.60550  Biso   1.000  C
  H31      1.0000 0.83390  0.93020  0.66070  Biso   1.000  H
  C46      1.0000 0.70880  0.06650  0.49930  Biso   1.000  C
  H32      1.0000 0.65540  0.12450  0.46470  Biso   1.000  H
  C47      1.0000 0.92140  0.83270  0.53840  Biso   1.000  C
  H33      1.0000 0.93920  0.75420  0.58650  Biso   1.000  H
  H34      1.0000 0.90750  0.76200  0.48760  Biso   1.000  H
  C48      1.0000 0.00530  0.95080  0.54000  Biso   1.000  C
  H35      1.0000 0.06440  0.88130  0.55140  Biso   1.000  H
  H36      1.0000 0.01250  0.03370  0.58590  Biso   1.000  H
  N10      1.0000 0.72370  0.05250  0.58218  Biso   1.000  N
  N11      1.0000 0.77470  0.99270  0.47110  Biso   1.000  N
  N12      1.0000 0.83480  0.92770  0.54070  Biso   1.000  N
  O13      1.0000 0.51338  0.24740  0.53468  Biso   1.000  O
  O14      1.0000 0.50240  0.31940  0.65839  Biso   1.000  O
  O15      1.0000 0.27010  0.60270  0.29154  Biso   1.000  O
  O16      1.0000 0.16182  0.40340  0.29173  Biso   1.000  O
