data_image0
_cell_length_a       12.219
_cell_length_b       12.815
_cell_length_c       20.585
_cell_angle_alpha    95.187
_cell_angle_beta     92.184
_cell_angle_gamma    105.724

_symmetry_space_group_name_H-M    "P 1"
_symmetry_int_tables_number       1

loop_
  _symmetry_equiv_pos_as_xyz
  'x, y, z'

loop_
  _atom_site_label
  _atom_site_occupancy
  _atom_site_fract_x
  _atom_site_fract_y
  _atom_site_fract_z
  _atom_site_thermal_displace_type
  _atom_site_B_iso_or_equiv
  _atom_site_type_symbol
  Cd1      1.0000 0.29108  0.68231  0.23629  Biso   1.000  Cd
  Cd2      1.0000 0.77683  0.54427  0.28985  Biso   1.000  Cd
  S1       1.0000 0.54351  0.17446  0.50112  Biso   1.000  S
  S2       1.0000 0.37210  0.11449  0.48035  Biso   1.000  S
  S3       1.0000 0.93323  0.11714  0.07024  Biso   1.000  S
  S4       1.0000 0.06972  0.20991  0.02796  Biso   1.000  S
  O1       1.0000 0.46140  0.79250  0.19160  Biso   1.000  O
  O2       1.0000 0.29530  0.77060  0.13998  Biso   1.000  O
  O3       1.0000 0.25900  0.57360  0.33290  Biso   1.000  O
  O4       1.0000 0.43220  0.63160  0.29950  Biso   1.000  O
  O5       1.0000 0.76190  0.42350  0.18712  Biso   1.000  O
  O6       1.0000 0.86880  0.59690  0.19830  Biso   1.000  O
  O7       1.0000 0.79470  0.72940  0.32480  Biso   1.000  O
  O8       1.0000 0.88550  0.65370  0.38750  Biso   1.000  O
  N1       1.0000 0.68900  0.41840  0.35680  Biso   1.000  N
  N2       1.0000 0.32330  0.82920  0.31780  Biso   1.000  N
  N3       1.0000 0.22520  0.51890  0.17040  Biso   1.000  N
  N4       1.0000 0.04740  0.85160  0.16860  Biso   1.000  N
  C1       1.0000 0.70990  0.32660  0.45150  Biso   1.000  C
  H1       1.0000 0.75570  0.31420  0.48540  Biso   1.000  H
  C2       1.0000 0.59420  0.26880  0.44320  Biso   1.000  C
  C3       1.0000 0.52330  0.28860  0.39330  Biso   1.000  C
  H2       1.0000 0.44530  0.25520  0.38770  Biso   1.000  H
  C4       1.0000 0.58410  0.36620  0.35130  Biso   1.000  C
  H3       1.0000 0.54140  0.37950  0.31620  Biso   1.000  H
  C5       1.0000 0.75320  0.39850  0.41110  Biso   1.000  C
  H4       1.0000 0.82930  0.43820  0.41830  Biso   1.000  H
  C6       1.0000 0.39470  0.81140  0.14540  Biso   1.000  C
  C7       1.0000 0.45140  0.89210  0.09620  Biso   1.000  C
  C8       1.0000 0.56140  0.96480  0.11150  Biso   1.000  C
  H5       1.0000 0.60230  0.96310  0.15020  Biso   1.000  H
  C9       1.0000 0.60510  0.03570  0.06940  Biso   1.000  C
  H6       1.0000 0.67370  0.08730  0.08260  Biso   1.000  H
  C10      1.0000 0.55840  0.03940  0.00880  Biso   1.000  C
  C11      1.0000 0.39470  0.88880  0.03730  Biso   1.000  C
  H7       1.0000 0.32410  0.83840  0.02740  Biso   1.000  H
  C12      1.0000 0.26600  0.50060  0.11030  Biso   1.000  C
  H8       1.0000 0.32460  0.55610  0.09720  Biso   1.000  H
  C13      1.0000 0.22650  0.40490  0.06720  Biso   1.000  C
  H9       1.0000 0.26100  0.39380  0.02860  Biso   1.000  H
  C14      1.0000 0.13220  0.32790  0.08610  Biso   1.000  C
  C15      1.0000 0.08740  0.34510  0.14750  Biso   1.000  C
  H10      1.0000 0.02720  0.29190  0.16130  Biso   1.000  H
  C16      1.0000 0.13310  0.43910  0.18570  Biso   1.000  C
  H11      1.0000 0.10000  0.45050  0.22470  Biso   1.000  H
  C17      1.0000 0.11850  0.91680  0.13040  Biso   1.000  C
  H12      1.0000 0.18890  0.90490  0.12280  Biso   1.000  H
  C18      1.0000 0.08790  0.00280  0.10180  Biso   1.000  C
  H13      1.0000 0.14000  0.04960  0.07840  Biso   1.000  H
  C19      1.0000 0.98170  0.01630  0.10880  Biso   1.000  C
  C20      1.0000 0.91290  0.95210  0.14470  Biso   1.000  C
  H14      1.0000 0.83980  0.95910  0.14970  Biso   1.000  H
  C21      1.0000 0.36550  0.58620  0.33570  Biso   1.000  C
  C22      1.0000 0.45180  0.99280  0.37890  Biso   1.000  C
  H15      1.0000 0.52410  0.04140  0.38580  Biso   1.000  H
  C23      1.0000 0.42600  0.90370  0.33020  Biso   1.000  C
  H16      1.0000 0.48440  0.89520  0.30440  Biso   1.000  H
  C24      1.0000 0.35950  0.00350  0.41680  Biso   1.000  C
  C25      1.0000 0.25810  0.93090  0.40950  Biso   1.000  C
  H17      1.0000 0.19980  0.93610  0.43630  Biso   1.000  H
  C26      1.0000 0.87660  0.48550  0.09860  Biso   1.000  C
  C27      1.0000 0.97800  0.56620  0.07970  Biso   1.000  C
  H18      1.0000 0.01060  0.62920  0.10760  Biso   1.000  H
  C28      1.0000 0.02770  0.54870  0.01840  Biso   1.000  C
  C29      1.0000 0.12240  0.63120  0.99920  Biso   1.000  C
  C30      1.0000 0.83550  0.38530  0.05910  Biso   1.000  C
  C31      1.0000 0.83240  0.50180  0.16490  Biso   1.000  C
  C32      1.0000 0.40240  0.54340  0.40190  Biso   1.000  C
  C33      1.0000 0.86410  0.73430  0.37380  Biso   1.000  C
  C34      1.0000 0.90230  0.84210  0.41630  Biso   1.000  C
  C35      1.0000 0.87360  0.93520  0.39550  Biso   1.000  C
  H19      1.0000 0.82990  0.92860  0.35660  Biso   1.000  H
  C36      1.0000 0.95950  0.84830  0.47210  Biso   1.000  C
  H20      1.0000 0.96610  0.78440  0.48800  Biso   1.000  H
  C37      1.0000 0.94850  0.87310  0.17550  Biso   1.000  C
  H21      1.0000 0.89890  0.83270  0.20300  Biso   1.000  H
  C38      1.0000 0.24260  0.84220  0.35720  Biso   1.000  C
  H22      1.0000 0.17160  0.79130  0.35090  Biso   1.000  H
  C39      1.0000 0.54010  0.53620  0.48960  Biso   1.000  C
  C40      1.0000 0.64790  0.58490  0.51220  Biso   1.000  C
  H23      1.0000 0.69910  0.64080  0.49420  Biso   1.000  H
  C41      1.0000 0.90980  0.03430  0.43230  Biso   1.000  C
  C42      1.0000 0.01370  0.95340  0.51050  Biso   1.000  C
  C43      1.0000 0.33020  0.46440  0.43150  Biso   1.000  C
  H24      1.0000 0.25640  0.43920  0.41230  Biso   1.000  H
  C44      1.0000 0.53090  0.59390  0.42310  Biso   1.000  C
  H25      1.0000 0.58680  0.64330  0.40330  Biso   1.000  H
  Cd3      1.0000 0.70892  0.31769  0.76371  Biso   1.000  Cd
  Cd4      1.0000 0.22317  0.45573  0.71015  Biso   1.000  Cd
  S5       1.0000 0.45649  0.82554  0.49888  Biso   1.000  S
  S6       1.0000 0.62790  0.88551  0.51965  Biso   1.000  S
  S7       1.0000 0.06677  0.88286  0.92976  Biso   1.000  S
  S8       1.0000 0.93028  0.79009  0.97204  Biso   1.000  S
  O9       1.0000 0.53860  0.20750  0.80840  Biso   1.000  O
  O10      1.0000 0.70470  0.22940  0.86002  Biso   1.000  O
  O11      1.0000 0.74100  0.42640  0.66710  Biso   1.000  O
  O12      1.0000 0.56780  0.36840  0.70050  Biso   1.000  O
  O13      1.0000 0.23810  0.57650  0.81288  Biso   1.000  O
  O14      1.0000 0.13120  0.40310  0.80170  Biso   1.000  O
  O15      1.0000 0.20530  0.27060  0.67520  Biso   1.000  O
  O16      1.0000 0.11450  0.34630  0.61250  Biso   1.000  O
  N5       1.0000 0.31100  0.58160  0.64320  Biso   1.000  N
  N6       1.0000 0.67670  0.17080  0.68220  Biso   1.000  N
  N7       1.0000 0.77480  0.48110  0.82960  Biso   1.000  N
  N8       1.0000 0.95260  0.14840  0.83140  Biso   1.000  N
  C45      1.0000 0.29010  0.67340  0.54850  Biso   1.000  C
  H26      1.0000 0.24430  0.68580  0.51460  Biso   1.000  H
  C46      1.0000 0.40580  0.73120  0.55680  Biso   1.000  C
  C47      1.0000 0.47670  0.71140  0.60670  Biso   1.000  C
  H27      1.0000 0.55470  0.74480  0.61230  Biso   1.000  H
  C48      1.0000 0.41590  0.63380  0.64870  Biso   1.000  C
  H28      1.0000 0.45860  0.62050  0.68380  Biso   1.000  H
  C49      1.0000 0.24680  0.60150  0.58890  Biso   1.000  C
  H29      1.0000 0.17070  0.56180  0.58170  Biso   1.000  H
  C50      1.0000 0.60530  0.18860  0.85460  Biso   1.000  C
  C51      1.0000 0.54860  0.10790  0.90380  Biso   1.000  C
  C52      1.0000 0.43860  0.03520  0.88850  Biso   1.000  C
  H30      1.0000 0.39770  0.03690  0.84980  Biso   1.000  H
  C53      1.0000 0.39490  0.96430  0.93060  Biso   1.000  C
  H31      1.0000 0.32630  0.91270  0.91740  Biso   1.000  H
  C54      1.0000 0.44160  0.96060  0.99120  Biso   1.000  C
  C55      1.0000 0.60530  0.11120  0.96270  Biso   1.000  C
  H32      1.0000 0.67590  0.16160  0.97260  Biso   1.000  H
  C56      1.0000 0.73400  0.49940  0.88970  Biso   1.000  C
  H33      1.0000 0.67540  0.44390  0.90280  Biso   1.000  H
  C57      1.0000 0.77350  0.59510  0.93280  Biso   1.000  C
  H34      1.0000 0.73900  0.60620  0.97140  Biso   1.000  H
  C58      1.0000 0.86780  0.67210  0.91390  Biso   1.000  C
  C59      1.0000 0.91260  0.65490  0.85250  Biso   1.000  C
  H35      1.0000 0.97280  0.70810  0.83870  Biso   1.000  H
  C60      1.0000 0.86690  0.56090  0.81430  Biso   1.000  C
  H36      1.0000 0.90000  0.54950  0.77530  Biso   1.000  H
  C61      1.0000 0.88150  0.08320  0.86960  Biso   1.000  C
  H37      1.0000 0.81110  0.09510  0.87720  Biso   1.000  H
  C62      1.0000 0.91210  0.99720  0.89820  Biso   1.000  C
  H38      1.0000 0.86000  0.95040  0.92160  Biso   1.000  H
  C63      1.0000 0.01830  0.98370  0.89120  Biso   1.000  C
  C64      1.0000 0.08710  0.04790  0.85530  Biso   1.000  C
  H39      1.0000 0.16020  0.04090  0.85030  Biso   1.000  H
  C65      1.0000 0.63450  0.41380  0.66430  Biso   1.000  C
  C66      1.0000 0.54820  0.00720  0.62110  Biso   1.000  C
  H40      1.0000 0.47590  0.95860  0.61420  Biso   1.000  H
  C67      1.0000 0.57400  0.09630  0.66980  Biso   1.000  C
  H41      1.0000 0.51560  0.10480  0.69560  Biso   1.000  H
  C68      1.0000 0.64050  0.99650  0.58320  Biso   1.000  C
  C69      1.0000 0.74190  0.06910  0.59050  Biso   1.000  C
  H42      1.0000 0.80020  0.06390  0.56370  Biso   1.000  H
  C70      1.0000 0.12340  0.51450  0.90140  Biso   1.000  C
  C71      1.0000 0.02200  0.43380  0.92030  Biso   1.000  C
  H43      1.0000 0.98940  0.37080  0.89240  Biso   1.000  H
  C72      1.0000 0.97230  0.45130  0.98160  Biso   1.000  C
  C73      1.0000 0.87760  0.36880  0.00080  Biso   1.000  C
  C74      1.0000 0.16450  0.61470  0.94090  Biso   1.000  C
  C75      1.0000 0.16760  0.49820  0.83510  Biso   1.000  C
  C76      1.0000 0.59760  0.45660  0.59810  Biso   1.000  C
  C77      1.0000 0.13590  0.26570  0.62620  Biso   1.000  C
  C78      1.0000 0.09770  0.15790  0.58370  Biso   1.000  C
  C79      1.0000 0.12640  0.06480  0.60450  Biso   1.000  C
  H44      1.0000 0.17010  0.07140  0.64340  Biso   1.000  H
  C80      1.0000 0.04050  0.15170  0.52790  Biso   1.000  C
  H45      1.0000 0.03390  0.21560  0.51200  Biso   1.000  H
  C81      1.0000 0.05150  0.12690  0.82450  Biso   1.000  C
  H46      1.0000 0.10110  0.16730  0.79700  Biso   1.000  H
  C82      1.0000 0.75740  0.15780  0.64280  Biso   1.000  C
  H47      1.0000 0.82840  0.20870  0.64910  Biso   1.000  H
  C83      1.0000 0.45990  0.46380  0.51040  Biso   1.000  C
  C84      1.0000 0.35210  0.41510  0.48780  Biso   1.000  C
  H48      1.0000 0.30090  0.35920  0.50580  Biso   1.000  H
  C85      1.0000 0.09020  0.96570  0.56770  Biso   1.000  C
  C86      1.0000 0.98630  0.04660  0.48950  Biso   1.000  C
  C87      1.0000 0.66980  0.53560  0.56850  Biso   1.000  C
  H49      1.0000 0.74360  0.56080  0.58770  Biso   1.000  H
  C88      1.0000 0.46910  0.40610  0.57690  Biso   1.000  C
  H50      1.0000 0.41320  0.35670  0.59670  Biso   1.000  H
