data_image0
_cell_length_a       15.466
_cell_length_b       8.0557
_cell_length_c       18.445
_cell_angle_alpha    90
_cell_angle_beta     123.605
_cell_angle_gamma    90

_symmetry_space_group_name_H-M    "P 1"
_symmetry_int_tables_number       1

loop_
  _symmetry_equiv_pos_as_xyz
  'x, y, z'

loop_
  _atom_site_label
  _atom_site_occupancy
  _atom_site_fract_x
  _atom_site_fract_y
  _atom_site_fract_z
  _atom_site_thermal_displace_type
  _atom_site_B_iso_or_equiv
  _atom_site_type_symbol
  Cd1      1.0000 0.02571  0.61005  0.86584  Biso   1.000  Cd
  Br1      1.0000 0.67401  0.79390  0.64821  Biso   1.000  Br
  C1       1.0000 0.84470  0.96870  0.79020  Biso   1.000  C
  C2       1.0000 0.89330  0.05780  0.86820  Biso   1.000  C
  H1       1.0000 0.95940  0.10070  0.89140  Biso   1.000  H
  C3       1.0000 0.84450  0.08330  0.91150  Biso   1.000  C
  C4       1.0000 0.74720  0.01390  0.87780  Biso   1.000  C
  H2       1.0000 0.71510  0.02670  0.90770  Biso   1.000  H
  C5       1.0000 0.69750  0.92670  0.80090  Biso   1.000  C
  H3       1.0000 0.63190  0.88220  0.77840  Biso   1.000  H
  C6       1.0000 0.74640  0.90580  0.75720  Biso   1.000  C
  C7       1.0000 0.90070  0.94880  0.74410  Biso   1.000  C
  C8       1.0000 0.89460  0.18890  0.99240  Biso   1.000  C
  C9       1.0000 0.81960  0.39960  0.72870  Biso   1.000  C
  H4       1.0000 0.84630  0.37250  0.69580  Biso   1.000  H
  C10      1.0000 0.79890  0.49550  0.82330  Biso   1.000  C
  H5       1.0000 0.81180  0.55100  0.87260  Biso   1.000  H
  C11      1.0000 0.64400  0.26470  0.63210  Biso   1.000  C
  H6       1.0000 0.60700  0.19280  0.64840  Biso   1.000  H
  H7       1.0000 0.67500  0.19570  0.60930  Biso   1.000  H
  C12      1.0000 0.56830  0.38490  0.56240  Biso   1.000  C
  C13      1.0000 0.47990  0.43550  0.55750  Biso   1.000  C
  H8       1.0000 0.46500  0.39180  0.59600  Biso   1.000  H
  C14      1.0000 0.58670  0.44940  0.50410  Biso   1.000  C
  H9       1.0000 0.64510  0.41560  0.50560  Biso   1.000  H
  N1       1.0000 0.86840  0.48920  0.80150  Biso   1.000  N
  N2       1.0000 0.71100  0.41730  0.76980  Biso   1.000  N
  N3       1.0000 0.72670  0.35500  0.71010  Biso   1.000  N
  O1       1.0000 0.96260  0.83250  0.76390  Biso   1.000  O
  O2       1.0000 0.87940  0.05800  0.68780  Biso   1.000  O
  O3       1.0000 0.97630  0.26810  0.01653  Biso   1.000  O
  O4       1.0000 0.85270  0.19380  0.03530  Biso   1.000  O
  Cd2      1.0000 0.97429  0.11005  0.63416  Biso   1.000  Cd
  Br2      1.0000 0.32599  0.29390  0.85179  Biso   1.000  Br
  C15      1.0000 0.15530  0.46870  0.70980  Biso   1.000  C
  C16      1.0000 0.10670  0.55780  0.63180  Biso   1.000  C
  H10      1.0000 0.04060  0.60070  0.60860  Biso   1.000  H
  C17      1.0000 0.15550  0.58330  0.58850  Biso   1.000  C
  C18      1.0000 0.25280  0.51390  0.62220  Biso   1.000  C
  H11      1.0000 0.28490  0.52670  0.59230  Biso   1.000  H
  C19      1.0000 0.30250  0.42670  0.69910  Biso   1.000  C
  H12      1.0000 0.36810  0.38220  0.72160  Biso   1.000  H
  C20      1.0000 0.25360  0.40580  0.74280  Biso   1.000  C
  C21      1.0000 0.09930  0.44880  0.75590  Biso   1.000  C
  C22      1.0000 0.10540  0.68890  0.50760  Biso   1.000  C
  C23      1.0000 0.18040  0.89960  0.77130  Biso   1.000  C
  H13      1.0000 0.15370  0.87250  0.80420  Biso   1.000  H
  C24      1.0000 0.20110  0.99550  0.67670  Biso   1.000  C
  H14      1.0000 0.18820  0.05100  0.62740  Biso   1.000  H
  C25      1.0000 0.35600  0.76470  0.86790  Biso   1.000  C
  H15      1.0000 0.39300  0.69280  0.85160  Biso   1.000  H
  H16      1.0000 0.32500  0.69570  0.89070  Biso   1.000  H
  C26      1.0000 0.43170  0.88490  0.93760  Biso   1.000  C
  C27      1.0000 0.52010  0.93550  0.94250  Biso   1.000  C
  H17      1.0000 0.53500  0.89180  0.90400  Biso   1.000  H
  C28      1.0000 0.41330  0.94940  0.99590  Biso   1.000  C
  H18      1.0000 0.35490  0.91560  0.99440  Biso   1.000  H
  N4       1.0000 0.13160  0.98920  0.69850  Biso   1.000  N
  N5       1.0000 0.28900  0.91730  0.73020  Biso   1.000  N
  N6       1.0000 0.27330  0.85500  0.78990  Biso   1.000  N
  O5       1.0000 0.03740  0.33250  0.73610  Biso   1.000  O
  O6       1.0000 0.12060  0.55800  0.81220  Biso   1.000  O
  O7       1.0000 0.02370  0.76810  0.48347  Biso   1.000  O
  O8       1.0000 0.14730  0.69380  0.46470  Biso   1.000  O
  Cd3      1.0000 0.97429  0.38995  0.13416  Biso   1.000  Cd
  Br3      1.0000 0.32599  0.20610  0.35179  Biso   1.000  Br
  C29      1.0000 0.15530  0.03130  0.20980  Biso   1.000  C
  C30      1.0000 0.10670  0.94220  0.13180  Biso   1.000  C
  H19      1.0000 0.04060  0.89930  0.10860  Biso   1.000  H
  C31      1.0000 0.15550  0.91670  0.08850  Biso   1.000  C
  C32      1.0000 0.25280  0.98610  0.12220  Biso   1.000  C
  H20      1.0000 0.28490  0.97330  0.09230  Biso   1.000  H
  C33      1.0000 0.30250  0.07330  0.19910  Biso   1.000  C
  H21      1.0000 0.36810  0.11780  0.22160  Biso   1.000  H
  C34      1.0000 0.25360  0.09420  0.24280  Biso   1.000  C
  C35      1.0000 0.09930  0.05120  0.25590  Biso   1.000  C
  C36      1.0000 0.10540  0.81110  0.00760  Biso   1.000  C
  C37      1.0000 0.18040  0.60040  0.27130  Biso   1.000  C
  H22      1.0000 0.15370  0.62750  0.30420  Biso   1.000  H
  C38      1.0000 0.20110  0.50450  0.17670  Biso   1.000  C
  H23      1.0000 0.18820  0.44900  0.12740  Biso   1.000  H
  C39      1.0000 0.35600  0.73530  0.36790  Biso   1.000  C
  H24      1.0000 0.39300  0.80720  0.35160  Biso   1.000  H
  H25      1.0000 0.32500  0.80430  0.39070  Biso   1.000  H
  C40      1.0000 0.43170  0.61510  0.43760  Biso   1.000  C
  C41      1.0000 0.52010  0.56450  0.44250  Biso   1.000  C
  H26      1.0000 0.53500  0.60820  0.40400  Biso   1.000  H
  C42      1.0000 0.41330  0.55060  0.49590  Biso   1.000  C
  H27      1.0000 0.35490  0.58440  0.49440  Biso   1.000  H
  N7       1.0000 0.13160  0.51080  0.19850  Biso   1.000  N
  N8       1.0000 0.28900  0.58270  0.23020  Biso   1.000  N
  N9       1.0000 0.27330  0.64500  0.28990  Biso   1.000  N
  O9       1.0000 0.03740  0.16750  0.23610  Biso   1.000  O
  O10      1.0000 0.12060  0.94200  0.31220  Biso   1.000  O
  O11      1.0000 0.02370  0.73190  0.98347  Biso   1.000  O
  O12      1.0000 0.14730  0.80620  0.96470  Biso   1.000  O
  Cd4      1.0000 0.02571  0.88995  0.36584  Biso   1.000  Cd
  Br4      1.0000 0.67401  0.70610  0.14821  Biso   1.000  Br
  C43      1.0000 0.84470  0.53130  0.29020  Biso   1.000  C
  C44      1.0000 0.89330  0.44220  0.36820  Biso   1.000  C
  H28      1.0000 0.95940  0.39930  0.39140  Biso   1.000  H
  C45      1.0000 0.84450  0.41670  0.41150  Biso   1.000  C
  C46      1.0000 0.74720  0.48610  0.37780  Biso   1.000  C
  H29      1.0000 0.71510  0.47330  0.40770  Biso   1.000  H
  C47      1.0000 0.69750  0.57330  0.30090  Biso   1.000  C
  H30      1.0000 0.63190  0.61780  0.27840  Biso   1.000  H
  C48      1.0000 0.74640  0.59420  0.25720  Biso   1.000  C
  C49      1.0000 0.90070  0.55120  0.24410  Biso   1.000  C
  C50      1.0000 0.89460  0.31110  0.49240  Biso   1.000  C
  C51      1.0000 0.81960  0.10040  0.22870  Biso   1.000  C
  H31      1.0000 0.84630  0.12750  0.19580  Biso   1.000  H
  C52      1.0000 0.79890  0.00450  0.32330  Biso   1.000  C
  H32      1.0000 0.81180  0.94900  0.37260  Biso   1.000  H
  C53      1.0000 0.64400  0.23530  0.13210  Biso   1.000  C
  H33      1.0000 0.60700  0.30720  0.14840  Biso   1.000  H
  H34      1.0000 0.67500  0.30430  0.10930  Biso   1.000  H
  C54      1.0000 0.56830  0.11510  0.06240  Biso   1.000  C
  C55      1.0000 0.47990  0.06450  0.05750  Biso   1.000  C
  H35      1.0000 0.46500  0.10820  0.09600  Biso   1.000  H
  C56      1.0000 0.58670  0.05060  0.00410  Biso   1.000  C
  H36      1.0000 0.64510  0.08440  0.00560  Biso   1.000  H
  N10      1.0000 0.86840  0.01080  0.30150  Biso   1.000  N
  N11      1.0000 0.71100  0.08270  0.26980  Biso   1.000  N
  N12      1.0000 0.72670  0.14500  0.21010  Biso   1.000  N
  O13      1.0000 0.96260  0.66750  0.26390  Biso   1.000  O
  O14      1.0000 0.87940  0.44200  0.18780  Biso   1.000  O
  O15      1.0000 0.97630  0.23190  0.51653  Biso   1.000  O
  O16      1.0000 0.85270  0.30620  0.53530  Biso   1.000  O
