data_ja073612tsi20070723_060520_clean
_audit_creation_date              2015-08-19
_audit_creation_method            'Materials Studio'
_symmetry_space_group_name_H-M    'P1'
_symmetry_Int_Tables_number       1
_symmetry_cell_setting            triclinic
loop_
_symmetry_equiv_pos_as_xyz
  x,y,z
_cell_length_a                    12.9100
_cell_length_b                    13.1800
_cell_length_c                    14.5905
_cell_angle_alpha                 116.8500
_cell_angle_beta                  113.5460
_cell_angle_gamma                 90.0000
loop_
_atom_site_label
_atom_site_type_symbol
_atom_site_fract_x
_atom_site_fract_y
_atom_site_fract_z
_atom_site_U_iso_or_equiv
_atom_site_adp_type
_atom_site_occupancy
Mn1    Mn    0.75000   0.97370   0.00000   0.01267  Uiso   1.00
Mn2    Mn    0.53490   0.28096   0.57732   0.01267  Uiso   1.00
Mn3    Mn    0.03490   0.29636   0.57732   0.01267  Uiso   1.00
Mn4    Mn    0.96510   0.70364   0.42268   0.01267  Uiso   1.00
Mn5    Mn    0.25000   0.02630   0.00000   0.01267  Uiso   1.00
Mn6    Mn    0.46510   0.71904   0.42268   0.01267  Uiso   1.00
Mo1    Mo    0.65034   0.33974   0.28316   0.01267  Uiso   1.00
Mo2    Mo    0.84966   0.05658   0.71684   0.01267  Uiso   1.00
Mo3    Mo    0.34966   0.66026   0.71684   0.01267  Uiso   1.00
Mo4    Mo    0.15034   0.94342   0.28316   0.01267  Uiso   1.00
C1     C     0.12200   0.76630   0.14660   0.01267  Uiso   1.00
C2     C     0.89300   0.92260   0.59460   0.01267  Uiso   1.00
C3     C     0.39300   0.67200   0.59460   0.01267  Uiso   1.00
C4     C     0.78900   0.48710   0.36820   0.01267  Uiso   1.00
C5     C     0.98060   0.93970   0.16640   0.01267  Uiso   1.00
C6     C     0.01940   0.06030   0.83360   0.01267  Uiso   1.00
C7     C     0.06360   0.84570   0.32840   0.01267  Uiso   1.00
C8     C     0.19200   0.97450   0.17020   0.01267  Uiso   1.00
C9     C     0.37800   0.61970   0.85340   0.01267  Uiso   1.00
C10    C     0.21100   0.51290   0.63180   0.01267  Uiso   1.00
C11    C     0.10700   0.07740   0.40540   0.01267  Uiso   1.00
C12    C     0.56360   0.48270   0.32840   0.01267  Uiso   1.00
C13    C     0.70500   0.91420   0.61040   0.01267  Uiso   1.00
C14    C     0.71100   0.11890   0.63180   0.01267  Uiso   1.00
C15    C     0.20500   0.69620   0.61040   0.01267  Uiso   1.00
C16    C     0.30800   0.80430   0.82980   0.01267  Uiso   1.00
C17    C     0.69200   0.19570   0.17020   0.01267  Uiso   1.00
C18    C     0.43640   0.51730   0.67160   0.01267  Uiso   1.00
C19    C     0.80800   0.02550   0.82980   0.01267  Uiso   1.00
C20    C     0.51940   0.77330   0.83360   0.01267  Uiso   1.00
C21    C     0.60700   0.32800   0.40540   0.01267  Uiso   1.00
C22    C     0.62200   0.38030   0.14660   0.01267  Uiso   1.00
C23    C     0.87800   0.23370   0.85340   0.01267  Uiso   1.00
C24    C     0.28900   0.88110   0.36820   0.01267  Uiso   1.00
C25    C     0.48060   0.22670   0.16640   0.01267  Uiso   1.00
C26    C     0.93640   0.15430   0.67160   0.01267  Uiso   1.00
C27    C     0.79500   0.30380   0.38960   0.01267  Uiso   1.00
C28    C     0.29500   0.08580   0.38960   0.01267  Uiso   1.00
N1     N     0.71000   0.11440   0.10680   0.01267  Uiso   1.00
N2     N     0.60920   0.83470   0.89720   0.01267  Uiso   1.00
N3     N     0.89100   0.32820   0.92040   0.01267  Uiso   1.00
N4     N     0.39080   0.16530   0.10280   0.01267  Uiso   1.00
N5     N     0.21000   0.99240   0.10680   0.01267  Uiso   1.00
N6     N     0.97860   0.20740   0.64680   0.01267  Uiso   1.00
N7     N     0.89080   0.93750   0.10280   0.01267  Uiso   1.00
N8     N     0.62500   0.83960   0.55140   0.01267  Uiso   1.00
N9     N     0.41700   0.68000   0.53000   0.01267  Uiso   1.00
N10    N     0.58300   0.32000   0.47000   0.01267  Uiso   1.00
N11    N     0.29000   0.88560   0.89320   0.01267  Uiso   1.00
N12    N     0.10900   0.67180   0.07960   0.01267  Uiso   1.00
N13    N     0.79000   0.00760   0.89320   0.01267  Uiso   1.00
N14    N     0.47860   0.43940   0.64680   0.01267  Uiso   1.00
N15    N     0.64150   0.16060   0.59220   0.01267  Uiso   1.00
N16    N     0.10920   0.06250   0.89720   0.01267  Uiso   1.00
N17    N     0.91700   0.85000   0.53000   0.01267  Uiso   1.00
N18    N     0.87500   0.28820   0.44860   0.01267  Uiso   1.00
N19    N     0.52140   0.56060   0.35320   0.01267  Uiso   1.00
N20    N     0.02140   0.79260   0.35320   0.01267  Uiso   1.00
N21    N     0.39100   0.59220   0.92040   0.01267  Uiso   1.00
N22    N     0.85850   0.56840   0.40780   0.01267  Uiso   1.00
N23    N     0.12500   0.71180   0.55140   0.01267  Uiso   1.00
N24    N     0.08300   0.15000   0.47000   0.01267  Uiso   1.00
N25    N     0.35850   0.83940   0.40780   0.01267  Uiso   1.00
N26    N     0.60900   0.40780   0.07960   0.01267  Uiso   1.00
N27    N     0.14150   0.43160   0.59220   0.01267  Uiso   1.00
N28    N     0.37500   0.16040   0.44860   0.01267  Uiso   1.00
