data_ja302340b_si_002_clean
_audit_creation_date              2015-08-19
_audit_creation_method            'Materials Studio'
_symmetry_space_group_name_H-M    'P1'
_symmetry_Int_Tables_number       1
_symmetry_cell_setting            triclinic
loop_
_symmetry_equiv_pos_as_xyz
  x,y,z
_cell_length_a                    14.4300
_cell_length_b                    21.6902
_cell_length_c                    30.6450
_cell_angle_alpha                 86.0356
_cell_angle_beta                  78.0040
_cell_angle_gamma                 70.5710
loop_
_atom_site_label
_atom_site_type_symbol
_atom_site_fract_x
_atom_site_fract_y
_atom_site_fract_z
_atom_site_U_iso_or_equiv
_atom_site_adp_type
_atom_site_occupancy
Cd1    Cd    0.66101   0.67798   0.50000   0.01267  Uiso   1.00
Cd2    Cd    0.47665   0.55792   0.50652   0.01267  Uiso   1.00
Cd3    Cd    0.95278   0.09444   0.00000   0.01267  Uiso   1.00
Cd4    Cd    0.74652   0.50696   0.50000   0.01267  Uiso   1.00
Cd5    Cd    0.96543   0.55792   0.49348   0.01267  Uiso   1.00
Cd6    Cd    0.03802   0.92396  -0.00000   0.01267  Uiso   1.00
Cd7    Cd    0.22191   0.04578   0.99494   0.01267  Uiso   1.00
Cd8    Cd    0.73231   0.04578   0.00506   0.01267  Uiso   1.00
Ni1    Ni    0.47276   0.70768   0.77323   0.01267  Uiso   1.00
Ni2    Ni    0.88044   0.89492   0.27112   0.01267  Uiso   1.00
Ni3    Ni    0.69957   0.39226   0.77863   0.01267  Uiso   1.00
Ni4    Ni    0.90817   0.39226   0.22137   0.01267  Uiso   1.00
Ni5    Ni    0.99686   0.21248   0.72115   0.01267  Uiso   1.00
Ni6    Ni    0.79066   0.21248   0.27885   0.01267  Uiso   1.00
Ni7    Ni    0.81956   0.70768   0.22677   0.01267  Uiso   1.00
Ni8    Ni    0.22464   0.89492   0.72888   0.01267  Uiso   1.00
H1     H     0.43830   0.73920   0.24520   0.01267  Uiso   1.00
H2     H     0.30590   0.66780   0.67210   0.01267  Uiso   1.00
H3     H     0.02630   0.66780   0.32790   0.01267  Uiso   1.00
H4     H     0.70100   0.83040   0.34050   0.01267  Uiso   1.00
H5     H     0.18110   0.78500   0.35360   0.01267  Uiso   1.00
H6     H     0.43300   0.30100   0.96220   0.01267  Uiso   1.00
H7     H     0.85710   0.13160   0.73260   0.01267  Uiso   1.00
H8     H     0.31930   0.25860   0.73760   0.01267  Uiso   1.00
H9     H     0.41220   0.11480   0.79360   0.01267  Uiso   1.00
H10    H     0.18090   0.43600   0.09690   0.01267  Uiso   1.00
H11    H     0.90100   0.23720   0.10910   0.01267  Uiso   1.00
H12    H     0.74520   0.99500   0.80880   0.01267  Uiso   1.00
H13    H     0.06610   0.94420   0.38170   0.01267  Uiso   1.00
H14    H     0.18150   0.35500   0.24140   0.01267  Uiso   1.00
H15    H     0.30380   0.45760   0.26070   0.01267  Uiso   1.00
H16    H     0.09540   0.98100   0.88680   0.01267  Uiso   1.00
H17    H     0.60840   0.77340   0.95390   0.01267  Uiso   1.00
H18    H     0.22960   0.34840   0.28360   0.01267  Uiso   1.00
H19    H     0.13870   0.71700   0.17430   0.01267  Uiso   1.00
H20    H     0.64390   0.99000   0.18990   0.01267  Uiso   1.00
H21    H     0.23860   0.45760   0.73930   0.01267  Uiso   1.00
H22    H     0.16840   0.24600   0.22910   0.01267  Uiso   1.00
H23    H     0.18490   0.11540   0.25150   0.01267  Uiso   1.00
H24    H     0.25980   0.99500   0.19120   0.01267  Uiso   1.00
H25    H     0.19460   0.97080   0.13360   0.01267  Uiso   1.00
H26    H     0.79360   0.75760   0.70790   0.01267  Uiso   1.00
H27    H     0.47210   0.42140   0.92840   0.01267  Uiso   1.00
H28    H     0.03090   0.85320   0.45890   0.01267  Uiso   1.00
H29    H     0.95490   0.95360   0.72270   0.01267  Uiso   1.00
H30    H     0.36000   0.96820   0.73880   0.01267  Uiso   1.00
H31    H     0.68410   0.48940   0.62280   0.01267  Uiso   1.00
H32    H     0.73110   0.63600   0.78150   0.01267  Uiso   1.00
H33    H     0.40090   0.25120   0.44610   0.01267  Uiso   1.00
H34    H     0.27330   0.84200   0.24150   0.01267  Uiso   1.00
H35    H     0.42630   0.46040   0.79340   0.01267  Uiso   1.00
H36    H     0.60590   0.57500   0.24000   0.01267  Uiso   1.00
H37    H     0.81910   0.57500   0.76000   0.01267  Uiso   1.00
H38    H     0.82250   0.73920   0.75480   0.01267  Uiso   1.00
H39    H     0.59320   0.67780   0.92230   0.01267  Uiso   1.00
H40    H     0.16560   0.84220   0.23930   0.01267  Uiso   1.00
H41    H     0.98320   0.78640   0.15900   0.01267  Uiso   1.00
H42    H     0.27310   0.26700   0.13910   0.01267  Uiso   1.00
H43    H     0.01980   0.46640   0.77680   0.01267  Uiso   1.00
H44    H     0.95430   0.74800   0.27840   0.01267  Uiso   1.00
H45    H     0.36610   0.99000   0.81010   0.01267  Uiso   1.00
H46    H     0.45700   0.65100   0.66620   0.01267  Uiso   1.00
H47    H     0.43940   0.25400   0.92430   0.01267  Uiso   1.00
H48    H     0.77520   0.74760   0.39470   0.01267  Uiso   1.00
H49    H     0.19930   0.95380   0.27890   0.01267  Uiso   1.00
H50    H     0.47300   0.11480   0.20640   0.01267  Uiso   1.00
H51    H     0.00790   0.75880   0.44270   0.01267  Uiso   1.00
H52    H     0.71340   0.22240   0.68630   0.01267  Uiso   1.00
H53    H     0.09940   0.10680   0.19690   0.01267  Uiso   1.00
H54    H     0.51380   0.46640   0.22320   0.01267  Uiso   1.00
H55    H     0.79270   0.29740   0.66280   0.01267  Uiso   1.00
H56    H     0.23290   0.96080   0.83340   0.01267  Uiso   1.00
H57    H     0.21490   0.20600   0.26850   0.01267  Uiso   1.00
H58    H     0.98980   0.93400   0.35560   0.01267  Uiso   1.00
H59    H     0.86100   0.01140   0.74430   0.01267  Uiso   1.00
H60    H     0.46410   0.89280   0.26760   0.01267  Uiso   1.00
H61    H     0.73870   0.76200   0.84190   0.01267  Uiso   1.00
H62    H     0.56060   0.83840   0.69440   0.01267  Uiso   1.00
H63    H     0.99220   0.84220   0.76070   0.01267  Uiso   1.00
H64    H     0.42210   0.25860   0.26240   0.01267  Uiso   1.00
H65    H     0.63290   0.63600   0.21850   0.01267  Uiso   1.00
H66    H     0.91440   0.48380   0.70680   0.01267  Uiso   1.00
H67    H     0.22150   0.46500   0.19980   0.01267  Uiso   1.00
H68    H     0.07410   0.61660   0.28910   0.01267  Uiso   1.00
H69    H     0.08160   0.42640   0.12380   0.01267  Uiso   1.00
H70    H     0.13720   0.77060   0.78750   0.01267  Uiso   1.00
H71    H     0.92000   0.35380   0.72560   0.01267  Uiso   1.00
H72    H     0.53850   0.74780   0.25130   0.01267  Uiso   1.00
H73    H     0.23330   0.75880   0.55730   0.01267  Uiso   1.00
H74    H     0.27830   0.32400   0.55240   0.01267  Uiso   1.00
H75    H     0.48050   0.26820   0.46650   0.01267  Uiso   1.00
H76    H     0.49930   0.76200   0.15810   0.01267  Uiso   1.00
H77    H     0.26600   0.30100   0.03780   0.01267  Uiso   1.00
H78    H     0.42200   0.34840   0.71640   0.01267  Uiso   1.00
H79    H     0.82650   0.48940   0.37720   0.01267  Uiso   1.00
H80    H     0.94300   0.65620   0.67480   0.01267  Uiso   1.00
H81    H     0.39140   0.64080   0.27740   0.01267  Uiso   1.00
H82    H     0.79380   0.10680   0.80310   0.01267  Uiso   1.00
H83    H     0.29370   0.33340   0.13970   0.01267  Uiso   1.00
H84    H     0.58170   0.77020   0.18130   0.01267  Uiso   1.00
H85    H     0.06420   0.22240   0.31370   0.01267  Uiso   1.00
H86    H     0.58100   0.24280   0.94610   0.01267  Uiso   1.00
H87    H     0.00340   0.86380   0.56310   0.01267  Uiso   1.00
H88    H     0.58560   0.24600   0.77090   0.01267  Uiso   1.00
H89    H     0.26280   0.14940   0.70890   0.01267  Uiso   1.00
H90    H     0.39770   0.32400   0.44760   0.01267  Uiso   1.00
H91    H     0.53750   0.37360   0.29350   0.01267  Uiso   1.00
H92    H     0.60100   0.83840   0.30560   0.01267  Uiso   1.00
H93    H     0.60180   0.48380   0.29320   0.01267  Uiso   1.00
H94    H     0.36550   0.18360   0.81670   0.01267  Uiso   1.00
H95    H     0.55870   0.09360   0.27340   0.01267  Uiso   1.00
H96    H     0.57350   0.91440   0.30940   0.01267  Uiso   1.00
H97    H     0.23040   0.78640   0.84100   0.01267  Uiso   1.00
H98    H     0.63080   0.66520   0.10320   0.01267  Uiso   1.00
H99    H     0.41250   0.91460   0.81990   0.01267  Uiso   1.00
H100   H     0.76280   0.92720   0.83290   0.01267  Uiso   1.00
H101   H     0.12830   0.72980   0.29570   0.01267  Uiso   1.00
H102   H     0.26990   0.51580   0.71520   0.01267  Uiso   1.00
H103   H     0.97940   0.39100   0.82460   0.01267  Uiso   1.00
H104   H     0.38310   0.43600   0.90310   0.01267  Uiso   1.00
H105   H     0.64310   0.89280   0.73240   0.01267  Uiso   1.00
H106   H     0.47240   0.84820   0.93560   0.01267  Uiso   1.00
H107   H     0.04160   0.28820   0.28690   0.01267  Uiso   1.00
H108   H     0.84690   0.95380   0.72110   0.01267  Uiso   1.00
H109   H     0.83460   0.97080   0.86640   0.01267  Uiso   1.00
H110   H     0.49200   0.42640   0.87620   0.01267  Uiso   1.00
H111   H     0.72900   0.67780   0.07770   0.01267  Uiso   1.00
H112   H     0.51630   0.61540   0.35940   0.01267  Uiso   1.00
H113   H     0.60570   0.62240   0.61180   0.01267  Uiso   1.00
H114   H     0.23370   0.14020   0.20630   0.01267  Uiso   1.00
H115   H     0.08890   0.37360   0.70650   0.01267  Uiso   1.00
H116   H     0.46290   0.58760   0.30360   0.01267  Uiso   1.00
H117   H     0.62610   0.14020   0.79370   0.01267  Uiso   1.00
H118   H     0.85180   0.45140   0.79060   0.01267  Uiso   1.00
H119   H     0.47500   0.15400   0.29820   0.01267  Uiso   1.00
H120   H     0.24760   0.17700   0.58150   0.01267  Uiso   1.00
H121   H     0.53270   0.62620   0.21350   0.01267  Uiso   1.00
H122   H     0.14430   0.71700   0.82570   0.01267  Uiso   1.00
H123   H     0.25030   0.27200   0.78510   0.01267  Uiso   1.00
H124   H     0.88470   0.84200   0.75850   0.01267  Uiso   1.00
H125   H     0.08610   0.44640   0.70140   0.01267  Uiso   1.00
H126   H     0.52260   0.76200   0.07550   0.01267  Uiso   1.00
H127   H     0.59220   0.85080   0.76690   0.01267  Uiso   1.00
H128   H     0.11330   0.46040   0.20660   0.01267  Uiso   1.00
H129   H     0.67940   0.84820   0.06440   0.01267  Uiso   1.00
H130   H     0.47940   0.98520   0.22510   0.01267  Uiso   1.00
H131   H     0.24910   0.33320   0.64200   0.01267  Uiso   1.00
H132   H     0.72620   0.35380   0.27440   0.01267  Uiso   1.00
H133   H     0.09150   0.95360   0.27730   0.01267  Uiso   1.00
H134   H     0.30660   0.25400   0.07570   0.01267  Uiso   1.00
H135   H     0.95190   0.85300   0.64340   0.01267  Uiso   1.00
H136   H     0.98970   0.94420   0.61830   0.01267  Uiso   1.00
H137   H     0.50550   0.27860   0.32950   0.01267  Uiso   1.00
H138   H     0.11590   0.85320   0.54110   0.01267  Uiso   1.00
H139   H     0.48330   0.18360   0.39680   0.01267  Uiso   1.00
H140   H     0.41770   0.33320   0.35800   0.01267  Uiso   1.00
H141   H     0.17620   0.24280   0.05390   0.01267  Uiso   1.00
H142   H     0.09570   0.94420   0.59260   0.01267  Uiso   1.00
H143   H     0.44880   0.75760   0.29210   0.01267  Uiso   1.00
H144   H     0.33310   0.18360   0.60320   0.01267  Uiso   1.00
H145   H     0.63120   0.82960   0.92320   0.01267  Uiso   1.00
H146   H     0.41400   0.26180   0.35860   0.01267  Uiso   1.00
H147   H     0.03390   0.78500   0.64640   0.01267  Uiso   1.00
H148   H     0.71370   0.74780   0.74870   0.01267  Uiso   1.00
H149   H     0.40080   0.65620   0.32520   0.01267  Uiso   1.00
H150   H     0.12320   0.79380   0.43850   0.01267  Uiso   1.00
H151   H     0.80360   0.36180   0.39830   0.01267  Uiso   1.00
H152   H     0.80630   0.96080   0.16660   0.01267  Uiso   1.00
H153   H     0.62960   0.39100   0.17540   0.01267  Uiso   1.00
H154   H     0.12890   0.52260   0.22260   0.01267  Uiso   1.00
H155   H     0.47990   0.32520   0.83180   0.01267  Uiso   1.00
H156   H     0.48260   0.40320   0.22690   0.01267  Uiso   1.00
H157   H     0.14400   0.65740   0.70040   0.01267  Uiso   1.00
H158   H     0.78810   0.32920   0.15430   0.01267  Uiso   1.00
H159   H     0.11610   0.36280   0.55610   0.01267  Uiso   1.00
H160   H     0.25130   0.26820   0.53350   0.01267  Uiso   1.00
H161   H     0.96780   0.64080   0.72260   0.01267  Uiso   1.00
H162   H     0.61810   0.42580   0.32770   0.01267  Uiso   1.00
H163   H     0.52110   0.36280   0.44390   0.01267  Uiso   1.00
H164   H     0.71280   0.66600   0.12940   0.01267  Uiso   1.00
H165   H     0.47720   0.74760   0.60530   0.01267  Uiso   1.00
H166   H     0.10650   0.42140   0.07160   0.01267  Uiso   1.00
H167   H     0.77190   0.62240   0.38820   0.01267  Uiso   1.00
H168   H     0.28540   0.36540   0.23720   0.01267  Uiso   1.00
H169   H     0.13280   0.86380   0.43690   0.01267  Uiso   1.00
H170   H     0.53010   0.26340   0.25600   0.01267  Uiso   1.00
H171   H     0.20120   0.63760   0.22500   0.01267  Uiso   1.00
H172   H     0.92360   0.98100   0.11320   0.01267  Uiso   1.00
H173   H     0.46750   0.44640   0.29860   0.01267  Uiso   1.00
H174   H     0.34770   0.09360   0.72660   0.01267  Uiso   1.00
H175   H     0.57910   0.20600   0.73150   0.01267  Uiso   1.00
H176   H     0.02620   0.84340   0.67590   0.01267  Uiso   1.00
H177   H     0.30930   0.61660   0.71090   0.01267  Uiso   1.00
H178   H     0.42890   0.83440   0.75300   0.01267  Uiso   1.00
H179   H     0.67290   0.91460   0.18010   0.01267  Uiso   1.00
H180   H     0.00170   0.12280   0.87900   0.01267  Uiso   1.00
H181   H     0.06240   0.69500   0.77230   0.01267  Uiso   1.00
H182   H     0.73670   0.83440   0.24700   0.01267  Uiso   1.00
H183   H     0.38850   0.17560   0.23040   0.01267  Uiso   1.00
H184   H     0.11460   0.48220   0.34700   0.01267  Uiso   1.00
H185   H     0.53920   0.82960   0.07680   0.01267  Uiso   1.00
H186   H     0.24260   0.69500   0.22770   0.01267  Uiso   1.00
H187   H     0.84110   0.62620   0.78650   0.01267  Uiso   1.00
H188   H     0.32420   0.26180   0.64140   0.01267  Uiso   1.00
H189   H     0.13040   0.84340   0.32410   0.01267  Uiso   1.00
H190   H     0.31350   0.46500   0.80020   0.01267  Uiso   1.00
H191   H     0.87550   0.12280   0.12100   0.01267  Uiso   1.00
H192   H     0.95610   0.42580   0.67230   0.01267  Uiso   1.00
H193   H     0.70400   0.66520   0.89680   0.01267  Uiso   1.00
H194   H     0.91920   0.83300   0.80440   0.01267  Uiso   1.00
H195   H     0.07730   0.18140   0.18510   0.01267  Uiso   1.00
H196   H     0.01130   0.13160   0.26740   0.01267  Uiso   1.00
H197   H     0.14190   0.72980   0.70430   0.01267  Uiso   1.00
H198   H     0.33630   0.31740   0.06470   0.01267  Uiso   1.00
H199   H     0.34630   0.31740   0.93530   0.01267  Uiso   1.00
H200   H     0.86830   0.61540   0.64060   0.01267  Uiso   1.00
H201   H     0.34790   0.25120   0.55390   0.01267  Uiso   1.00
H202   H     0.22180   0.85100   0.89670   0.01267  Uiso   1.00
H203   H     0.40320   0.48220   0.65300   0.01267  Uiso   1.00
H204   H     0.45090   0.18360   0.18330   0.01267  Uiso   1.00
H205   H     0.67180   0.96820   0.26120   0.01267  Uiso   1.00
H206   H     0.74130   0.18140   0.81490   0.01267  Uiso   1.00
H207   H     0.65090   0.82860   0.84520   0.01267  Uiso   1.00
H208   H     0.46860   0.83040   0.65950   0.01267  Uiso   1.00
H209   H     0.04630   0.65160   0.21320   0.01267  Uiso   1.00
H210   H     0.24780   0.83300   0.19560   0.01267  Uiso   1.00
H211   H     0.58650   0.18100   0.36650   0.01267  Uiso   1.00
H212   H     0.43590   0.17560   0.76960   0.01267  Uiso   1.00
H213   H     0.21590   0.27860   0.67050   0.01267  Uiso   1.00
H214   H     0.20650   0.26340   0.74400   0.01267  Uiso   1.00
H215   H     0.92720   0.85100   0.10330   0.01267  Uiso   1.00
H216   H     0.52050   0.82860   0.15480   0.01267  Uiso   1.00
H217   H     0.16120   0.63760   0.77500   0.01267  Uiso   1.00
H218   H     0.96010   0.94420   0.40740   0.01267  Uiso   1.00
H219   H     0.29710   0.45000   0.68980   0.01267  Uiso   1.00
H220   H     0.69970   0.11540   0.74850   0.01267  Uiso   1.00
H221   H     0.31000   0.92720   0.16710   0.01267  Uiso   1.00
H222   H     0.67020   0.28820   0.71310   0.01267  Uiso   1.00
H223   H     0.32880   0.93600   0.21450   0.01267  Uiso   1.00
H224   H     0.12760   0.01140   0.25570   0.01267  Uiso   1.00
H225   H     0.89200   0.65100   0.33380   0.01267  Uiso   1.00
H226   H     0.57540   0.17700   0.41850   0.01267  Uiso   1.00
H227   H     0.47770   0.27200   0.21490   0.01267  Uiso   1.00
H228   H     0.53540   0.98520   0.77490   0.01267  Uiso   1.00
H229   H     0.11420   0.40320   0.77310   0.01267  Uiso   1.00
H230   H     0.83460   0.36180   0.60170   0.01267  Uiso   1.00
H231   H     0.86180   0.23720   0.89090   0.01267  Uiso   1.00
H232   H     0.91900   0.13100   0.82620   0.01267  Uiso   1.00
H233   H     0.64430   0.33840   0.21320   0.01267  Uiso   1.00
H234   H     0.61820   0.77340   0.04610   0.01267  Uiso   1.00
H235   H     0.30210   0.65160   0.78680   0.01267  Uiso   1.00
H236   H     0.69680   0.45140   0.20940   0.01267  Uiso   1.00
H237   H     0.88270   0.32920   0.84570   0.01267  Uiso   1.00
H238   H     0.79700   0.45660   0.67610   0.01267  Uiso   1.00
H239   H     0.28680   0.12180   0.84980   0.01267  Uiso   1.00
H240   H     0.37100   0.15400   0.70180   0.01267  Uiso   1.00
H241   H     0.58780   0.14940   0.29110   0.01267  Uiso   1.00
H242   H     0.64810   0.77020   0.81870   0.01267  Uiso   1.00
H243   H     0.29770   0.74800   0.72160   0.01267  Uiso   1.00
H244   H     0.90990   0.29740   0.33720   0.01267  Uiso   1.00
H245   H     0.01730   0.33840   0.78680   0.01267  Uiso   1.00
H246   H     0.37290   0.33340   0.86030   0.01267  Uiso   1.00
H247   H     0.95000   0.13100   0.17380   0.01267  Uiso   1.00
H248   H     0.71540   0.76200   0.92450   0.01267  Uiso   1.00
H249   H     0.08300   0.79380   0.56150   0.01267  Uiso   1.00
H250   H     0.07620   0.93400   0.64440   0.01267  Uiso   1.00
H251   H     0.25290   0.45000   0.31020   0.01267  Uiso   1.00
H252   H     0.94950   0.58760   0.69640   0.01267  Uiso   1.00
H253   H     0.55700   0.85080   0.23310   0.01267  Uiso   1.00
H254   H     0.51210   0.91440   0.69060   0.01267  Uiso   1.00
H255   H     0.59140   0.12180   0.15020   0.01267  Uiso   1.00
H256   H     0.45990   0.26700   0.86090   0.01267  Uiso   1.00
H257   H     0.19860   0.65740   0.29960   0.01267  Uiso   1.00
H258   H     0.09220   0.77060   0.21250   0.01267  Uiso   1.00
H259   H     0.34920   0.36540   0.76280   0.01267  Uiso   1.00
H260   H     0.62120   0.66600   0.87060   0.01267  Uiso   1.00
H261   H     0.19510   0.85300   0.35660   0.01267  Uiso   1.00
H262   H     0.21430   0.51580   0.28480   0.01267  Uiso   1.00
H263   H     0.73520   0.93600   0.78550   0.01267  Uiso   1.00
H264   H     0.34850   0.52260   0.77740   0.01267  Uiso   1.00
H265   H     0.46350   0.35500   0.75860   0.01267  Uiso   1.00
H266   H     0.19490   0.32520   0.16820   0.01267  Uiso   1.00
H267   H     0.23250   0.18100   0.63350   0.01267  Uiso   1.00
H268   H     0.74640   0.45660   0.32390   0.01267  Uiso   1.00
C1     C     0.96890   0.49020   0.36900   0.01267  Uiso   1.00
C2     C     0.64720   0.66360   0.70400   0.01267  Uiso   1.00
C3     C     0.10540   0.30680   0.10470   0.01267  Uiso   1.00
C4     C     0.98470   0.38460   0.79310   0.01267  Uiso   1.00
C5     C     0.24150   0.46920   0.28180   0.01267  Uiso   1.00
C6     C     0.79240   0.60220   0.57060   0.01267  Uiso   1.00
C7     C     0.84120   0.33620   0.16360   0.01267  Uiso   1.00
C8     C     0.67590   0.15020   0.77040   0.01267  Uiso   1.00
C9     C     0.14940   0.83140   0.35250   0.01267  Uiso   1.00
C10    C     0.48670   0.66320   0.68690   0.01267  Uiso   1.00
C11    C     0.48610   0.24920   0.24260   0.01267  Uiso   1.00
C12    C     0.40050   0.83700   0.66920   0.01267  Uiso   1.00
C13    C     0.22590   0.12900   0.84120   0.01267  Uiso   1.00
C14    C     0.08670   0.14960   0.20900   0.01267  Uiso   1.00
C15    C     0.57940   0.88800   0.74700   0.01267  Uiso   1.00
C16    C     0.89740   0.45360   0.31560   0.01267  Uiso   1.00
C17    C     0.72890   0.62920   0.36820   0.01267  Uiso   1.00
C18    C     0.05060   0.41780   0.71670   0.01267  Uiso   1.00
C19    C     0.63310   0.47940   0.64280   0.01267  Uiso   1.00
C20    C     0.26470   0.24920   0.75740   0.01267  Uiso   1.00
C21    C     0.59230   0.30480   0.38990   0.01267  Uiso   1.00
C22    C     0.13500   0.68260   0.76570   0.01267  Uiso   1.00
C23    C     0.52120   0.87800   0.71120   0.01267  Uiso   1.00
C24    C     0.74520   0.61480   0.61920   0.01267  Uiso   1.00
C25    C     0.05860   0.24120   0.28440   0.01267  Uiso   1.00
C26    C     0.54190   0.19620   0.39440   0.01267  Uiso   1.00
C27    C     0.33770   0.85720   0.92150   0.01267  Uiso   1.00
C28    C     0.53630   0.94960   0.22690   0.01267  Uiso   1.00
C29    C     0.40810   0.76400   0.60730   0.01267  Uiso   1.00
C30    C     0.26190   0.19620   0.60560   0.01267  Uiso   1.00
C31    C     0.43640   0.63360   0.29770   0.01267  Uiso   1.00
C32    C     0.27980   0.27940   0.55620   0.01267  Uiso   1.00
C33    C     0.34830   0.78820   0.86120   0.01267  Uiso   1.00
C34    C     0.07060   0.34800   0.57650   0.01267  Uiso   1.00
C35    C     0.52420   0.65980   0.27680   0.01267  Uiso   1.00
C36    C     0.57570   0.62500   0.35100   0.01267  Uiso   1.00
C37    C     0.58780   0.30680   0.89530   0.01267  Uiso   1.00
C38    C     0.08870   0.83960   0.43540   0.01267  Uiso   1.00
C39    C     0.73760   0.09900   0.08420   0.01267  Uiso   1.00
C40    C     0.28340   0.66260   0.70380   0.01267  Uiso   1.00
C41    C     0.81350   0.91700   0.04820   0.01267  Uiso   1.00
C42    C     0.99690   0.16640   0.24510   0.01267  Uiso   1.00
C43    C     0.94610   0.94740   0.81190   0.01267  Uiso   1.00
C44    C     0.78340   0.73300   0.73470   0.01267  Uiso   1.00
C45    C     0.90000   0.00900   0.92830   0.01267  Uiso   1.00
C46    C     0.05530   0.17660   0.04570   0.01267  Uiso   1.00
C47    C     0.48080   0.44920   0.70250   0.01267  Uiso   1.00
C48    C     0.78390   0.76420   0.14340   0.01267  Uiso   1.00
C49    C     0.27960   0.69780   0.77820   0.01267  Uiso   1.00
C50    C     0.46490   0.47500   0.66090   0.01267  Uiso   1.00
C51    C     0.04640   0.94100   0.79610   0.01267  Uiso   1.00
C52    C     0.64900   0.45360   0.68440   0.01267  Uiso   1.00
C53    C     0.30010   0.77000   0.83390   0.01267  Uiso   1.00
C54    C     0.18990   0.33800   0.10130   0.01267  Uiso   1.00
C55    C     0.92340   0.85460   0.77600   0.01267  Uiso   1.00
C56    C     0.82790   0.76400   0.39270   0.01267  Uiso   1.00
C57    C     0.02260   0.69780   0.22180   0.01267  Uiso   1.00
C58    C     0.88270   0.92820   0.78300   0.01267  Uiso   1.00
C59    C     0.87710   0.69360   0.45590   0.01267  Uiso   1.00
C60    C     0.76250   0.83700   0.33080   0.01267  Uiso   1.00
C61    C     0.29120   0.83480   0.89360   0.01267  Uiso   1.00
C62    C     0.36710   0.47600   0.78080   0.01267  Uiso   1.00
C63    C     0.72750   0.23200   0.92340   0.01267  Uiso   1.00
C64    C     0.66770   0.78200   0.84420   0.01267  Uiso   1.00
C65    C     0.88280   0.40480   0.78290   0.01267  Uiso   1.00
C66    C     0.42930   0.69360   0.54410   0.01267  Uiso   1.00
C67    C     0.80560   0.15060   0.18430   0.01267  Uiso   1.00
C68    C     0.01920   0.83140   0.64750   0.01267  Uiso   1.00
C69    C     0.06050   0.92540   0.61700   0.01267  Uiso   1.00
C70    C     0.63070   0.38460   0.20690   0.01267  Uiso   1.00
C71    C     0.61240   0.75820   0.88710   0.01267  Uiso   1.00
C72    C     0.06330   0.97900   0.11610   0.01267  Uiso   1.00
C73    C     0.41740   0.29880   0.93350   0.01267  Uiso   1.00
C74    C     0.84720   0.94920   0.18770   0.01267  Uiso   1.00
C75    C     0.68050   0.68500   0.10510   0.01267  Uiso   1.00
C76    C     0.88840   0.74640   0.42440   0.01267  Uiso   1.00
C77    C     0.04380   0.15060   0.81570   0.01267  Uiso   1.00
C78    C     0.04050   0.23200   0.07660   0.01267  Uiso   1.00
C79    C     0.80640   0.44160   0.30350   0.01267  Uiso   1.00
C80    C     0.59290   0.65360   0.67420   0.01267  Uiso   1.00
C81    C     0.53110   0.17580   0.23370   0.01267  Uiso   1.00
C82    C     0.41960   0.87280   0.73330   0.01267  Uiso   1.00
C83    C     0.40730   0.94800   0.79680   0.01267  Uiso   1.00
C84    C     0.09100   0.00900   0.07170   0.01267  Uiso   1.00
C85    C     0.57180   0.78320   0.07410   0.01267  Uiso   1.00
C86    C     0.89100   0.14800   0.19470   0.01267  Uiso   1.00
C87    C     0.60540   0.60220   0.42940   0.01267  Uiso   1.00
C88    C     0.13180   0.96640   0.14420   0.01267  Uiso   1.00
C89    C     0.71500   0.78660   0.11550   0.01267  Uiso   1.00
C90    C     0.71320   0.40000   0.26660   0.01267  Uiso   1.00
C91    C     0.14810   0.96520   0.26130   0.01267  Uiso   1.00
C92    C     0.63530   0.15020   0.20180   0.01267  Uiso   1.00
C93    C     0.95670   0.51760   0.41580   0.01267  Uiso   1.00
C94    C     0.28930   0.46920   0.71820   0.01267  Uiso   1.00
C95    C     0.48360   0.73300   0.26530   0.01267  Uiso   1.00
C96    C     0.70400   0.93180   0.24000   0.01267  Uiso   1.00
C97    C     0.36520   0.74640   0.57560   0.01267  Uiso   1.00
C98    C     0.68230   0.28300   0.35940   0.01267  Uiso   1.00
C99    C     0.51410   0.94960   0.77310   0.01267  Uiso   1.00
C100   C     0.68920   0.66360   0.29600   0.01267  Uiso   1.00
C101   C     0.97340   0.70200   0.26970   0.01267  Uiso   1.00
C102   C     0.71560   0.16100   0.21460   0.01267  Uiso   1.00
C103   C     0.07000   0.44920   0.29750   0.01267  Uiso   1.00
C104   C     0.21450   0.15020   0.79820   0.01267  Uiso   1.00
C105   C     0.14590   0.68540   0.28510   0.01267  Uiso   1.00
C106   C     0.70760   0.87280   0.26670   0.01267  Uiso   1.00
C107   C     0.24320   0.31360   0.14080   0.01267  Uiso   1.00
C108   C     0.01700   0.32960   0.13610   0.01267  Uiso   1.00
C109   C     0.94800   0.43700   0.70330   0.01267  Uiso   1.00
C110   C     0.98560   0.81260   0.38700   0.01267  Uiso   1.00
C111   C     0.05790   0.97260   0.86800   0.01267  Uiso   1.00
C112   C     0.92500   0.83040   0.35530   0.01267  Uiso   1.00
C113   C     0.96100   0.14800   0.80530   0.01267  Uiso   1.00
C114   C     0.64500   0.78320   0.92590   0.01267  Uiso   1.00
C115   C     0.63450   0.68500   0.89490   0.01267  Uiso   1.00
C116   C     0.25510   0.28780   0.64300   0.01267  Uiso   1.00
C117   C     0.87400   0.83480   0.10640   0.01267  Uiso   1.00
C118   C     0.03470   0.28300   0.64060   0.01267  Uiso   1.00
C119   C     0.44320   0.31360   0.85920   0.01267  Uiso   1.00
C120   C     0.22130   0.37140   0.25610   0.01267  Uiso   1.00
C121   C     0.97000   0.36940   0.57340   0.01267  Uiso   1.00
C122   C     0.57920   0.62040   0.23300   0.01267  Uiso   1.00
C123   C     0.12340   0.16100   0.78540   0.01267  Uiso   1.00
C124   C     0.82260   0.33620   0.83640   0.01267  Uiso   1.00
C125   C     0.16160   0.21360   0.25190   0.01267  Uiso   1.00
C126   C     0.64510   0.12900   0.15880   0.01267  Uiso   1.00
C127   C     0.85010   0.66320   0.31310   0.01267  Uiso   1.00
C128   C     0.75610   0.30340   0.86220   0.01267  Uiso   1.00
C129   C     0.79940   0.22620   0.73150   0.01267  Uiso   1.00
C130   C     0.81530   0.12960   0.14130   0.01267  Uiso   1.00
C131   C     0.44080   0.27940   0.44380   0.01267  Uiso   1.00
C132   C     0.28380   0.29880   0.06650   0.01267  Uiso   1.00
C133   C     0.11080   0.72440   0.20590   0.01267  Uiso   1.00
C134   C     0.26950   0.91700   0.95180   0.01267  Uiso   1.00
C135   C     0.90180   0.34760   0.60380   0.01267  Uiso   1.00
C136   C     0.45710   0.28780   0.35700   0.01267  Uiso   1.00
C137   C     0.76140   0.30440   0.36260   0.01267  Uiso   1.00
C138   C     0.64470   0.94800   0.20320   0.01267  Uiso   1.00
C139   C     0.20180   0.81260   0.61300   0.01267  Uiso   1.00
C140   C     0.45190   0.76420   0.85660   0.01267  Uiso   1.00
C141   C     0.85950   0.28280   0.33190   0.01267  Uiso   1.00
C142   C     0.75350   0.65360   0.32580   0.01267  Uiso   1.00
C143   C     0.11710   0.25800   0.07500   0.01267  Uiso   1.00
C144   C     0.88750   0.47940   0.35720   0.01267  Uiso   1.00
C145   C     0.15690   0.47600   0.21920   0.01267  Uiso   1.00
C146   C     0.16480   0.72440   0.79410   0.01267  Uiso   1.00
C147   C     0.94050   0.30340   0.13780   0.01267  Uiso   1.00
C148   C     0.77100   0.94860   0.80460   0.01267  Uiso   1.00
C149   C     0.16870   0.68540   0.71490   0.01267  Uiso   1.00
C150   C     0.24460   0.83040   0.64470   0.01267  Uiso   1.00
C151   C     0.53910   0.13980   0.27830   0.01267  Uiso   1.00
C152   C     0.05400   0.66260   0.29620   0.01267  Uiso   1.00
C153   C     0.51160   0.27100   0.39670   0.01267  Uiso   1.00
C154   C     0.44130   0.83320   0.91700   0.01267  Uiso   1.00
C155   C     0.60080   0.87800   0.28880   0.01267  Uiso   1.00
C156   C     0.21740   0.27100   0.60330   0.01267  Uiso   1.00
C157   C     0.49840   0.78660   0.88450   0.01267  Uiso   1.00
C158   C     0.64190   0.62920   0.63180   0.01267  Uiso   1.00
C159   C     0.17390   0.15020   0.22960   0.01267  Uiso   1.00
C160   C     0.81600   0.65980   0.72320   0.01267  Uiso   1.00
C161   C     0.61500   0.43700   0.29670   0.01267  Uiso   1.00
C162   C     0.71240   0.40480   0.21710   0.01267  Uiso   1.00
C163   C     0.28040   0.94860   0.19540   0.01267  Uiso   1.00
C164   C     0.09250   0.85200   0.61030   0.01267  Uiso   1.00
C165   C     0.64000   0.61480   0.38080   0.01267  Uiso   1.00
C166   C     0.62490   0.25800   0.92500   0.01267  Uiso   1.00
C167   C     0.98870   0.43840   0.28570   0.01267  Uiso   1.00
C168   C     0.16800   0.44380   0.26570   0.01267  Uiso   1.00
C169   C     0.53220   0.42100   0.23270   0.01267  Uiso   1.00
C170   C     0.38550   0.16100   0.78870   0.01267  Uiso   1.00
C171   C     0.58140   0.34800   0.42350   0.01267  Uiso   1.00
C172   C     0.90180   0.96640   0.85580   0.01267  Uiso   1.00
C173   C     0.84620   0.80600   0.35820   0.01267  Uiso   1.00
C174   C     0.80510   0.85720   0.07850   0.01267  Uiso   1.00
C175   C     0.85770   0.28280   0.66810   0.01267  Uiso   1.00
C176   C     0.47210   0.33800   0.89870   0.01267  Uiso   1.00
C177   C     0.16340   0.09900   0.91580   0.01267  Uiso   1.00
C178   C     0.93000   0.63360   0.70230   0.01267  Uiso   1.00
C179   C     0.10290   0.30480   0.61010   0.01267  Uiso   1.00
C180   C     0.62480   0.21360   0.74810   0.01267  Uiso   1.00
C181   C     0.18240   0.68260   0.23430   0.01267  Uiso   1.00
C182   C     0.04680   0.42100   0.76730   0.01267  Uiso   1.00
C183   C     0.92990   0.77000   0.16610   0.01267  Uiso   1.00
C184   C     0.79320   0.25460   0.89200   0.01267  Uiso   1.00
C185   C     0.93420   0.30440   0.63740   0.01267  Uiso   1.00
C186   C     0.96950   0.97260   0.13200   0.01267  Uiso   1.00
C187   C     0.32460   0.70200   0.73030   0.01267  Uiso   1.00
C188   C     0.55030   0.78200   0.15580   0.01267  Uiso   1.00
C189   C     0.32110   0.13980   0.72170   0.01267  Uiso   1.00
C190   C     0.45350   0.16100   0.21130   0.01267  Uiso   1.00
C191   C     0.94410   0.95360   0.17590   0.01267  Uiso   1.00
C192   C     0.80040   0.62040   0.76700   0.01267  Uiso   1.00
C193   C     0.76370   0.14960   0.79100   0.01267  Uiso   1.00
C194   C     0.88680   0.40000   0.73340   0.01267  Uiso   1.00
C195   C     0.07170   0.83960   0.56460   0.01267  Uiso   1.00
C196   C     0.06010   0.47500   0.33910   0.01267  Uiso   1.00
C197   C     0.20360   0.94920   0.81230   0.01267  Uiso   1.00
C198   C     0.97440   0.22620   0.26850   0.01267  Uiso   1.00
C199   C     0.70020   0.24120   0.71560   0.01267  Uiso   1.00
C200   C     0.01410   0.92540   0.38300   0.01267  Uiso   1.00
C201   C     0.45300   0.41260   0.90190   0.01267  Uiso   1.00
C202   C     0.14620   0.11880   0.87150   0.01267  Uiso   1.00
C203   C     0.83670   0.16640   0.75490   0.01267  Uiso   1.00
C204   C     0.66060   0.36940   0.42660   0.01267  Uiso   1.00
C205   C     0.54090   0.49020   0.63100   0.01267  Uiso   1.00
C206   C     0.86350   0.78820   0.13880   0.01267  Uiso   1.00
C207   C     0.10230   0.95360   0.82410   0.01267  Uiso   1.00
C208   C     0.40730   0.37140   0.74390   0.01267  Uiso   1.00
C209   C     0.60030   0.64940   0.30860   0.01267  Uiso   1.00
C210   C     0.88670   0.96520   0.73870   0.01267  Uiso   1.00
C211   C     0.62940   0.75820   0.11290   0.01267  Uiso   1.00
C212   C     0.72550   0.83320   0.08300   0.01267  Uiso   1.00
C213   C     0.36420   0.93180   0.76000   0.01267  Uiso   1.00
C214   C     0.22200   0.85460   0.22400   0.01267  Uiso   1.00
C215   C     0.75200   0.44160   0.69650   0.01267  Uiso   1.00
C216   C     0.93050   0.42780   0.54310   0.01267  Uiso   1.00
C217   C     0.38820   0.44380   0.73430   0.01267  Uiso   1.00
C218   C     0.95220   0.25460   0.10800   0.01267  Uiso   1.00
C219   C     0.96730   0.77060   0.42150   0.01267  Uiso   1.00
C220   C     0.52570   0.51760   0.58420   0.01267  Uiso   1.00
C221   C     0.53160   0.41780   0.28330   0.01267  Uiso   1.00
C222   C     0.73500   0.11880   0.12850   0.01267  Uiso   1.00
C223   C     0.57290   0.43840   0.71430   0.01267  Uiso   1.00
C224   C     0.29310   0.17580   0.76630   0.01267  Uiso   1.00
C225   C     0.26210   0.77060   0.57850   0.01267  Uiso   1.00
C226   C     0.95770   0.97900   0.88390   0.01267  Uiso   1.00
C227   C     0.76810   0.17660   0.95430   0.01267  Uiso   1.00
C228   C     0.34780   0.80600   0.64180   0.01267  Uiso   1.00
C229   C     0.75060   0.34760   0.39620   0.01267  Uiso   1.00
C230   C     0.64170   0.42780   0.45690   0.01267  Uiso   1.00
C231   C     0.75030   0.64940   0.69140   0.01267  Uiso   1.00
C232   C     0.65340   0.32960   0.86390   0.01267  Uiso   1.00
C233   C     0.13440   0.41260   0.09810   0.01267  Uiso   1.00
C234   C     0.10650   0.94740   0.18810   0.01267  Uiso   1.00
C235   C     0.18910   0.92820   0.21700   0.01267  Uiso   1.00
C236   C     0.53260   0.88800   0.25300   0.01267  Uiso   1.00
C237   C     0.79930   0.62500   0.64900   0.01267  Uiso   1.00
C238   C     0.01260   0.94100   0.20390   0.01267  Uiso   1.00
C239   C     0.05510   0.12960   0.85870   0.01267  Uiso   1.00
C240   C     0.05550   0.85200   0.38970   0.01267  Uiso   1.00
N1     N     0.92970   0.73200   0.20180   0.01267  Uiso   1.00
N2     N     0.25690   0.93020   0.77440   0.01267  Uiso   1.00
N3     N     0.77400   0.86940   0.29740   0.01267  Uiso   1.00
N4     N     0.35660   0.86940   0.70260   0.01267  Uiso   1.00
N5     N     0.33830   0.73200   0.79820   0.01267  Uiso   1.00
N6     N     0.87920   0.24600   0.29900   0.01267  Uiso   1.00
N7     N     0.42650   0.68820   0.72600   0.01267  Uiso   1.00
N8     N     0.81290   0.93020   0.22560   0.01267  Uiso   1.00
N9     N     0.81800   0.37300   0.19680   0.01267  Uiso   1.00
N10    N     0.87480   0.24600   0.70100   0.01267  Uiso   1.00
N11    N     0.78090   0.41540   0.72900   0.01267  Uiso   1.00
N12    N     0.88530   0.68820   0.27400   0.01267  Uiso   1.00
N13    N     0.80370   0.41540   0.27100   0.01267  Uiso   1.00
N14    N     0.93430   0.16860   0.76600   0.01267  Uiso   1.00
N15    N     0.89710   0.16860   0.23400   0.01267  Uiso   1.00
N16    N     0.80900   0.37300   0.80320   0.01267  Uiso   1.00
O1     O     0.24760   0.08560   0.92500   0.01267  Uiso   1.00
O2     O     0.53730   0.57640   0.43780   0.01267  Uiso   1.00
O3     O     0.38990   0.66780   0.52100   0.01267  Uiso   1.00
O4     O     0.86230   0.15960   0.95840   0.01267  Uiso   1.00
O5     O     0.84020   0.44020   0.54240   0.01267  Uiso   1.00
O6     O     0.66490   0.59360   0.45930   0.01267  Uiso   1.00
O7     O     0.71610   0.14500   0.97500   0.01267  Uiso   1.00
O8     O     0.94230   0.66780   0.47900   0.01267  Uiso   1.00
O9     O     0.01280   0.36640   0.17080   0.01267  Uiso   1.00
O10    O     0.03440   0.52840   0.42120   0.01267  Uiso   1.00
O11    O     0.62080   0.36640   0.82920   0.01267  Uiso   1.00
O12    O     0.32700   0.94180   0.96790   0.01267  Uiso   1.00
O13    O     0.81330   0.08800   0.05490   0.01267  Uiso   1.00
O14    O     0.94790   0.00740   0.95780   0.01267  Uiso   1.00
O15    O     0.99590   0.44800   0.51760   0.01267  Uiso   1.00
O16    O     0.70920   0.18500   0.25360   0.01267  Uiso   1.00
O17    O     0.51080   0.72820   0.82240   0.01267  Uiso   1.00
O18    O     0.60050   0.68960   0.74290   0.01267  Uiso   1.00
O19    O     0.71960   0.44020   0.45760   0.01267  Uiso   1.00
O20    O     0.76100   0.72820   0.17760   0.01267  Uiso   1.00
O21    O     0.87300   0.52580   0.44460   0.01267  Uiso   1.00
O22    O     0.55610   0.44800   0.48240   0.01267  Uiso   1.00
O23    O     0.52500   0.67900   0.53690   0.01267  Uiso   1.00
O24    O     0.73120   0.94180   0.03210   0.01267  Uiso   1.00
O25    O     0.18610   0.86220   0.68340   0.01267  Uiso   1.00
O26    O     0.60120   0.52580   0.55540   0.01267  Uiso   1.00
O27    O     0.06650   0.24580   0.67430   0.01267  Uiso   1.00
O28    O     0.97810   0.15960   0.04160   0.01267  Uiso   1.00
O29    O     0.74150   0.59360   0.54070   0.01267  Uiso   1.00
O30    O     0.95170   0.86220   0.31660   0.01267  Uiso   1.00
O31    O     0.88630   0.57640   0.56220   0.01267  Uiso   1.00
O32    O     0.10580   0.18500   0.74640   0.01267  Uiso   1.00
O33    O     0.09870   0.08800   0.94510   0.01267  Uiso   1.00
O34    O     0.08790   0.91760   0.75390   0.01267  Uiso   1.00
O35    O     0.18620   0.93780   0.95550   0.01267  Uiso   1.00
O36    O     0.68770   0.24580   0.32570   0.01267  Uiso   1.00
O37    O     0.57980   0.41260   0.75690   0.01267  Uiso   1.00
O38    O     0.81150   0.01220   0.93810   0.01267  Uiso   1.00
O39    O     0.79600   0.67900   0.46310   0.01267  Uiso   1.00
O40    O     0.00760   0.41260   0.24310   0.01267  Uiso   1.00
O41    O     0.04470   0.00740   0.04220   0.01267  Uiso   1.00
O42    O     0.17630   0.01220   0.06190   0.01267  Uiso   1.00
O43    O     0.99450   0.91760   0.24610   0.01267  Uiso   1.00
O44    O     0.66680   0.08560   0.07500   0.01267  Uiso   1.00
O45    O     0.13890   0.14500   0.02500   0.01267  Uiso   1.00
O46    O     0.87600   0.93780   0.04450   0.01267  Uiso   1.00
O47    O     0.70990   0.68960   0.25710   0.01267  Uiso   1.00
O48    O     0.43720   0.52840   0.57880   0.01267  Uiso   1.00
