data_image0
_cell_length_a       10.3562
_cell_length_b       17.8979
_cell_length_c       44.1383
_cell_angle_alpha    90
_cell_angle_beta     90
_cell_angle_gamma    90

_symmetry_space_group_name_H-M    "P 1"
_symmetry_int_tables_number       1

loop_
  _symmetry_equiv_pos_as_xyz
  'x, y, z'

loop_
  _atom_site_label
  _atom_site_occupancy
  _atom_site_fract_x
  _atom_site_fract_y
  _atom_site_fract_z
  _atom_site_thermal_displace_type
  _atom_site_B_iso_or_equiv
  _atom_site_type_symbol
  Cd1      1.0000 0.15411  0.00397  0.92211  Biso   1.000  Cd
  Cd2      1.0000 0.24219  0.99962  0.00175  Biso   1.000  Cd
  Cd3      1.0000 0.32634  0.99667  0.08218  Biso   1.000  Cd
  Cu1      1.0000 0.02718  0.06723  0.75218  Biso   1.000  Cu
  O1       1.0000 0.27120  0.90010  0.92501  Biso   1.000  O
  O2       1.0000 0.35860  0.93290  0.96932  Biso   1.000  O
  O3       1.0000 0.71300  0.60670  0.97353  Biso   1.000  O
  O4       1.0000 0.67100  0.58820  0.92444  Biso   1.000  O
  O5       1.0000 0.96430  0.06190  0.94287  Biso   1.000  O
  O6       1.0000 0.06550  0.97700  0.97030  Biso   1.000  O
  O7       1.0000 0.52040  0.94110  0.06201  Biso   1.000  O
  O8       1.0000 0.41550  0.02230  0.03389  Biso   1.000  O
  O9       1.0000 0.20350  0.09840  0.07861  Biso   1.000  O
  O10      1.0000 0.11840  0.06130  0.03437  Biso   1.000  O
  O11      1.0000 0.81440  0.41420  0.07006  Biso   1.000  O
  O12      1.0000 0.78020  0.39260  0.02111  Biso   1.000  O
  O13      1.0000 0.14040  0.10360  0.78359  Biso   1.000  O
  O14      1.0000 0.15250  0.09460  0.72202  Biso   1.000  O
  N1       1.0000 0.14440  0.04560  0.87420  Biso   1.000  N
  N2       1.0000 0.15760  0.04300  0.63095  Biso   1.000  N
  N3       1.0000 0.92930  0.00570  0.72388  Biso   1.000  N
  N4       1.0000 0.90390  0.03000  0.78167  Biso   1.000  N
  C1       1.0000 0.34080  0.88910  0.94821  Biso   1.000  C
  C2       1.0000 0.41290  0.81600  0.94898  Biso   1.000  C
  C3       1.0000 0.48960  0.79900  0.97360  Biso   1.000  C
  H1       1.0000 0.49020  0.83130  0.99070  Biso   1.000  H
  C4       1.0000 0.56530  0.73590  0.97366  Biso   1.000  C
  H2       1.0000 0.61820  0.72520  0.99070  Biso   1.000  H
  C5       1.0000 0.56510  0.68810  0.94934  Biso   1.000  C
  C6       1.0000 0.48570  0.70340  0.92491  Biso   1.000  C
  H3       1.0000 0.48340  0.66990  0.90820  Biso   1.000  H
  C7       1.0000 0.41000  0.76680  0.92449  Biso   1.000  C
  H4       1.0000 0.35600  0.77690  0.90760  Biso   1.000  H
  C8       1.0000 0.65520  0.62140  0.94913  Biso   1.000  C
  C9       1.0000 0.96720  0.01860  0.96498  Biso   1.000  C
  C10      1.0000 0.85210  0.01080  0.98491  Biso   1.000  C
  C11      1.0000 0.75210  0.06290  0.98367  Biso   1.000  C
  H5       1.0000 0.76000  0.10570  0.97110  Biso   1.000  H
  C12      1.0000 0.64160  0.05240  0.00071  Biso   1.000  C
  H6       1.0000 0.57370  0.08800  0.99970  Biso   1.000  H
  C13      1.0000 0.62930  0.99000  0.01938  Biso   1.000  C
  C14      1.0000 0.72960  0.93760  0.02042  Biso   1.000  C
  H7       1.0000 0.72190  0.89440  0.03280  Biso   1.000  H
  C15      1.0000 0.83850  0.94890  0.00356  Biso   1.000  C
  H8       1.0000 0.90660  0.91340  0.00460  Biso   1.000  H
  C16      1.0000 0.51450  0.98250  0.03945  Biso   1.000  C
  C17      1.0000 0.13510  0.10840  0.05484  Biso   1.000  C
  C18      1.0000 0.06330  0.18080  0.05238  Biso   1.000  C
  C19      1.0000 0.98850  0.19470  0.02684  Biso   1.000  C
  H9       1.0000 0.98710  0.15920  0.01080  Biso   1.000  H
  C20      1.0000 0.91640  0.25930  0.02432  Biso   1.000  C
  H10      1.0000 0.86570  0.26810  0.00670  Biso   1.000  H
  C21      1.0000 0.91840  0.31170  0.04788  Biso   1.000  C
  C22      1.0000 0.99570  0.29890  0.07277  Biso   1.000  C
  H11      1.0000 0.99960  0.33490  0.08860  Biso   1.000  H
  C23      1.0000 0.06790  0.23360  0.07493  Biso   1.000  C
  H12      1.0000 0.12090  0.22540  0.09220  Biso   1.000  H
  C24      1.0000 0.83120  0.37780  0.04616  Biso   1.000  C
  C25      1.0000 0.06340  0.01880  0.64845  Biso   1.000  C
  H13      1.0000 0.99720  0.98940  0.63950  Biso   1.000  H
  C26      1.0000 0.05540  0.03400  0.67961  Biso   1.000  C
  C27      1.0000 0.95200  0.99910  0.69541  Biso   1.000  C
  H14      1.0000 0.89520  0.96850  0.68400  Biso   1.000  H
  C28      1.0000 0.82660  0.96070  0.73910  Biso   1.000  C
  H15      1.0000 0.86590  0.91280  0.74630  Biso   1.000  H
  C29      1.0000 0.71010  0.94190  0.71933  Biso   1.000  C
  H16      1.0000 0.73800  0.91150  0.70180  Biso   1.000  H
  H17      1.0000 0.67070  0.98850  0.71160  Biso   1.000  H
  C30      1.0000 0.60990  0.89780  0.73824  Biso   1.000  C
  H18      1.0000 0.53240  0.88810  0.72570  Biso   1.000  H
  H19      1.0000 0.64700  0.84910  0.74430  Biso   1.000  H
  C31      1.0000 0.57120  0.94110  0.76637  Biso   1.000  C
  H20      1.0000 0.50950  0.91100  0.77840  Biso   1.000  H
  H21      1.0000 0.52720  0.98790  0.76030  Biso   1.000  H
  C32      1.0000 0.68940  0.96010  0.78606  Biso   1.000  C
  H22      1.0000 0.66260  0.99000  0.80390  Biso   1.000  H
  H23      1.0000 0.73100  0.91370  0.79340  Biso   1.000  H
  C33      1.0000 0.78360  0.00480  0.76654  Biso   1.000  C
  H24      1.0000 0.73730  0.05030  0.75910  Biso   1.000  H
  C34      1.0000 0.92380  0.01960  0.80993  Biso   1.000  C
  H25      1.0000 0.85940  0.99420  0.82130  Biso   1.000  H
  C35      1.0000 0.03980  0.04440  0.82565  Biso   1.000  C
  C36      1.0000 0.04750  0.02540  0.85599  Biso   1.000  C
  H26      1.0000 0.97970  0.99620  0.86440  Biso   1.000  H
  C37      1.0000 0.23650  0.08940  0.86160  Biso   1.000  C
  H27      1.0000 0.30420  0.10630  0.87440  Biso   1.000  H
  C38      1.0000 0.24000  0.11170  0.83130  Biso   1.000  C
  C39      1.0000 0.13850  0.08700  0.81182  Biso   1.000  C
  C40      1.0000 0.15260  0.07910  0.69357  Biso   1.000  C
  C41      1.0000 0.24820  0.08810  0.64362  Biso   1.000  C
  H28      1.0000 0.31350  0.10790  0.63080  Biso   1.000  H
  C42      1.0000 0.25170  0.10720  0.67424  Biso   1.000  C
  C43      1.0000 0.35180  0.16110  0.81978  Biso   1.000  C
  C44      1.0000 0.44610  0.18400  0.84475  Biso   1.000  C
  H29      1.0000 0.40100  0.21470  0.85980  Biso   1.000  H
  H30      1.0000 0.51710  0.21290  0.83590  Biso   1.000  H
  H31      1.0000 0.48080  0.13920  0.85460  Biso   1.000  H
  C45      1.0000 0.43000  0.11320  0.79619  Biso   1.000  C
  H32      1.0000 0.46240  0.06790  0.80610  Biso   1.000  H
  H33      1.0000 0.50300  0.14250  0.78850  Biso   1.000  H
  H34      1.0000 0.37350  0.09940  0.77930  Biso   1.000  H
  C46      1.0000 0.30080  0.23230  0.80497  Biso   1.000  C
  H35      1.0000 0.25270  0.26160  0.82000  Biso   1.000  H
  H36      1.0000 0.24350  0.21920  0.78810  Biso   1.000  H
  H37      1.0000 0.37340  0.26190  0.79730  Biso   1.000  H
  C47      1.0000 0.36260  0.15470  0.68680  Biso   1.000  C
  C48      1.0000 0.31140  0.22410  0.70340  Biso   1.000  C
  H38      1.0000 0.26240  0.25530  0.68920  Biso   1.000  H
  H39      1.0000 0.38410  0.25290  0.71150  Biso   1.000  H
  H40      1.0000 0.25490  0.20850  0.72010  Biso   1.000  H
  C49      1.0000 0.43880  0.10530  0.70898  Biso   1.000  C
  H41      1.0000 0.47200  0.06140  0.69820  Biso   1.000  H
  H42      1.0000 0.38190  0.08910  0.72550  Biso   1.000  H
  H43      1.0000 0.51120  0.13390  0.71740  Biso   1.000  H
  C50      1.0000 0.45300  0.18290  0.66227  Biso   1.000  C
  H44      1.0000 0.40500  0.21480  0.64820  Biso   1.000  H
  H45      1.0000 0.48930  0.14030  0.65120  Biso   1.000  H
  H46      1.0000 0.52300  0.21170  0.67150  Biso   1.000  H
  Cd4      1.0000 0.34589  0.99603  0.42211  Biso   1.000  Cd
  Cd5      1.0000 0.25781  0.00038  0.50175  Biso   1.000  Cd
  Cd6      1.0000 0.17366  0.00333  0.58218  Biso   1.000  Cd
  Cu2      1.0000 0.47282  0.93277  0.25218  Biso   1.000  Cu
  O15      1.0000 0.22880  0.09990  0.42501  Biso   1.000  O
  O16      1.0000 0.14140  0.06710  0.46932  Biso   1.000  O
  O17      1.0000 0.78700  0.39330  0.47353  Biso   1.000  O
  O18      1.0000 0.82900  0.41180  0.42444  Biso   1.000  O
  O19      1.0000 0.53570  0.93810  0.44287  Biso   1.000  O
  O20      1.0000 0.43450  0.02300  0.47030  Biso   1.000  O
  O21      1.0000 0.97960  0.05890  0.56201  Biso   1.000  O
  O22      1.0000 0.08450  0.97770  0.53389  Biso   1.000  O
  O23      1.0000 0.29650  0.90160  0.57861  Biso   1.000  O
  O24      1.0000 0.38160  0.93870  0.53437  Biso   1.000  O
  O25      1.0000 0.68560  0.58580  0.57006  Biso   1.000  O
  O26      1.0000 0.71980  0.60740  0.52111  Biso   1.000  O
  O27      1.0000 0.35960  0.89640  0.28359  Biso   1.000  O
  O28      1.0000 0.34750  0.90540  0.22202  Biso   1.000  O
  N5       1.0000 0.35560  0.95440  0.37420  Biso   1.000  N
  N6       1.0000 0.34240  0.95700  0.13095  Biso   1.000  N
  N7       1.0000 0.57070  0.99430  0.22388  Biso   1.000  N
  N8       1.0000 0.59610  0.97000  0.28167  Biso   1.000  N
  C51      1.0000 0.15920  0.11090  0.44821  Biso   1.000  C
  C52      1.0000 0.08710  0.18400  0.44898  Biso   1.000  C
  C53      1.0000 0.01040  0.20100  0.47360  Biso   1.000  C
  H47      1.0000 0.00980  0.16870  0.49070  Biso   1.000  H
  C54      1.0000 0.93470  0.26410  0.47366  Biso   1.000  C
  H48      1.0000 0.88180  0.27480  0.49070  Biso   1.000  H
  C55      1.0000 0.93490  0.31190  0.44934  Biso   1.000  C
  C56      1.0000 0.01430  0.29660  0.42491  Biso   1.000  C
  H49      1.0000 0.01660  0.33010  0.40820  Biso   1.000  H
  C57      1.0000 0.09000  0.23320  0.42449  Biso   1.000  C
  H50      1.0000 0.14400  0.22310  0.40760  Biso   1.000  H
  C58      1.0000 0.84480  0.37860  0.44913  Biso   1.000  C
  C59      1.0000 0.53280  0.98140  0.46498  Biso   1.000  C
  C60      1.0000 0.64790  0.98920  0.48491  Biso   1.000  C
  C61      1.0000 0.74790  0.93710  0.48367  Biso   1.000  C
  H51      1.0000 0.74000  0.89430  0.47110  Biso   1.000  H
  C62      1.0000 0.85840  0.94760  0.50071  Biso   1.000  C
  H52      1.0000 0.92630  0.91200  0.49970  Biso   1.000  H
  C63      1.0000 0.87070  0.01000  0.51938  Biso   1.000  C
  C64      1.0000 0.77040  0.06240  0.52042  Biso   1.000  C
  H53      1.0000 0.77810  0.10560  0.53280  Biso   1.000  H
  C65      1.0000 0.66150  0.05110  0.50356  Biso   1.000  C
  H54      1.0000 0.59340  0.08660  0.50460  Biso   1.000  H
  C66      1.0000 0.98550  0.01750  0.53945  Biso   1.000  C
  C67      1.0000 0.36490  0.89160  0.55484  Biso   1.000  C
  C68      1.0000 0.43670  0.81920  0.55238  Biso   1.000  C
  C69      1.0000 0.51150  0.80530  0.52684  Biso   1.000  C
  H55      1.0000 0.51290  0.84080  0.51080  Biso   1.000  H
  C70      1.0000 0.58360  0.74070  0.52432  Biso   1.000  C
  H56      1.0000 0.63430  0.73190  0.50670  Biso   1.000  H
  C71      1.0000 0.58160  0.68830  0.54788  Biso   1.000  C
  C72      1.0000 0.50430  0.70110  0.57277  Biso   1.000  C
  H57      1.0000 0.50040  0.66510  0.58860  Biso   1.000  H
  C73      1.0000 0.43210  0.76640  0.57493  Biso   1.000  C
  H58      1.0000 0.37910  0.77460  0.59220  Biso   1.000  H
  C74      1.0000 0.66880  0.62220  0.54616  Biso   1.000  C
  C75      1.0000 0.43660  0.98120  0.14845  Biso   1.000  C
  H59      1.0000 0.50280  0.01060  0.13950  Biso   1.000  H
  C76      1.0000 0.44460  0.96600  0.17961  Biso   1.000  C
  C77      1.0000 0.54800  0.00090  0.19541  Biso   1.000  C
  H60      1.0000 0.60480  0.03150  0.18400  Biso   1.000  H
  C78      1.0000 0.67340  0.03930  0.23910  Biso   1.000  C
  H61      1.0000 0.63410  0.08720  0.24630  Biso   1.000  H
  C79      1.0000 0.78990  0.05810  0.21933  Biso   1.000  C
  H62      1.0000 0.76200  0.08850  0.20180  Biso   1.000  H
  H63      1.0000 0.82930  0.01150  0.21160  Biso   1.000  H
  C80      1.0000 0.89010  0.10220  0.23824  Biso   1.000  C
  H64      1.0000 0.96760  0.11190  0.22570  Biso   1.000  H
  H65      1.0000 0.85300  0.15090  0.24430  Biso   1.000  H
  C81      1.0000 0.92880  0.05890  0.26637  Biso   1.000  C
  H66      1.0000 0.99050  0.08900  0.27840  Biso   1.000  H
  H67      1.0000 0.97280  0.01210  0.26030  Biso   1.000  H
  C82      1.0000 0.81060  0.03990  0.28606  Biso   1.000  C
  H68      1.0000 0.83740  0.01000  0.30390  Biso   1.000  H
  H69      1.0000 0.76900  0.08630  0.29340  Biso   1.000  H
  C83      1.0000 0.71640  0.99520  0.26654  Biso   1.000  C
  H70      1.0000 0.76270  0.94970  0.25910  Biso   1.000  H
  C84      1.0000 0.57620  0.98040  0.30993  Biso   1.000  C
  H71      1.0000 0.64060  0.00580  0.32130  Biso   1.000  H
  C85      1.0000 0.46020  0.95560  0.32565  Biso   1.000  C
  C86      1.0000 0.45250  0.97460  0.35599  Biso   1.000  C
  H72      1.0000 0.52030  0.00380  0.36440  Biso   1.000  H
  C87      1.0000 0.26350  0.91060  0.36160  Biso   1.000  C
  H73      1.0000 0.19580  0.89370  0.37440  Biso   1.000  H
  C88      1.0000 0.26000  0.88830  0.33130  Biso   1.000  C
  C89      1.0000 0.36150  0.91300  0.31182  Biso   1.000  C
  C90      1.0000 0.34740  0.92090  0.19357  Biso   1.000  C
  C91      1.0000 0.25180  0.91190  0.14362  Biso   1.000  C
  H74      1.0000 0.18650  0.89210  0.13080  Biso   1.000  H
  C92      1.0000 0.24830  0.89280  0.17424  Biso   1.000  C
  C93      1.0000 0.14820  0.83890  0.31978  Biso   1.000  C
  C94      1.0000 0.05390  0.81600  0.34475  Biso   1.000  C
  H75      1.0000 0.09900  0.78530  0.35980  Biso   1.000  H
  H76      1.0000 0.98290  0.78710  0.33590  Biso   1.000  H
  H77      1.0000 0.01920  0.86080  0.35460  Biso   1.000  H
  C95      1.0000 0.07000  0.88680  0.29619  Biso   1.000  C
  H78      1.0000 0.03760  0.93210  0.30610  Biso   1.000  H
  H79      1.0000 0.99700  0.85750  0.28850  Biso   1.000  H
  H80      1.0000 0.12650  0.90060  0.27930  Biso   1.000  H
  C96      1.0000 0.19920  0.76770  0.30497  Biso   1.000  C
  H81      1.0000 0.24730  0.73840  0.32000  Biso   1.000  H
  H82      1.0000 0.25650  0.78080  0.28810  Biso   1.000  H
  H83      1.0000 0.12660  0.73810  0.29730  Biso   1.000  H
  C97      1.0000 0.13740  0.84530  0.18680  Biso   1.000  C
  C98      1.0000 0.18860  0.77590  0.20340  Biso   1.000  C
  H84      1.0000 0.23760  0.74470  0.18920  Biso   1.000  H
  H85      1.0000 0.11590  0.74710  0.21150  Biso   1.000  H
  H86      1.0000 0.24510  0.79150  0.22010  Biso   1.000  H
  C99      1.0000 0.06120  0.89470  0.20898  Biso   1.000  C
  H87      1.0000 0.02800  0.93860  0.19820  Biso   1.000  H
  H88      1.0000 0.11810  0.91090  0.22550  Biso   1.000  H
  H89      1.0000 0.98880  0.86610  0.21740  Biso   1.000  H
  C100     1.0000 0.04700  0.81710  0.16227  Biso   1.000  C
  H90      1.0000 0.09500  0.78520  0.14820  Biso   1.000  H
  H91      1.0000 0.01070  0.85970  0.15120  Biso   1.000  H
  H92      1.0000 0.97700  0.78830  0.17150  Biso   1.000  H
  Cd7      1.0000 0.84589  0.50397  0.57789  Biso   1.000  Cd
  Cd8      1.0000 0.75781  0.49962  0.49825  Biso   1.000  Cd
  Cd9      1.0000 0.67366  0.49667  0.41782  Biso   1.000  Cd
  Cu3      1.0000 0.97282  0.56723  0.74782  Biso   1.000  Cu
  O29      1.0000 0.72880  0.40010  0.57499  Biso   1.000  O
  O30      1.0000 0.64140  0.43290  0.53068  Biso   1.000  O
  O31      1.0000 0.28700  0.10670  0.52647  Biso   1.000  O
  O32      1.0000 0.32900  0.08820  0.57556  Biso   1.000  O
  O33      1.0000 0.03570  0.56190  0.55713  Biso   1.000  O
  O34      1.0000 0.93450  0.47700  0.52970  Biso   1.000  O
  O35      1.0000 0.47960  0.44110  0.43799  Biso   1.000  O
  O36      1.0000 0.58450  0.52230  0.46611  Biso   1.000  O
  O37      1.0000 0.79650  0.59840  0.42139  Biso   1.000  O
  O38      1.0000 0.88160  0.56130  0.46563  Biso   1.000  O
  O39      1.0000 0.18560  0.91420  0.42994  Biso   1.000  O
  O40      1.0000 0.21980  0.89260  0.47889  Biso   1.000  O
  O41      1.0000 0.85960  0.60360  0.71641  Biso   1.000  O
  O42      1.0000 0.84750  0.59460  0.77798  Biso   1.000  O
  N9       1.0000 0.85560  0.54560  0.62580  Biso   1.000  N
  N10      1.0000 0.84240  0.54300  0.86905  Biso   1.000  N
  N11      1.0000 0.07070  0.50570  0.77612  Biso   1.000  N
  N12      1.0000 0.09610  0.53000  0.71833  Biso   1.000  N
  C101     1.0000 0.65920  0.38910  0.55179  Biso   1.000  C
  C102     1.0000 0.58710  0.31600  0.55102  Biso   1.000  C
  C103     1.0000 0.51040  0.29900  0.52640  Biso   1.000  C
  H93      1.0000 0.50980  0.33130  0.50930  Biso   1.000  H
  C104     1.0000 0.43470  0.23590  0.52634  Biso   1.000  C
  H94      1.0000 0.38180  0.22520  0.50930  Biso   1.000  H
  C105     1.0000 0.43490  0.18810  0.55066  Biso   1.000  C
  C106     1.0000 0.51430  0.20340  0.57509  Biso   1.000  C
  H95      1.0000 0.51660  0.16990  0.59180  Biso   1.000  H
  C107     1.0000 0.59000  0.26680  0.57551  Biso   1.000  C
  H96      1.0000 0.64400  0.27690  0.59240  Biso   1.000  H
  C108     1.0000 0.34480  0.12140  0.55087  Biso   1.000  C
  C109     1.0000 0.03280  0.51860  0.53502  Biso   1.000  C
  C110     1.0000 0.14790  0.51080  0.51509  Biso   1.000  C
  C111     1.0000 0.24790  0.56290  0.51633  Biso   1.000  C
  H97      1.0000 0.24000  0.60570  0.52890  Biso   1.000  H
  C112     1.0000 0.35840  0.55240  0.49929  Biso   1.000  C
  H98      1.0000 0.42630  0.58800  0.50030  Biso   1.000  H
  C113     1.0000 0.37070  0.49000  0.48062  Biso   1.000  C
  C114     1.0000 0.27040  0.43760  0.47958  Biso   1.000  C
  H99      1.0000 0.27810  0.39440  0.46720  Biso   1.000  H
  C115     1.0000 0.16150  0.44890  0.49644  Biso   1.000  C
  H100     1.0000 0.09340  0.41340  0.49540  Biso   1.000  H
  C116     1.0000 0.48550  0.48250  0.46055  Biso   1.000  C
  C117     1.0000 0.86490  0.60840  0.44516  Biso   1.000  C
  C118     1.0000 0.93670  0.68080  0.44762  Biso   1.000  C
  C119     1.0000 0.01150  0.69470  0.47316  Biso   1.000  C
  H101     1.0000 0.01290  0.65920  0.48920  Biso   1.000  H
  C120     1.0000 0.08360  0.75930  0.47568  Biso   1.000  C
  H102     1.0000 0.13430  0.76810  0.49330  Biso   1.000  H
  C121     1.0000 0.08160  0.81170  0.45212  Biso   1.000  C
  C122     1.0000 0.00430  0.79890  0.42723  Biso   1.000  C
  H103     1.0000 0.00040  0.83490  0.41140  Biso   1.000  H
  C123     1.0000 0.93210  0.73360  0.42507  Biso   1.000  C
  H104     1.0000 0.87910  0.72540  0.40780  Biso   1.000  H
  C124     1.0000 0.16880  0.87780  0.45384  Biso   1.000  C
  C125     1.0000 0.93660  0.51880  0.85155  Biso   1.000  C
  H105     1.0000 0.00280  0.48940  0.86050  Biso   1.000  H
  C126     1.0000 0.94460  0.53400  0.82039  Biso   1.000  C
  C127     1.0000 0.04800  0.49910  0.80459  Biso   1.000  C
  H106     1.0000 0.10480  0.46850  0.81600  Biso   1.000  H
  C128     1.0000 0.17340  0.46070  0.76090  Biso   1.000  C
  H107     1.0000 0.13410  0.41280  0.75370  Biso   1.000  H
  C129     1.0000 0.28990  0.44190  0.78067  Biso   1.000  C
  H108     1.0000 0.26200  0.41150  0.79820  Biso   1.000  H
  H109     1.0000 0.32930  0.48850  0.78840  Biso   1.000  H
  C130     1.0000 0.39010  0.39780  0.76176  Biso   1.000  C
  H110     1.0000 0.46760  0.38810  0.77430  Biso   1.000  H
  H111     1.0000 0.35300  0.34910  0.75570  Biso   1.000  H
  C131     1.0000 0.42880  0.44110  0.73363  Biso   1.000  C
  H112     1.0000 0.49050  0.41100  0.72160  Biso   1.000  H
  H113     1.0000 0.47280  0.48790  0.73970  Biso   1.000  H
  C132     1.0000 0.31060  0.46010  0.71394  Biso   1.000  C
  H114     1.0000 0.33740  0.49000  0.69610  Biso   1.000  H
  H115     1.0000 0.26900  0.41370  0.70660  Biso   1.000  H
  C133     1.0000 0.21640  0.50480  0.73346  Biso   1.000  C
  H116     1.0000 0.26270  0.55030  0.74090  Biso   1.000  H
  C134     1.0000 0.07620  0.51960  0.69007  Biso   1.000  C
  H117     1.0000 0.14060  0.49420  0.67870  Biso   1.000  H
  C135     1.0000 0.96020  0.54440  0.67435  Biso   1.000  C
  C136     1.0000 0.95250  0.52540  0.64401  Biso   1.000  C
  H118     1.0000 0.02030  0.49620  0.63560  Biso   1.000  H
  C137     1.0000 0.76350  0.58940  0.63840  Biso   1.000  C
  H119     1.0000 0.69580  0.60630  0.62560  Biso   1.000  H
  C138     1.0000 0.76000  0.61170  0.66870  Biso   1.000  C
  C139     1.0000 0.86150  0.58700  0.68818  Biso   1.000  C
  C140     1.0000 0.84740  0.57910  0.80643  Biso   1.000  C
  C141     1.0000 0.75180  0.58810  0.85638  Biso   1.000  C
  H120     1.0000 0.68650  0.60790  0.86920  Biso   1.000  H
  C142     1.0000 0.74830  0.60720  0.82576  Biso   1.000  C
  C143     1.0000 0.64820  0.66110  0.68022  Biso   1.000  C
  C144     1.0000 0.55390  0.68400  0.65525  Biso   1.000  C
  H121     1.0000 0.59900  0.71470  0.64020  Biso   1.000  H
  H122     1.0000 0.48290  0.71290  0.66410  Biso   1.000  H
  H123     1.0000 0.51920  0.63920  0.64540  Biso   1.000  H
  C145     1.0000 0.57000  0.61320  0.70381  Biso   1.000  C
  H124     1.0000 0.53760  0.56790  0.69390  Biso   1.000  H
  H125     1.0000 0.49700  0.64250  0.71150  Biso   1.000  H
  H126     1.0000 0.62650  0.59940  0.72070  Biso   1.000  H
  C146     1.0000 0.69920  0.73230  0.69503  Biso   1.000  C
  H127     1.0000 0.74730  0.76160  0.68000  Biso   1.000  H
  H128     1.0000 0.75650  0.71920  0.71190  Biso   1.000  H
  H129     1.0000 0.62660  0.76190  0.70270  Biso   1.000  H
  C147     1.0000 0.63740  0.65470  0.81320  Biso   1.000  C
  C148     1.0000 0.68860  0.72410  0.79660  Biso   1.000  C
  H130     1.0000 0.73760  0.75530  0.81080  Biso   1.000  H
  H131     1.0000 0.61590  0.75290  0.78850  Biso   1.000  H
  H132     1.0000 0.74510  0.70850  0.77990  Biso   1.000  H
  C149     1.0000 0.56120  0.60530  0.79102  Biso   1.000  C
  H133     1.0000 0.52800  0.56140  0.80180  Biso   1.000  H
  H134     1.0000 0.61810  0.58910  0.77450  Biso   1.000  H
  H135     1.0000 0.48880  0.63390  0.78260  Biso   1.000  H
  C150     1.0000 0.54700  0.68290  0.83773  Biso   1.000  C
  H136     1.0000 0.59500  0.71480  0.85180  Biso   1.000  H
  H137     1.0000 0.51070  0.64030  0.84880  Biso   1.000  H
  H138     1.0000 0.47700  0.71170  0.82850  Biso   1.000  H
  Cd10     1.0000 0.65411  0.49603  0.07789  Biso   1.000  Cd
  Cd11     1.0000 0.74219  0.50038  0.99825  Biso   1.000  Cd
  Cd12     1.0000 0.82634  0.50333  0.91782  Biso   1.000  Cd
  Cu4      1.0000 0.52718  0.43277  0.24782  Biso   1.000  Cu
  O43      1.0000 0.77120  0.59990  0.07499  Biso   1.000  O
  O44      1.0000 0.85860  0.56710  0.03068  Biso   1.000  O
  O45      1.0000 0.21300  0.89330  0.02647  Biso   1.000  O
  O46      1.0000 0.17100  0.91180  0.07556  Biso   1.000  O
  O47      1.0000 0.46430  0.43810  0.05713  Biso   1.000  O
  O48      1.0000 0.56550  0.52300  0.02970  Biso   1.000  O
  O49      1.0000 0.02040  0.55890  0.93799  Biso   1.000  O
  O50      1.0000 0.91550  0.47770  0.96611  Biso   1.000  O
  O51      1.0000 0.70350  0.40160  0.92139  Biso   1.000  O
  O52      1.0000 0.61840  0.43870  0.96563  Biso   1.000  O
  O53      1.0000 0.31440  0.08580  0.92994  Biso   1.000  O
  O54      1.0000 0.28020  0.10740  0.97889  Biso   1.000  O
  O55      1.0000 0.64040  0.39640  0.21641  Biso   1.000  O
  O56      1.0000 0.65250  0.40540  0.27798  Biso   1.000  O
  N13      1.0000 0.64440  0.45440  0.12580  Biso   1.000  N
  N14      1.0000 0.65760  0.45700  0.36905  Biso   1.000  N
  N15      1.0000 0.42930  0.49430  0.27612  Biso   1.000  N
  N16      1.0000 0.40390  0.47000  0.21833  Biso   1.000  N
  C151     1.0000 0.84080  0.61090  0.05179  Biso   1.000  C
  C152     1.0000 0.91290  0.68400  0.05102  Biso   1.000  C
  C153     1.0000 0.98960  0.70100  0.02640  Biso   1.000  C
  H139     1.0000 0.99020  0.66870  0.00930  Biso   1.000  H
  C154     1.0000 0.06530  0.76410  0.02634  Biso   1.000  C
  H140     1.0000 0.11820  0.77480  0.00930  Biso   1.000  H
  C155     1.0000 0.06510  0.81190  0.05066  Biso   1.000  C
  C156     1.0000 0.98570  0.79660  0.07509  Biso   1.000  C
  H141     1.0000 0.98340  0.83010  0.09180  Biso   1.000  H
  C157     1.0000 0.91000  0.73320  0.07551  Biso   1.000  C
  H142     1.0000 0.85600  0.72310  0.09240  Biso   1.000  H
  C158     1.0000 0.15520  0.87860  0.05087  Biso   1.000  C
  C159     1.0000 0.46720  0.48140  0.03502  Biso   1.000  C
  C160     1.0000 0.35210  0.48920  0.01509  Biso   1.000  C
  C161     1.0000 0.25210  0.43710  0.01633  Biso   1.000  C
  H143     1.0000 0.26000  0.39430  0.02890  Biso   1.000  H
  C162     1.0000 0.14160  0.44760  0.99929  Biso   1.000  C
  H144     1.0000 0.07370  0.41200  0.00030  Biso   1.000  H
  C163     1.0000 0.12930  0.51000  0.98062  Biso   1.000  C
  C164     1.0000 0.22960  0.56240  0.97958  Biso   1.000  C
  H145     1.0000 0.22190  0.60560  0.96720  Biso   1.000  H
  C165     1.0000 0.33850  0.55110  0.99644  Biso   1.000  C
  H146     1.0000 0.40660  0.58660  0.99540  Biso   1.000  H
  C166     1.0000 0.01450  0.51750  0.96055  Biso   1.000  C
  C167     1.0000 0.63510  0.39160  0.94516  Biso   1.000  C
  C168     1.0000 0.56330  0.31920  0.94762  Biso   1.000  C
  C169     1.0000 0.48850  0.30530  0.97316  Biso   1.000  C
  H147     1.0000 0.48710  0.34080  0.98920  Biso   1.000  H
  C170     1.0000 0.41640  0.24070  0.97568  Biso   1.000  C
  H148     1.0000 0.36570  0.23190  0.99330  Biso   1.000  H
  C171     1.0000 0.41840  0.18830  0.95212  Biso   1.000  C
  C172     1.0000 0.49570  0.20110  0.92723  Biso   1.000  C
  H149     1.0000 0.49960  0.16510  0.91140  Biso   1.000  H
  C173     1.0000 0.56790  0.26640  0.92507  Biso   1.000  C
  H150     1.0000 0.62090  0.27460  0.90780  Biso   1.000  H
  C174     1.0000 0.33120  0.12220  0.95384  Biso   1.000  C
  C175     1.0000 0.56340  0.48120  0.35155  Biso   1.000  C
  H151     1.0000 0.49720  0.51060  0.36050  Biso   1.000  H
  C176     1.0000 0.55540  0.46600  0.32039  Biso   1.000  C
  C177     1.0000 0.45200  0.50090  0.30459  Biso   1.000  C
  H152     1.0000 0.39520  0.53150  0.31600  Biso   1.000  H
  C178     1.0000 0.32660  0.53930  0.26090  Biso   1.000  C
  H153     1.0000 0.36590  0.58720  0.25370  Biso   1.000  H
  C179     1.0000 0.21010  0.55810  0.28067  Biso   1.000  C
  H154     1.0000 0.23800  0.58850  0.29820  Biso   1.000  H
  H155     1.0000 0.17070  0.51150  0.28840  Biso   1.000  H
  C180     1.0000 0.10990  0.60220  0.26176  Biso   1.000  C
  H156     1.0000 0.03240  0.61190  0.27430  Biso   1.000  H
  H157     1.0000 0.14700  0.65090  0.25570  Biso   1.000  H
  C181     1.0000 0.07120  0.55890  0.23363  Biso   1.000  C
  H158     1.0000 0.00950  0.58900  0.22160  Biso   1.000  H
  H159     1.0000 0.02720  0.51210  0.23970  Biso   1.000  H
  C182     1.0000 0.18940  0.53990  0.21394  Biso   1.000  C
  H160     1.0000 0.16260  0.51000  0.19610  Biso   1.000  H
  H161     1.0000 0.23100  0.58630  0.20660  Biso   1.000  H
  C183     1.0000 0.28360  0.49520  0.23346  Biso   1.000  C
  H162     1.0000 0.23730  0.44970  0.24090  Biso   1.000  H
  C184     1.0000 0.42380  0.48040  0.19007  Biso   1.000  C
  H163     1.0000 0.35940  0.50580  0.17870  Biso   1.000  H
  C185     1.0000 0.53980  0.45560  0.17435  Biso   1.000  C
  C186     1.0000 0.54750  0.47460  0.14401  Biso   1.000  C
  H164     1.0000 0.47970  0.50380  0.13560  Biso   1.000  H
  C187     1.0000 0.73650  0.41060  0.13840  Biso   1.000  C
  H165     1.0000 0.80420  0.39370  0.12560  Biso   1.000  H
  C188     1.0000 0.74000  0.38830  0.16870  Biso   1.000  C
  C189     1.0000 0.63850  0.41300  0.18818  Biso   1.000  C
  C190     1.0000 0.65260  0.42090  0.30643  Biso   1.000  C
  C191     1.0000 0.74820  0.41190  0.35638  Biso   1.000  C
  H166     1.0000 0.81350  0.39210  0.36920  Biso   1.000  H
  C192     1.0000 0.75170  0.39280  0.32576  Biso   1.000  C
  C193     1.0000 0.85180  0.33890  0.18022  Biso   1.000  C
  C194     1.0000 0.94610  0.31600  0.15525  Biso   1.000  C
  H167     1.0000 0.90100  0.28530  0.14020  Biso   1.000  H
  H168     1.0000 0.01710  0.28710  0.16410  Biso   1.000  H
  H169     1.0000 0.98080  0.36080  0.14540  Biso   1.000  H
  C195     1.0000 0.93000  0.38680  0.20381  Biso   1.000  C
  H170     1.0000 0.96240  0.43210  0.19390  Biso   1.000  H
  H171     1.0000 0.00300  0.35750  0.21150  Biso   1.000  H
  H172     1.0000 0.87350  0.40060  0.22070  Biso   1.000  H
  C196     1.0000 0.80080  0.26770  0.19503  Biso   1.000  C
  H173     1.0000 0.75270  0.23840  0.18000  Biso   1.000  H
  H174     1.0000 0.74350  0.28080  0.21190  Biso   1.000  H
  H175     1.0000 0.87340  0.23810  0.20270  Biso   1.000  H
  C197     1.0000 0.86260  0.34530  0.31320  Biso   1.000  C
  C198     1.0000 0.81140  0.27590  0.29660  Biso   1.000  C
  H176     1.0000 0.76240  0.24470  0.31080  Biso   1.000  H
  H177     1.0000 0.88410  0.24710  0.28850  Biso   1.000  H
  H178     1.0000 0.75490  0.29150  0.27990  Biso   1.000  H
  C199     1.0000 0.93880  0.39470  0.29102  Biso   1.000  C
  H179     1.0000 0.97200  0.43860  0.30180  Biso   1.000  H
  H180     1.0000 0.88190  0.41090  0.27450  Biso   1.000  H
  H181     1.0000 0.01120  0.36610  0.28260  Biso   1.000  H
  C200     1.0000 0.95300  0.31710  0.33773  Biso   1.000  C
  H182     1.0000 0.90500  0.28520  0.35180  Biso   1.000  H
  H183     1.0000 0.98930  0.35970  0.34880  Biso   1.000  H
  H184     1.0000 0.02300  0.28830  0.32850  Biso   1.000  H
