data_ja4012707_si_005
_audit_creation_date              2015-10-29
_audit_creation_method            'Materials Studio'
_symmetry_space_group_name_H-M    'P1'
_symmetry_Int_Tables_number       1
_symmetry_cell_setting            triclinic
loop_
_symmetry_equiv_pos_as_xyz
  x,y,z
_cell_length_a                    12.4815
_cell_length_b                    12.4815
_cell_length_c                    12.4815
_cell_angle_alpha                 90.0000
_cell_angle_beta                  90.0000
_cell_angle_gamma                 90.0000
loop_
_atom_site_label
_atom_site_type_symbol
_atom_site_fract_x
_atom_site_fract_y
_atom_site_fract_z
_atom_site_U_iso_or_equiv
_atom_site_adp_type
_atom_site_occupancy
C1     C     0.04880   0.34090   0.06810   0.13796  Uiso   1.00
N2     N     0.07420   0.25940   0.08820   0.13796  Uiso   1.00
C3     C     0.45120   0.65910   0.56810   0.13796  Uiso   1.00
N4     N     0.42580   0.74060   0.58820   0.13796  Uiso   1.00
C5     C     0.95120   0.84090   0.43190   0.13796  Uiso   1.00
N6     N     0.92580   0.75940   0.41180   0.13796  Uiso   1.00
C7     C     0.54880   0.15910   0.93190   0.13796  Uiso   1.00
N8     N     0.57420   0.24060   0.91180   0.13796  Uiso   1.00
C9     C     0.06810   0.04880   0.34090   0.13796  Uiso   1.00
N10    N     0.08820   0.07420   0.25940   0.13796  Uiso   1.00
C11    C     0.56810   0.45120   0.65910   0.13796  Uiso   1.00
N12    N     0.58820   0.42580   0.74060   0.13796  Uiso   1.00
C13    C     0.43190   0.95120   0.84090   0.13796  Uiso   1.00
N14    N     0.41180   0.92580   0.75940   0.13796  Uiso   1.00
C15    C     0.93190   0.54880   0.15910   0.13796  Uiso   1.00
N16    N     0.91180   0.57420   0.24060   0.13796  Uiso   1.00
C17    C     0.34090   0.06810   0.04880   0.13796  Uiso   1.00
N18    N     0.25940   0.08820   0.07420   0.13796  Uiso   1.00
C19    C     0.65910   0.56810   0.45120   0.13796  Uiso   1.00
N20    N     0.74060   0.58820   0.42580   0.13796  Uiso   1.00
C21    C     0.84090   0.43190   0.95120   0.13796  Uiso   1.00
N22    N     0.75940   0.41180   0.92580   0.13796  Uiso   1.00
C23    C     0.15910   0.93190   0.54880   0.13796  Uiso   1.00
N24    N     0.24060   0.91180   0.57420   0.13796  Uiso   1.00
C25    C     0.95120   0.65910   0.93190   0.13796  Uiso   1.00
N26    N     0.92580   0.74060   0.91180   0.13796  Uiso   1.00
C27    C     0.54880   0.34090   0.43190   0.13796  Uiso   1.00
N28    N     0.57420   0.25940   0.41180   0.13796  Uiso   1.00
C29    C     0.04880   0.15910   0.56810   0.13796  Uiso   1.00
N30    N     0.07420   0.24060   0.58820   0.13796  Uiso   1.00
C31    C     0.45120   0.84090   0.06810   0.13796  Uiso   1.00
N32    N     0.42580   0.75940   0.08820   0.13796  Uiso   1.00
C33    C     0.93190   0.95120   0.65910   0.13796  Uiso   1.00
N34    N     0.91180   0.92580   0.74060   0.13796  Uiso   1.00
C35    C     0.43190   0.54880   0.34090   0.13796  Uiso   1.00
N36    N     0.41180   0.57420   0.25940   0.13796  Uiso   1.00
C37    C     0.56810   0.04880   0.15910   0.13796  Uiso   1.00
N38    N     0.58820   0.07420   0.24060   0.13796  Uiso   1.00
C39    C     0.06810   0.45120   0.84090   0.13796  Uiso   1.00
N40    N     0.08820   0.42580   0.75940   0.13796  Uiso   1.00
C41    C     0.65910   0.93190   0.95120   0.13796  Uiso   1.00
N42    N     0.74060   0.91180   0.92580   0.13796  Uiso   1.00
C43    C     0.34090   0.43190   0.54880   0.13796  Uiso   1.00
N44    N     0.25940   0.41180   0.57420   0.13796  Uiso   1.00
C45    C     0.15910   0.56810   0.04880   0.13796  Uiso   1.00
N46    N     0.24060   0.58820   0.07420   0.13796  Uiso   1.00
C47    C     0.84090   0.06810   0.45120   0.13796  Uiso   1.00
N48    N     0.75940   0.08820   0.42580   0.13796  Uiso   1.00
C49    C     0.02620   0.02620   0.02620   0.13796  Uiso   1.00
Zn50   Zn    0.10819   0.10819   0.10819   0.04255  Uiso   1.00
C51    C     0.47380   0.97380   0.52620   0.13796  Uiso   1.00
Zn52   Zn    0.39181   0.89181   0.60819   0.04255  Uiso   1.00
C53    C     0.97380   0.52620   0.47380   0.13796  Uiso   1.00
Zn54   Zn    0.89181   0.60819   0.39181   0.04255  Uiso   1.00
C55    C     0.52620   0.47380   0.97380   0.13796  Uiso   1.00
Zn56   Zn    0.60819   0.39181   0.89181   0.04255  Uiso   1.00
C57    C     0.97380   0.97380   0.97380   0.13796  Uiso   1.00
Zn58   Zn    0.89181   0.89181   0.89181   0.04255  Uiso   1.00
C59    C     0.52620   0.02620   0.47380   0.13796  Uiso   1.00
Zn60   Zn    0.60819   0.10819   0.39181   0.04255  Uiso   1.00
C61    C     0.02620   0.47380   0.52620   0.13796  Uiso   1.00
Zn62   Zn    0.10819   0.39181   0.60819   0.04255  Uiso   1.00
C63    C     0.47380   0.52620   0.02620   0.13796  Uiso   1.00
Zn64   Zn    0.39181   0.60819   0.10819   0.04255  Uiso   1.00
Zn65   Zn    0.50000   0.50000   0.50000   0.04255  Uiso   1.00
Zn66   Zn    0.00000   0.50000   0.00000   0.04255  Uiso   1.00
Zn67   Zn    0.50000   0.00000   0.00000   0.04255  Uiso   1.00
Zn68   Zn    0.00000   0.00000   0.50000   0.04255  Uiso   1.00
loop_
_geom_bond_atom_site_label_1
_geom_bond_atom_site_label_2
_geom_bond_distance
_geom_bond_site_symmetry_2
_ccdc_geom_bond_type
C1     N2      1.095   .     T
C1     Zn66    2.244   .     S
N2     Zn50    1.950   .     S
C3     N4      1.095   .     T
C3     Zn65    2.244   .     S
N4     Zn52    1.950   .     S
C5     N6      1.095   .     T
C5     Zn68    2.244   1_665 S
N6     Zn54    1.950   .     S
C7     N8      1.095   .     T
C7     Zn67    2.244   1_556 S
N8     Zn56    1.950   .     S
C9     N10     1.095   .     T
C9     Zn68    2.244   .     S
N10    Zn50    1.950   .     S
C11    N12     1.095   .     T
C11    Zn65    2.244   .     S
N12    Zn56    1.950   .     S
C13    N14     1.095   .     T
C13    Zn67    2.244   1_566 S
N14    Zn52    1.950   .     S
C15    N16     1.095   .     T
C15    Zn66    2.244   1_655 S
N16    Zn54    1.950   .     S
C17    N18     1.095   .     T
C17    Zn67    2.244   .     S
N18    Zn50    1.950   .     S
C19    N20     1.095   .     T
C19    Zn65    2.244   .     S
N20    Zn54    1.950   .     S
C21    N22     1.095   .     T
C21    Zn66    2.244   1_656 S
N22    Zn56    1.950   .     S
C23    N24     1.095   .     T
C23    Zn68    2.244   1_565 S
N24    Zn52    1.950   .     S
C25    N26     1.095   .     T
C25    Zn66    2.244   1_656 S
N26    Zn58    1.950   .     S
C27    N28     1.095   .     T
C27    Zn65    2.244   .     S
N28    Zn60    1.950   .     S
C29    N30     1.095   .     T
C29    Zn68    2.244   .     S
N30    Zn62    1.950   .     S
C31    N32     1.095   .     T
C31    Zn67    2.244   1_565 S
N32    Zn64    1.950   .     S
C33    N34     1.095   .     T
C33    Zn68    2.244   1_665 S
N34    Zn58    1.950   .     S
C35    N36     1.095   .     T
C35    Zn65    2.244   .     S
N36    Zn64    1.950   .     S
C37    N38     1.095   .     T
C37    Zn67    2.244   .     S
N38    Zn60    1.950   .     S
C39    N40     1.095   .     T
C39    Zn66    2.244   1_556 S
N40    Zn62    1.950   .     S
C41    N42     1.095   .     T
C41    Zn67    2.244   1_566 S
N42    Zn58    1.950   .     S
C43    N44     1.095   .     T
C43    Zn65    2.244   .     S
N44    Zn62    1.950   .     S
C45    N46     1.095   .     T
C45    Zn66    2.244   .     S
N46    Zn64    1.950   .     S
C47    N48     1.095   .     T
C47    Zn68    2.244   1_655 S
N48    Zn60    1.950   .     S
C49    Zn50    1.773   .     S
C49    C57     1.133   1_444 T
C51    Zn52    1.773   .     S
C51    C59     1.133   1_565 T
C53    Zn54    1.773   .     S
C53    C61     1.133   1_655 T
C55    Zn56    1.773   .     S
C55    C63     1.133   1_556 T
C57    C49     1.133   1_666 T
C57    Zn58    1.773   .     S
C59    C51     1.133   1_545 T
C59    Zn60    1.773   .     S
C61    C53     1.133   1_455 T
C61    Zn62    1.773   .     S
C63    C55     1.133   1_554 T
C63    Zn64    1.773   .     S
Zn66   C15     2.244   1_455 S
Zn66   C25     2.244   1_454 S
Zn66   C39     2.244   1_554 S
Zn66   C21     2.244   1_454 S
Zn67   C31     2.244   1_545 S
Zn67   C7      2.244   1_554 S
Zn67   C41     2.244   1_544 S
Zn67   C13     2.244   1_544 S
Zn68   C23     2.244   1_545 S
Zn68   C33     2.244   1_445 S
Zn68   C47     2.244   1_455 S
Zn68   C5      2.244   1_445 S
