data_ja4012707_si_003_clean
_audit_creation_date              2015-08-19
_audit_creation_method            'Materials Studio'
_symmetry_space_group_name_H-M    'P1'
_symmetry_Int_Tables_number       1
_symmetry_cell_setting            triclinic
loop_
_symmetry_equiv_pos_as_xyz
  x,y,z
_cell_length_a                    7.9388
_cell_length_b                    7.9388
_cell_length_c                    7.9388
_cell_angle_alpha                 60.0000
_cell_angle_beta                  60.0000
_cell_angle_gamma                 60.0000
loop_
_atom_site_label
_atom_site_type_symbol
_atom_site_fract_x
_atom_site_fract_y
_atom_site_fract_z
_atom_site_U_iso_or_equiv
_atom_site_adp_type
_atom_site_occupancy
Zn1    Zn    0.37500   0.87500   0.87500   0.01267  Uiso   1.00
Zn2    Zn    0.62500   0.12500   0.12500   0.01267  Uiso   1.00
C1     C     0.52760   0.41720   0.02760   0.01267  Uiso   1.00
C2     C     0.47240   0.97240   0.97240   0.01267  Uiso   1.00
C3     C     0.52760   0.02760   0.41720   0.01267  Uiso   1.00
C4     C     0.47240   0.58280   0.97240   0.01267  Uiso   1.00
C5     C     0.08280   0.97240   0.97240   0.01267  Uiso   1.00
C6     C     0.52760   0.02760   0.02760   0.01267  Uiso   1.00
C7     C     0.47240   0.97240   0.58280   0.01267  Uiso   1.00
C8     C     0.91720   0.02760   0.02760   0.01267  Uiso   1.00
