data_ja407778a_si_003_clean
_audit_creation_date              2015-08-19
_audit_creation_method            'Materials Studio'
_symmetry_space_group_name_H-M    'P1'
_symmetry_Int_Tables_number       1
_symmetry_cell_setting            triclinic
loop_
_symmetry_equiv_pos_as_xyz
  x,y,z
_cell_length_a                    9.5330
_cell_length_b                    10.2037
_cell_length_c                    10.2037
_cell_angle_alpha                 109.8650
_cell_angle_beta                  110.1180
_cell_angle_gamma                 69.8818
loop_
_atom_site_label
_atom_site_type_symbol
_atom_site_fract_x
_atom_site_fract_y
_atom_site_fract_z
_atom_site_U_iso_or_equiv
_atom_site_adp_type
_atom_site_occupancy
Mg1    Mg    0.00000   0.00000   0.00000   0.01267  Uiso   1.00
Mg2    Mg    0.50000   0.00000   0.00000   0.01267  Uiso   1.00
H1     H     0.14790   0.65790   0.90530   0.01267  Uiso   1.00
H2     H     0.13820   0.87020   0.32940   0.01267  Uiso   1.00
H3     H     0.36180   0.32940   0.87020   0.01267  Uiso   1.00
H4     H     0.85210   0.34210   0.09470   0.01267  Uiso   1.00
H5     H     0.63820   0.67060   0.12980   0.01267  Uiso   1.00
H6     H     0.35210   0.90530   0.65790   0.01267  Uiso   1.00
H7     H     0.64790   0.09470   0.34210   0.01267  Uiso   1.00
H8     H     0.86180   0.12980   0.67060   0.01267  Uiso   1.00
C1     C     0.58270   0.60171   0.07809   0.01267  Uiso   1.00
C2     C     0.65550   0.19586   0.95594   0.01267  Uiso   1.00
C3     C     0.07680   0.02036   0.64624   0.01267  Uiso   1.00
C4     C     0.34130   0.54196   0.94024   0.01267  Uiso   1.00
C5     C     0.92320   0.97964   0.35376   0.01267  Uiso   1.00
C6     C     0.42320   0.64624   0.02036   0.01267  Uiso   1.00
C7     C     0.65870   0.45804   0.05976   0.01267  Uiso   1.00
C8     C     0.41730   0.39829   0.92191   0.01267  Uiso   1.00
C9     C     0.84130   0.05976   0.45804   0.01267  Uiso   1.00
C10    C     0.57680   0.35376   0.97964   0.01267  Uiso   1.00
C11    C     0.15870   0.94024   0.54196   0.01267  Uiso   1.00
C12    C     0.15550   0.04406   0.80414   0.01267  Uiso   1.00
C13    C     0.34450   0.80414   0.04406   0.01267  Uiso   1.00
C14    C     0.84450   0.95594   0.19586   0.01267  Uiso   1.00
C15    C     0.91730   0.07809   0.60171   0.01267  Uiso   1.00
C16    C     0.08270   0.92191   0.39829   0.01267  Uiso   1.00
O1     O     0.18770   0.57240   0.87440   0.01267  Uiso   1.00
O2     O     0.80180   0.16319   0.98441   0.01267  Uiso   1.00
O3     O     0.81230   0.42760   0.12560   0.01267  Uiso   1.00
O4     O     0.92380   0.90780   0.10732   0.01267  Uiso   1.00
O5     O     0.31230   0.87440   0.57240   0.01267  Uiso   1.00
O6     O     0.68770   0.12560   0.42760   0.01267  Uiso   1.00
O7     O     0.30180   0.01559   0.83681   0.01267  Uiso   1.00
O8     O     0.19820   0.83681   0.01559   0.01267  Uiso   1.00
O9     O     0.57620   0.10732   0.90780   0.01267  Uiso   1.00
O10    O     0.07620   0.09220   0.89268   0.01267  Uiso   1.00
O11    O     0.69820   0.98441   0.16319   0.01267  Uiso   1.00
O12    O     0.42380   0.89268   0.09220   0.01267  Uiso   1.00
