data_image0
_cell_length_a       31.1342
_cell_length_b       31.1342
_cell_length_c       16.9089
_cell_angle_alpha    90
_cell_angle_beta     90
_cell_angle_gamma    120

_symmetry_space_group_name_H-M    "P 1"
_symmetry_int_tables_number       1

loop_
  _symmetry_equiv_pos_as_xyz
  'x, y, z'

loop_
  _atom_site_label
  _atom_site_occupancy
  _atom_site_fract_x
  _atom_site_fract_y
  _atom_site_fract_z
  _atom_site_thermal_displace_type
  _atom_site_B_iso_or_equiv
  _atom_site_type_symbol
  O1       1.0000 0.25310  0.66285  0.42024  Biso   1.000  O
  C1       1.0000 0.18330  0.55225  0.29574  Biso   1.000  C
  C2       1.0000 0.14750  0.53435  0.23504  Biso   1.000  C
  H1       1.0000 0.19640  0.52785  0.31844  Biso   1.000  H
  H2       1.0000 0.13370  0.49685  0.21204  Biso   1.000  H
  O2       1.0000 0.33715  0.59025  0.42024  Biso   1.000  O
  C3       1.0000 0.44775  0.63105  0.29574  Biso   1.000  C
  C4       1.0000 0.46565  0.61315  0.23504  Biso   1.000  C
  H3       1.0000 0.47215  0.66855  0.31844  Biso   1.000  H
  H4       1.0000 0.50315  0.63685  0.21204  Biso   1.000  H
  O3       1.0000 0.40975  0.74690  0.42024  Biso   1.000  O
  C5       1.0000 0.36895  0.81670  0.29574  Biso   1.000  C
  C6       1.0000 0.38685  0.85250  0.23504  Biso   1.000  C
  H5       1.0000 0.33145  0.80360  0.31844  Biso   1.000  H
  H6       1.0000 0.36315  0.86630  0.21204  Biso   1.000  H
  O4       1.0000 0.74690  0.33715  0.42024  Biso   1.000  O
  C7       1.0000 0.81670  0.44775  0.29574  Biso   1.000  C
  C8       1.0000 0.85250  0.46565  0.23504  Biso   1.000  C
  H7       1.0000 0.80360  0.47215  0.31844  Biso   1.000  H
  H8       1.0000 0.86630  0.50315  0.21204  Biso   1.000  H
  O5       1.0000 0.66285  0.40975  0.42024  Biso   1.000  O
  C9       1.0000 0.55225  0.36895  0.29574  Biso   1.000  C
  C10      1.0000 0.53435  0.38685  0.23504  Biso   1.000  C
  H9       1.0000 0.52785  0.33145  0.31844  Biso   1.000  H
  H10      1.0000 0.49685  0.36315  0.21204  Biso   1.000  H
  O6       1.0000 0.59025  0.25310  0.42024  Biso   1.000  O
  C11      1.0000 0.63105  0.18330  0.29574  Biso   1.000  C
  C12      1.0000 0.61315  0.14750  0.23504  Biso   1.000  C
  H11      1.0000 0.66855  0.19640  0.31844  Biso   1.000  H
  H12      1.0000 0.63685  0.13370  0.21204  Biso   1.000  H
  O7       1.0000 0.66285  0.25310  0.57976  Biso   1.000  O
  C13      1.0000 0.55225  0.18330  0.70426  Biso   1.000  C
  C14      1.0000 0.53435  0.14750  0.76496  Biso   1.000  C
  H13      1.0000 0.52785  0.19640  0.68156  Biso   1.000  H
  H14      1.0000 0.49685  0.13370  0.78796  Biso   1.000  H
  O8       1.0000 0.59025  0.33715  0.57976  Biso   1.000  O
  C15      1.0000 0.63105  0.44775  0.70426  Biso   1.000  C
  C16      1.0000 0.61315  0.46565  0.76496  Biso   1.000  C
  H15      1.0000 0.66855  0.47215  0.68156  Biso   1.000  H
  H16      1.0000 0.63685  0.50315  0.78796  Biso   1.000  H
  O9       1.0000 0.74690  0.40975  0.57976  Biso   1.000  O
  C17      1.0000 0.81670  0.36895  0.70426  Biso   1.000  C
  C18      1.0000 0.85250  0.38685  0.76496  Biso   1.000  C
  H17      1.0000 0.80360  0.33145  0.68156  Biso   1.000  H
  H18      1.0000 0.86630  0.36315  0.78796  Biso   1.000  H
  O10      1.0000 0.33715  0.74690  0.57976  Biso   1.000  O
  C19      1.0000 0.44775  0.81670  0.70426  Biso   1.000  C
  C20      1.0000 0.46565  0.85250  0.76496  Biso   1.000  C
  H19      1.0000 0.47215  0.80360  0.68156  Biso   1.000  H
  H20      1.0000 0.50315  0.86630  0.78796  Biso   1.000  H
  O11      1.0000 0.40975  0.66285  0.57976  Biso   1.000  O
  C21      1.0000 0.36895  0.55225  0.70426  Biso   1.000  C
  C22      1.0000 0.38685  0.53435  0.76496  Biso   1.000  C
  H21      1.0000 0.33145  0.52785  0.68156  Biso   1.000  H
  H22      1.0000 0.36315  0.49685  0.78796  Biso   1.000  H
  O12      1.0000 0.25310  0.59025  0.57976  Biso   1.000  O
  C23      1.0000 0.18330  0.63105  0.70426  Biso   1.000  C
  C24      1.0000 0.14750  0.61315  0.76496  Biso   1.000  C
  H23      1.0000 0.19640  0.66855  0.68156  Biso   1.000  H
  H24      1.0000 0.13370  0.63685  0.78796  Biso   1.000  H
  O13      1.0000 0.74690  0.33715  0.57976  Biso   1.000  O
  C25      1.0000 0.81670  0.44775  0.70426  Biso   1.000  C
  C26      1.0000 0.85250  0.46565  0.76496  Biso   1.000  C
  H25      1.0000 0.80360  0.47215  0.68156  Biso   1.000  H
  H26      1.0000 0.86630  0.50315  0.78796  Biso   1.000  H
  O14      1.0000 0.66285  0.40975  0.57976  Biso   1.000  O
  C27      1.0000 0.55225  0.36895  0.70426  Biso   1.000  C
  C28      1.0000 0.53435  0.38685  0.76496  Biso   1.000  C
  H27      1.0000 0.52785  0.33145  0.68156  Biso   1.000  H
  H28      1.0000 0.49685  0.36315  0.78796  Biso   1.000  H
  O15      1.0000 0.59025  0.25310  0.57976  Biso   1.000  O
  C29      1.0000 0.63105  0.18330  0.70426  Biso   1.000  C
  C30      1.0000 0.61315  0.14750  0.76496  Biso   1.000  C
  H29      1.0000 0.66855  0.19640  0.68156  Biso   1.000  H
  H30      1.0000 0.63685  0.13370  0.78796  Biso   1.000  H
  O16      1.0000 0.25310  0.66285  0.57976  Biso   1.000  O
  C31      1.0000 0.18330  0.55225  0.70426  Biso   1.000  C
  C32      1.0000 0.14750  0.53435  0.76496  Biso   1.000  C
  H31      1.0000 0.19640  0.52785  0.68156  Biso   1.000  H
  H32      1.0000 0.13370  0.49685  0.78796  Biso   1.000  H
  O17      1.0000 0.33715  0.59025  0.57976  Biso   1.000  O
  C33      1.0000 0.44775  0.63105  0.70426  Biso   1.000  C
  C34      1.0000 0.46565  0.61315  0.76496  Biso   1.000  C
  H33      1.0000 0.47215  0.66855  0.68156  Biso   1.000  H
  H34      1.0000 0.50315  0.63685  0.78796  Biso   1.000  H
  O18      1.0000 0.40975  0.74690  0.57976  Biso   1.000  O
  C35      1.0000 0.36895  0.81670  0.70426  Biso   1.000  C
  C36      1.0000 0.38685  0.85250  0.76496  Biso   1.000  C
  H35      1.0000 0.33145  0.80360  0.68156  Biso   1.000  H
  H36      1.0000 0.36315  0.86630  0.78796  Biso   1.000  H
  O19      1.0000 0.33715  0.74690  0.42024  Biso   1.000  O
  C37      1.0000 0.44775  0.81670  0.29574  Biso   1.000  C
  C38      1.0000 0.46565  0.85250  0.23504  Biso   1.000  C
  H37      1.0000 0.47215  0.80360  0.31844  Biso   1.000  H
  H38      1.0000 0.50315  0.86630  0.21204  Biso   1.000  H
  O20      1.0000 0.40975  0.66285  0.42024  Biso   1.000  O
  C39      1.0000 0.36895  0.55225  0.29574  Biso   1.000  C
  C40      1.0000 0.38685  0.53435  0.23504  Biso   1.000  C
  H39      1.0000 0.33145  0.52785  0.31844  Biso   1.000  H
  H40      1.0000 0.36315  0.49685  0.21204  Biso   1.000  H
  O21      1.0000 0.25310  0.59025  0.42024  Biso   1.000  O
  C41      1.0000 0.18330  0.63105  0.29574  Biso   1.000  C
  C42      1.0000 0.14750  0.61315  0.23504  Biso   1.000  C
  H41      1.0000 0.19640  0.66855  0.31844  Biso   1.000  H
  H42      1.0000 0.13370  0.63685  0.21204  Biso   1.000  H
  O22      1.0000 0.66285  0.25310  0.42024  Biso   1.000  O
  C43      1.0000 0.55225  0.18330  0.29574  Biso   1.000  C
  C44      1.0000 0.53435  0.14750  0.23504  Biso   1.000  C
  H43      1.0000 0.52785  0.19640  0.31844  Biso   1.000  H
  H44      1.0000 0.49685  0.13370  0.21204  Biso   1.000  H
  O23      1.0000 0.59025  0.33715  0.42024  Biso   1.000  O
  C45      1.0000 0.63105  0.44775  0.29574  Biso   1.000  C
  C46      1.0000 0.61315  0.46565  0.23504  Biso   1.000  C
  H45      1.0000 0.66855  0.47215  0.31844  Biso   1.000  H
  H46      1.0000 0.63685  0.50315  0.21204  Biso   1.000  H
  O24      1.0000 0.74690  0.40975  0.42024  Biso   1.000  O
  C47      1.0000 0.81670  0.36895  0.29574  Biso   1.000  C
  C48      1.0000 0.85250  0.38685  0.23504  Biso   1.000  C
  H47      1.0000 0.80360  0.33145  0.31844  Biso   1.000  H
  H48      1.0000 0.86630  0.36315  0.21204  Biso   1.000  H
  Fe1      1.0000 0.29779  0.70221  0.50000  Biso   1.000  Fe
  Fe2      1.0000 0.29779  0.59559  0.50000  Biso   1.000  Fe
  Fe3      1.0000 0.40441  0.70221  0.50000  Biso   1.000  Fe
  Fe4      1.0000 0.70221  0.29779  0.50000  Biso   1.000  Fe
  Fe5      1.0000 0.70221  0.40441  0.50000  Biso   1.000  Fe
  Fe6      1.0000 0.59559  0.29779  0.50000  Biso   1.000  Fe
  O25      1.0000 0.33333  0.66667  0.50000  Biso   1.000  O
  O26      1.0000 0.66667  0.33333  0.50000  Biso   1.000  O
  Co1      1.0000 0.00000  0.50000  0.00000  Biso   1.000  Co
  Co2      1.0000 0.50000  0.50000  0.00000  Biso   1.000  Co
  Co3      1.0000 0.50000  0.00000  0.00000  Biso   1.000  Co
  C49      1.0000 0.23830  0.61915  0.39314  Biso   1.000  C
  C50      1.0000 0.20150  0.60075  0.32724  Biso   1.000  C
  C51      1.0000 0.12930  0.56465  0.20474  Biso   1.000  C
  C52      1.0000 0.08990  0.54495  0.14224  Biso   1.000  C
  C53      1.0000 0.10390  0.55195  0.06344  Biso   1.000  C
  C54      1.0000 0.15390  0.57695  0.04024  Biso   1.000  C
  C55      1.0000 0.04010  0.52005  0.16424  Biso   1.000  C
  C56      1.0000 0.02550  0.51275  0.24304  Biso   1.000  C
  H49      1.0000 0.18710  0.59355  0.07744  Biso   1.000  H
  H50      1.0000 0.04890  0.52445  0.29554  Biso   1.000  H
  C57      1.0000 0.38085  0.61915  0.39314  Biso   1.000  C
  C58      1.0000 0.39925  0.60075  0.32724  Biso   1.000  C
  C59      1.0000 0.43535  0.56465  0.20474  Biso   1.000  C
  C60      1.0000 0.45505  0.54495  0.14224  Biso   1.000  C
  C61      1.0000 0.44805  0.55195  0.06344  Biso   1.000  C
  C62      1.0000 0.42305  0.57695  0.04024  Biso   1.000  C
  C63      1.0000 0.47995  0.52005  0.16424  Biso   1.000  C
  C64      1.0000 0.48725  0.51275  0.24304  Biso   1.000  C
  H51      1.0000 0.40645  0.59355  0.07744  Biso   1.000  H
  H52      1.0000 0.47555  0.52445  0.29554  Biso   1.000  H
  C65      1.0000 0.38085  0.76170  0.39314  Biso   1.000  C
  C66      1.0000 0.39925  0.79850  0.32724  Biso   1.000  C
  C67      1.0000 0.43535  0.87070  0.20474  Biso   1.000  C
  C68      1.0000 0.45505  0.91010  0.14224  Biso   1.000  C
  C69      1.0000 0.44805  0.89610  0.06344  Biso   1.000  C
  C70      1.0000 0.42305  0.84610  0.04024  Biso   1.000  C
  C71      1.0000 0.47995  0.95990  0.16424  Biso   1.000  C
  C72      1.0000 0.48725  0.97450  0.24304  Biso   1.000  C
  H53      1.0000 0.40645  0.81290  0.07744  Biso   1.000  H
  H54      1.0000 0.47555  0.95110  0.29554  Biso   1.000  H
  C73      1.0000 0.76170  0.38085  0.39314  Biso   1.000  C
  C74      1.0000 0.79850  0.39925  0.32724  Biso   1.000  C
  C75      1.0000 0.87070  0.43535  0.20474  Biso   1.000  C
  C76      1.0000 0.91010  0.45505  0.14224  Biso   1.000  C
  C77      1.0000 0.89610  0.44805  0.06344  Biso   1.000  C
  C78      1.0000 0.84610  0.42305  0.04024  Biso   1.000  C
  C79      1.0000 0.95990  0.47995  0.16424  Biso   1.000  C
  C80      1.0000 0.97450  0.48725  0.24304  Biso   1.000  C
  H55      1.0000 0.81290  0.40645  0.07744  Biso   1.000  H
  H56      1.0000 0.95110  0.47555  0.29554  Biso   1.000  H
  C81      1.0000 0.61915  0.38085  0.39314  Biso   1.000  C
  C82      1.0000 0.60075  0.39925  0.32724  Biso   1.000  C
  C83      1.0000 0.56465  0.43535  0.20474  Biso   1.000  C
  C84      1.0000 0.54495  0.45505  0.14224  Biso   1.000  C
  C85      1.0000 0.55195  0.44805  0.06344  Biso   1.000  C
  C86      1.0000 0.57695  0.42305  0.04024  Biso   1.000  C
  C87      1.0000 0.52005  0.47995  0.16424  Biso   1.000  C
  C88      1.0000 0.51275  0.48725  0.24304  Biso   1.000  C
  H57      1.0000 0.59355  0.40645  0.07744  Biso   1.000  H
  H58      1.0000 0.52445  0.47555  0.29554  Biso   1.000  H
  C89      1.0000 0.61915  0.23830  0.39314  Biso   1.000  C
  C90      1.0000 0.60075  0.20150  0.32724  Biso   1.000  C
  C91      1.0000 0.56465  0.12930  0.20474  Biso   1.000  C
  C92      1.0000 0.54495  0.08990  0.14224  Biso   1.000  C
  C93      1.0000 0.55195  0.10390  0.06344  Biso   1.000  C
  C94      1.0000 0.57695  0.15390  0.04024  Biso   1.000  C
  C95      1.0000 0.52005  0.04010  0.16424  Biso   1.000  C
  C96      1.0000 0.51275  0.02550  0.24304  Biso   1.000  C
  H59      1.0000 0.59355  0.18710  0.07744  Biso   1.000  H
  H60      1.0000 0.52445  0.04890  0.29554  Biso   1.000  H
  C97      1.0000 0.61915  0.23830  0.60686  Biso   1.000  C
  C98      1.0000 0.60075  0.20150  0.67276  Biso   1.000  C
  C99      1.0000 0.56465  0.12930  0.79526  Biso   1.000  C
  C100     1.0000 0.54495  0.08990  0.85776  Biso   1.000  C
  C101     1.0000 0.55195  0.10390  0.93656  Biso   1.000  C
  C102     1.0000 0.57695  0.15390  0.95976  Biso   1.000  C
  C103     1.0000 0.52005  0.04010  0.83576  Biso   1.000  C
  C104     1.0000 0.51275  0.02550  0.75696  Biso   1.000  C
  H61      1.0000 0.59355  0.18710  0.92256  Biso   1.000  H
  H62      1.0000 0.52445  0.04890  0.70446  Biso   1.000  H
  C105     1.0000 0.61915  0.38085  0.60686  Biso   1.000  C
  C106     1.0000 0.60075  0.39925  0.67276  Biso   1.000  C
  C107     1.0000 0.56465  0.43535  0.79526  Biso   1.000  C
  C108     1.0000 0.54495  0.45505  0.85776  Biso   1.000  C
  C109     1.0000 0.55195  0.44805  0.93656  Biso   1.000  C
  C110     1.0000 0.57695  0.42305  0.95976  Biso   1.000  C
  C111     1.0000 0.52005  0.47995  0.83576  Biso   1.000  C
  C112     1.0000 0.51275  0.48725  0.75696  Biso   1.000  C
  H63      1.0000 0.59355  0.40645  0.92256  Biso   1.000  H
  H64      1.0000 0.52445  0.47555  0.70446  Biso   1.000  H
  C113     1.0000 0.76170  0.38085  0.60686  Biso   1.000  C
  C114     1.0000 0.79850  0.39925  0.67276  Biso   1.000  C
  C115     1.0000 0.87070  0.43535  0.79526  Biso   1.000  C
  C116     1.0000 0.91010  0.45505  0.85776  Biso   1.000  C
  C117     1.0000 0.89610  0.44805  0.93656  Biso   1.000  C
  C118     1.0000 0.84610  0.42305  0.95976  Biso   1.000  C
  C119     1.0000 0.95990  0.47995  0.83576  Biso   1.000  C
  C120     1.0000 0.97450  0.48725  0.75696  Biso   1.000  C
  H65      1.0000 0.81290  0.40645  0.92256  Biso   1.000  H
  H66      1.0000 0.95110  0.47555  0.70446  Biso   1.000  H
  C121     1.0000 0.38085  0.76170  0.60686  Biso   1.000  C
  C122     1.0000 0.39925  0.79850  0.67276  Biso   1.000  C
  C123     1.0000 0.43535  0.87070  0.79526  Biso   1.000  C
  C124     1.0000 0.45505  0.91010  0.85776  Biso   1.000  C
  C125     1.0000 0.44805  0.89610  0.93656  Biso   1.000  C
  C126     1.0000 0.42305  0.84610  0.95976  Biso   1.000  C
  C127     1.0000 0.47995  0.95990  0.83576  Biso   1.000  C
  C128     1.0000 0.48725  0.97450  0.75696  Biso   1.000  C
  H67      1.0000 0.40645  0.81290  0.92256  Biso   1.000  H
  H68      1.0000 0.47555  0.95110  0.70446  Biso   1.000  H
  C129     1.0000 0.38085  0.61915  0.60686  Biso   1.000  C
  C130     1.0000 0.39925  0.60075  0.67276  Biso   1.000  C
  C131     1.0000 0.43535  0.56465  0.79526  Biso   1.000  C
  C132     1.0000 0.45505  0.54495  0.85776  Biso   1.000  C
  C133     1.0000 0.44805  0.55195  0.93656  Biso   1.000  C
  C134     1.0000 0.42305  0.57695  0.95976  Biso   1.000  C
  C135     1.0000 0.47995  0.52005  0.83576  Biso   1.000  C
  C136     1.0000 0.48725  0.51275  0.75696  Biso   1.000  C
  H69      1.0000 0.40645  0.59355  0.92256  Biso   1.000  H
  H70      1.0000 0.47555  0.52445  0.70446  Biso   1.000  H
  C137     1.0000 0.23830  0.61915  0.60686  Biso   1.000  C
  C138     1.0000 0.20150  0.60075  0.67276  Biso   1.000  C
  C139     1.0000 0.12930  0.56465  0.79526  Biso   1.000  C
  C140     1.0000 0.08990  0.54495  0.85776  Biso   1.000  C
  C141     1.0000 0.10390  0.55195  0.93656  Biso   1.000  C
  C142     1.0000 0.15390  0.57695  0.95976  Biso   1.000  C
  C143     1.0000 0.04010  0.52005  0.83576  Biso   1.000  C
  C144     1.0000 0.02550  0.51275  0.75696  Biso   1.000  C
  H71      1.0000 0.18710  0.59355  0.92256  Biso   1.000  H
  H72      1.0000 0.04890  0.52445  0.70446  Biso   1.000  H
  N1       1.0000 0.07210  0.53605  0.00000  Biso   1.000  N
  N2       1.0000 0.46395  0.53605  0.00000  Biso   1.000  N
  N3       1.0000 0.46395  0.92790  0.00000  Biso   1.000  N
  N4       1.0000 0.92790  0.46395  0.00000  Biso   1.000  N
  N5       1.0000 0.53605  0.46395  0.00000  Biso   1.000  N
  N6       1.0000 0.53605  0.07210  0.00000  Biso   1.000  N
  N7       1.0000 0.00000  0.50000  0.11394  Biso   1.000  N
  N8       1.0000 0.50000  0.50000  0.11394  Biso   1.000  N
  N9       1.0000 0.50000  0.00000  0.11394  Biso   1.000  N
  N10      1.0000 0.50000  0.00000  0.88606  Biso   1.000  N
  N11      1.0000 0.50000  0.50000  0.88606  Biso   1.000  N
  N12      1.0000 0.00000  0.50000  0.88606  Biso   1.000  N
