data_image0
_cell_length_a       31.2694
_cell_length_b       31.2694
_cell_length_c       16.9536
_cell_angle_alpha    90
_cell_angle_beta     90
_cell_angle_gamma    120

_symmetry_space_group_name_H-M    "P 1"
_symmetry_int_tables_number       1

loop_
  _symmetry_equiv_pos_as_xyz
  'x, y, z'

loop_
  _atom_site_label
  _atom_site_occupancy
  _atom_site_fract_x
  _atom_site_fract_y
  _atom_site_fract_z
  _atom_site_thermal_displace_type
  _atom_site_B_iso_or_equiv
  _atom_site_type_symbol
  O1       1.0000 0.25357  0.66309  0.41988  Biso   1.000  O
  C1       1.0000 0.18377  0.55249  0.29538  Biso   1.000  C
  C2       1.0000 0.14797  0.53459  0.23468  Biso   1.000  C
  H1       1.0000 0.19687  0.52809  0.31808  Biso   1.000  H
  H2       1.0000 0.13417  0.49709  0.21168  Biso   1.000  H
  O2       1.0000 0.33691  0.59049  0.41988  Biso   1.000  O
  C3       1.0000 0.44751  0.63129  0.29538  Biso   1.000  C
  C4       1.0000 0.46541  0.61339  0.23468  Biso   1.000  C
  H3       1.0000 0.47191  0.66879  0.31808  Biso   1.000  H
  H4       1.0000 0.50291  0.63709  0.21168  Biso   1.000  H
  O3       1.0000 0.40951  0.74643  0.41988  Biso   1.000  O
  C5       1.0000 0.36871  0.81623  0.29538  Biso   1.000  C
  C6       1.0000 0.38661  0.85203  0.23468  Biso   1.000  C
  H5       1.0000 0.33121  0.80313  0.31808  Biso   1.000  H
  H6       1.0000 0.36291  0.86583  0.21168  Biso   1.000  H
  O4       1.0000 0.74643  0.33691  0.41988  Biso   1.000  O
  C7       1.0000 0.81623  0.44751  0.29538  Biso   1.000  C
  C8       1.0000 0.85203  0.46541  0.23468  Biso   1.000  C
  H7       1.0000 0.80313  0.47191  0.31808  Biso   1.000  H
  H8       1.0000 0.86583  0.50291  0.21168  Biso   1.000  H
  O5       1.0000 0.66309  0.40951  0.41988  Biso   1.000  O
  C9       1.0000 0.55249  0.36871  0.29538  Biso   1.000  C
  C10      1.0000 0.53459  0.38661  0.23468  Biso   1.000  C
  H9       1.0000 0.52809  0.33121  0.31808  Biso   1.000  H
  H10      1.0000 0.49709  0.36291  0.21168  Biso   1.000  H
  O6       1.0000 0.59049  0.25357  0.41988  Biso   1.000  O
  C11      1.0000 0.63129  0.18377  0.29538  Biso   1.000  C
  C12      1.0000 0.61339  0.14797  0.23468  Biso   1.000  C
  H11      1.0000 0.66879  0.19687  0.31808  Biso   1.000  H
  H12      1.0000 0.63709  0.13417  0.21168  Biso   1.000  H
  O7       1.0000 0.66309  0.25357  0.58012  Biso   1.000  O
  C13      1.0000 0.55249  0.18377  0.70462  Biso   1.000  C
  C14      1.0000 0.53459  0.14797  0.76532  Biso   1.000  C
  H13      1.0000 0.52809  0.19687  0.68192  Biso   1.000  H
  H14      1.0000 0.49709  0.13417  0.78832  Biso   1.000  H
  O8       1.0000 0.59049  0.33691  0.58012  Biso   1.000  O
  C15      1.0000 0.63129  0.44751  0.70462  Biso   1.000  C
  C16      1.0000 0.61339  0.46541  0.76532  Biso   1.000  C
  H15      1.0000 0.66879  0.47191  0.68192  Biso   1.000  H
  H16      1.0000 0.63709  0.50291  0.78832  Biso   1.000  H
  O9       1.0000 0.74643  0.40951  0.58012  Biso   1.000  O
  C17      1.0000 0.81623  0.36871  0.70462  Biso   1.000  C
  C18      1.0000 0.85203  0.38661  0.76532  Biso   1.000  C
  H17      1.0000 0.80313  0.33121  0.68192  Biso   1.000  H
  H18      1.0000 0.86583  0.36291  0.78832  Biso   1.000  H
  O10      1.0000 0.33691  0.74643  0.58012  Biso   1.000  O
  C19      1.0000 0.44751  0.81623  0.70462  Biso   1.000  C
  C20      1.0000 0.46541  0.85203  0.76532  Biso   1.000  C
  H19      1.0000 0.47191  0.80313  0.68192  Biso   1.000  H
  H20      1.0000 0.50291  0.86583  0.78832  Biso   1.000  H
  O11      1.0000 0.40951  0.66309  0.58012  Biso   1.000  O
  C21      1.0000 0.36871  0.55249  0.70462  Biso   1.000  C
  C22      1.0000 0.38661  0.53459  0.76532  Biso   1.000  C
  H21      1.0000 0.33121  0.52809  0.68192  Biso   1.000  H
  H22      1.0000 0.36291  0.49709  0.78832  Biso   1.000  H
  O12      1.0000 0.25357  0.59049  0.58012  Biso   1.000  O
  C23      1.0000 0.18377  0.63129  0.70462  Biso   1.000  C
  C24      1.0000 0.14797  0.61339  0.76532  Biso   1.000  C
  H23      1.0000 0.19687  0.66879  0.68192  Biso   1.000  H
  H24      1.0000 0.13417  0.63709  0.78832  Biso   1.000  H
  O13      1.0000 0.74643  0.33691  0.58012  Biso   1.000  O
  C25      1.0000 0.81623  0.44751  0.70462  Biso   1.000  C
  C26      1.0000 0.85203  0.46541  0.76532  Biso   1.000  C
  H25      1.0000 0.80313  0.47191  0.68192  Biso   1.000  H
  H26      1.0000 0.86583  0.50291  0.78832  Biso   1.000  H
  O14      1.0000 0.66309  0.40951  0.58012  Biso   1.000  O
  C27      1.0000 0.55249  0.36871  0.70462  Biso   1.000  C
  C28      1.0000 0.53459  0.38661  0.76532  Biso   1.000  C
  H27      1.0000 0.52809  0.33121  0.68192  Biso   1.000  H
  H28      1.0000 0.49709  0.36291  0.78832  Biso   1.000  H
  O15      1.0000 0.59049  0.25357  0.58012  Biso   1.000  O
  C29      1.0000 0.63129  0.18377  0.70462  Biso   1.000  C
  C30      1.0000 0.61339  0.14797  0.76532  Biso   1.000  C
  H29      1.0000 0.66879  0.19687  0.68192  Biso   1.000  H
  H30      1.0000 0.63709  0.13417  0.78832  Biso   1.000  H
  O16      1.0000 0.25357  0.66309  0.58012  Biso   1.000  O
  C31      1.0000 0.18377  0.55249  0.70462  Biso   1.000  C
  C32      1.0000 0.14797  0.53459  0.76532  Biso   1.000  C
  H31      1.0000 0.19687  0.52809  0.68192  Biso   1.000  H
  H32      1.0000 0.13417  0.49709  0.78832  Biso   1.000  H
  O17      1.0000 0.33691  0.59049  0.58012  Biso   1.000  O
  C33      1.0000 0.44751  0.63129  0.70462  Biso   1.000  C
  C34      1.0000 0.46541  0.61339  0.76532  Biso   1.000  C
  H33      1.0000 0.47191  0.66879  0.68192  Biso   1.000  H
  H34      1.0000 0.50291  0.63709  0.78832  Biso   1.000  H
  O18      1.0000 0.40951  0.74643  0.58012  Biso   1.000  O
  C35      1.0000 0.36871  0.81623  0.70462  Biso   1.000  C
  C36      1.0000 0.38661  0.85203  0.76532  Biso   1.000  C
  H35      1.0000 0.33121  0.80313  0.68192  Biso   1.000  H
  H36      1.0000 0.36291  0.86583  0.78832  Biso   1.000  H
  O19      1.0000 0.33691  0.74643  0.41988  Biso   1.000  O
  C37      1.0000 0.44751  0.81623  0.29538  Biso   1.000  C
  C38      1.0000 0.46541  0.85203  0.23468  Biso   1.000  C
  H37      1.0000 0.47191  0.80313  0.31808  Biso   1.000  H
  H38      1.0000 0.50291  0.86583  0.21168  Biso   1.000  H
  O20      1.0000 0.40951  0.66309  0.41988  Biso   1.000  O
  C39      1.0000 0.36871  0.55249  0.29538  Biso   1.000  C
  C40      1.0000 0.38661  0.53459  0.23468  Biso   1.000  C
  H39      1.0000 0.33121  0.52809  0.31808  Biso   1.000  H
  H40      1.0000 0.36291  0.49709  0.21168  Biso   1.000  H
  O21      1.0000 0.25357  0.59049  0.41988  Biso   1.000  O
  C41      1.0000 0.18377  0.63129  0.29538  Biso   1.000  C
  C42      1.0000 0.14797  0.61339  0.23468  Biso   1.000  C
  H41      1.0000 0.19687  0.66879  0.31808  Biso   1.000  H
  H42      1.0000 0.13417  0.63709  0.21168  Biso   1.000  H
  O22      1.0000 0.66309  0.25357  0.41988  Biso   1.000  O
  C43      1.0000 0.55249  0.18377  0.29538  Biso   1.000  C
  C44      1.0000 0.53459  0.14797  0.23468  Biso   1.000  C
  H43      1.0000 0.52809  0.19687  0.31808  Biso   1.000  H
  H44      1.0000 0.49709  0.13417  0.21168  Biso   1.000  H
  O23      1.0000 0.59049  0.33691  0.41988  Biso   1.000  O
  C45      1.0000 0.63129  0.44751  0.29538  Biso   1.000  C
  C46      1.0000 0.61339  0.46541  0.23468  Biso   1.000  C
  H45      1.0000 0.66879  0.47191  0.31808  Biso   1.000  H
  H46      1.0000 0.63709  0.50291  0.21168  Biso   1.000  H
  O24      1.0000 0.74643  0.40951  0.41988  Biso   1.000  O
  C47      1.0000 0.81623  0.36871  0.29538  Biso   1.000  C
  C48      1.0000 0.85203  0.38661  0.23468  Biso   1.000  C
  H47      1.0000 0.80313  0.33121  0.31808  Biso   1.000  H
  H48      1.0000 0.86583  0.36291  0.21168  Biso   1.000  H
  Fe1      1.0000 0.29893  0.70107  0.50000  Biso   1.000  Fe
  Fe2      1.0000 0.29893  0.59787  0.50000  Biso   1.000  Fe
  Fe3      1.0000 0.40213  0.70107  0.50000  Biso   1.000  Fe
  Fe4      1.0000 0.70107  0.29893  0.50000  Biso   1.000  Fe
  Fe5      1.0000 0.70107  0.40213  0.50000  Biso   1.000  Fe
  Fe6      1.0000 0.59787  0.29893  0.50000  Biso   1.000  Fe
  O25      1.0000 0.33333  0.66667  0.50000  Biso   1.000  O
  O26      1.0000 0.66667  0.33333  0.50000  Biso   1.000  O
  Fe7      1.0000 0.00000  0.50000  0.00000  Biso   1.000  Fe
  Fe8      1.0000 0.50000  0.50000  0.00000  Biso   1.000  Fe
  Fe9      1.0000 0.50000  0.00000  0.00000  Biso   1.000  Fe
  Cl1      1.0000 0.00000  0.57360  0.00000  Biso   1.000  Cl
  Cl2      1.0000 0.42640  0.42640  0.00000  Biso   1.000  Cl
  Cl3      1.0000 0.57360  0.00000  0.00000  Biso   1.000  Cl
  Cl4      1.0000 0.00000  0.42640  0.00000  Biso   1.000  Cl
  Cl5      1.0000 0.57360  0.57360  0.00000  Biso   1.000  Cl
  Cl6      1.0000 0.42640  0.00000  0.00000  Biso   1.000  Cl
  C49      1.0000 0.23877  0.61939  0.39278  Biso   1.000  C
  C50      1.0000 0.20197  0.60099  0.32688  Biso   1.000  C
  C51      1.0000 0.12977  0.56489  0.20438  Biso   1.000  C
  C52      1.0000 0.09037  0.54519  0.14188  Biso   1.000  C
  C53      1.0000 0.10437  0.55219  0.06308  Biso   1.000  C
  C54      1.0000 0.15437  0.57719  0.03988  Biso   1.000  C
  C55      1.0000 0.04057  0.52029  0.16388  Biso   1.000  C
  C56      1.0000 0.02597  0.51299  0.24268  Biso   1.000  C
  H49      1.0000 0.18757  0.59379  0.07708  Biso   1.000  H
  H50      1.0000 0.04937  0.52469  0.29518  Biso   1.000  H
  C57      1.0000 0.38061  0.61939  0.39278  Biso   1.000  C
  C58      1.0000 0.39901  0.60099  0.32688  Biso   1.000  C
  C59      1.0000 0.43511  0.56489  0.20438  Biso   1.000  C
  C60      1.0000 0.45481  0.54519  0.14188  Biso   1.000  C
  C61      1.0000 0.44781  0.55219  0.06308  Biso   1.000  C
  C62      1.0000 0.42281  0.57719  0.03988  Biso   1.000  C
  C63      1.0000 0.47971  0.52029  0.16388  Biso   1.000  C
  C64      1.0000 0.48701  0.51299  0.24268  Biso   1.000  C
  H51      1.0000 0.40621  0.59379  0.07708  Biso   1.000  H
  H52      1.0000 0.47531  0.52469  0.29518  Biso   1.000  H
  C65      1.0000 0.38061  0.76123  0.39278  Biso   1.000  C
  C66      1.0000 0.39901  0.79803  0.32688  Biso   1.000  C
  C67      1.0000 0.43511  0.87023  0.20438  Biso   1.000  C
  C68      1.0000 0.45481  0.90963  0.14188  Biso   1.000  C
  C69      1.0000 0.44781  0.89563  0.06308  Biso   1.000  C
  C70      1.0000 0.42281  0.84563  0.03988  Biso   1.000  C
  C71      1.0000 0.47971  0.95943  0.16388  Biso   1.000  C
  C72      1.0000 0.48701  0.97403  0.24268  Biso   1.000  C
  H53      1.0000 0.40621  0.81243  0.07708  Biso   1.000  H
  H54      1.0000 0.47531  0.95063  0.29518  Biso   1.000  H
  C73      1.0000 0.76123  0.38061  0.39278  Biso   1.000  C
  C74      1.0000 0.79803  0.39901  0.32688  Biso   1.000  C
  C75      1.0000 0.87023  0.43511  0.20438  Biso   1.000  C
  C76      1.0000 0.90963  0.45481  0.14188  Biso   1.000  C
  C77      1.0000 0.89563  0.44781  0.06308  Biso   1.000  C
  C78      1.0000 0.84563  0.42281  0.03988  Biso   1.000  C
  C79      1.0000 0.95943  0.47971  0.16388  Biso   1.000  C
  C80      1.0000 0.97403  0.48701  0.24268  Biso   1.000  C
  H55      1.0000 0.81243  0.40621  0.07708  Biso   1.000  H
  H56      1.0000 0.95063  0.47531  0.29518  Biso   1.000  H
  C81      1.0000 0.61939  0.38061  0.39278  Biso   1.000  C
  C82      1.0000 0.60099  0.39901  0.32688  Biso   1.000  C
  C83      1.0000 0.56489  0.43511  0.20438  Biso   1.000  C
  C84      1.0000 0.54519  0.45481  0.14188  Biso   1.000  C
  C85      1.0000 0.55219  0.44781  0.06308  Biso   1.000  C
  C86      1.0000 0.57719  0.42281  0.03988  Biso   1.000  C
  C87      1.0000 0.52029  0.47971  0.16388  Biso   1.000  C
  C88      1.0000 0.51299  0.48701  0.24268  Biso   1.000  C
  H57      1.0000 0.59379  0.40621  0.07708  Biso   1.000  H
  H58      1.0000 0.52469  0.47531  0.29518  Biso   1.000  H
  C89      1.0000 0.61939  0.23877  0.39278  Biso   1.000  C
  C90      1.0000 0.60099  0.20197  0.32688  Biso   1.000  C
  C91      1.0000 0.56489  0.12977  0.20438  Biso   1.000  C
  C92      1.0000 0.54519  0.09037  0.14188  Biso   1.000  C
  C93      1.0000 0.55219  0.10437  0.06308  Biso   1.000  C
  C94      1.0000 0.57719  0.15437  0.03988  Biso   1.000  C
  C95      1.0000 0.52029  0.04057  0.16388  Biso   1.000  C
  C96      1.0000 0.51299  0.02597  0.24268  Biso   1.000  C
  H59      1.0000 0.59379  0.18757  0.07708  Biso   1.000  H
  H60      1.0000 0.52469  0.04937  0.29518  Biso   1.000  H
  C97      1.0000 0.61939  0.23877  0.60722  Biso   1.000  C
  C98      1.0000 0.60099  0.20197  0.67312  Biso   1.000  C
  C99      1.0000 0.56489  0.12977  0.79562  Biso   1.000  C
  C100     1.0000 0.54519  0.09037  0.85812  Biso   1.000  C
  C101     1.0000 0.55219  0.10437  0.93692  Biso   1.000  C
  C102     1.0000 0.57719  0.15437  0.96012  Biso   1.000  C
  C103     1.0000 0.52029  0.04057  0.83612  Biso   1.000  C
  C104     1.0000 0.51299  0.02597  0.75732  Biso   1.000  C
  H61      1.0000 0.59379  0.18757  0.92292  Biso   1.000  H
  H62      1.0000 0.52469  0.04937  0.70482  Biso   1.000  H
  C105     1.0000 0.61939  0.38061  0.60722  Biso   1.000  C
  C106     1.0000 0.60099  0.39901  0.67312  Biso   1.000  C
  C107     1.0000 0.56489  0.43511  0.79562  Biso   1.000  C
  C108     1.0000 0.54519  0.45481  0.85812  Biso   1.000  C
  C109     1.0000 0.55219  0.44781  0.93692  Biso   1.000  C
  C110     1.0000 0.57719  0.42281  0.96012  Biso   1.000  C
  C111     1.0000 0.52029  0.47971  0.83612  Biso   1.000  C
  C112     1.0000 0.51299  0.48701  0.75732  Biso   1.000  C
  H63      1.0000 0.59379  0.40621  0.92292  Biso   1.000  H
  H64      1.0000 0.52469  0.47531  0.70482  Biso   1.000  H
  C113     1.0000 0.76123  0.38061  0.60722  Biso   1.000  C
  C114     1.0000 0.79803  0.39901  0.67312  Biso   1.000  C
  C115     1.0000 0.87023  0.43511  0.79562  Biso   1.000  C
  C116     1.0000 0.90963  0.45481  0.85812  Biso   1.000  C
  C117     1.0000 0.89563  0.44781  0.93692  Biso   1.000  C
  C118     1.0000 0.84563  0.42281  0.96012  Biso   1.000  C
  C119     1.0000 0.95943  0.47971  0.83612  Biso   1.000  C
  C120     1.0000 0.97403  0.48701  0.75732  Biso   1.000  C
  H65      1.0000 0.81243  0.40621  0.92292  Biso   1.000  H
  H66      1.0000 0.95063  0.47531  0.70482  Biso   1.000  H
  C121     1.0000 0.38061  0.76123  0.60722  Biso   1.000  C
  C122     1.0000 0.39901  0.79803  0.67312  Biso   1.000  C
  C123     1.0000 0.43511  0.87023  0.79562  Biso   1.000  C
  C124     1.0000 0.45481  0.90963  0.85812  Biso   1.000  C
  C125     1.0000 0.44781  0.89563  0.93692  Biso   1.000  C
  C126     1.0000 0.42281  0.84563  0.96012  Biso   1.000  C
  C127     1.0000 0.47971  0.95943  0.83612  Biso   1.000  C
  C128     1.0000 0.48701  0.97403  0.75732  Biso   1.000  C
  H67      1.0000 0.40621  0.81243  0.92292  Biso   1.000  H
  H68      1.0000 0.47531  0.95063  0.70482  Biso   1.000  H
  C129     1.0000 0.38061  0.61939  0.60722  Biso   1.000  C
  C130     1.0000 0.39901  0.60099  0.67312  Biso   1.000  C
  C131     1.0000 0.43511  0.56489  0.79562  Biso   1.000  C
  C132     1.0000 0.45481  0.54519  0.85812  Biso   1.000  C
  C133     1.0000 0.44781  0.55219  0.93692  Biso   1.000  C
  C134     1.0000 0.42281  0.57719  0.96012  Biso   1.000  C
  C135     1.0000 0.47971  0.52029  0.83612  Biso   1.000  C
  C136     1.0000 0.48701  0.51299  0.75732  Biso   1.000  C
  H69      1.0000 0.40621  0.59379  0.92292  Biso   1.000  H
  H70      1.0000 0.47531  0.52469  0.70482  Biso   1.000  H
  C137     1.0000 0.23877  0.61939  0.60722  Biso   1.000  C
  C138     1.0000 0.20197  0.60099  0.67312  Biso   1.000  C
  C139     1.0000 0.12977  0.56489  0.79562  Biso   1.000  C
  C140     1.0000 0.09037  0.54519  0.85812  Biso   1.000  C
  C141     1.0000 0.10437  0.55219  0.93692  Biso   1.000  C
  C142     1.0000 0.15437  0.57719  0.96012  Biso   1.000  C
  C143     1.0000 0.04057  0.52029  0.83612  Biso   1.000  C
  C144     1.0000 0.02597  0.51299  0.75732  Biso   1.000  C
  H71      1.0000 0.18757  0.59379  0.92292  Biso   1.000  H
  H72      1.0000 0.04937  0.52469  0.70482  Biso   1.000  H
  N1       1.0000 0.07257  0.53629  0.00000  Biso   1.000  N
  N2       1.0000 0.46371  0.53629  0.00000  Biso   1.000  N
  N3       1.0000 0.46371  0.92743  0.00000  Biso   1.000  N
  N4       1.0000 0.92743  0.46371  0.00000  Biso   1.000  N
  N5       1.0000 0.53629  0.46371  0.00000  Biso   1.000  N
  N6       1.0000 0.53629  0.07257  0.00000  Biso   1.000  N
  N7       1.0000 0.00000  0.50000  0.11358  Biso   1.000  N
  N8       1.0000 0.50000  0.50000  0.11358  Biso   1.000  N
  N9       1.0000 0.50000  0.00000  0.11358  Biso   1.000  N
  N10      1.0000 0.50000  0.00000  0.88642  Biso   1.000  N
  N11      1.0000 0.50000  0.50000  0.88642  Biso   1.000  N
  N12      1.0000 0.00000  0.50000  0.88642  Biso   1.000  N
