data_ja500330a_si_005_clean
_audit_creation_date              2015-08-19
_audit_creation_method            'Materials Studio'
_symmetry_space_group_name_H-M    'P1'
_symmetry_Int_Tables_number       1
_symmetry_cell_setting            triclinic
loop_
_symmetry_equiv_pos_as_xyz
  x,y,z
_cell_length_a                    19.0697
_cell_length_b                    19.0697
_cell_length_c                    23.5335
_cell_angle_alpha                 112.1540
_cell_angle_beta                  112.1540
_cell_angle_gamma                 93.9715
loop_
_atom_site_label
_atom_site_type_symbol
_atom_site_fract_x
_atom_site_fract_y
_atom_site_fract_z
_atom_site_U_iso_or_equiv
_atom_site_adp_type
_atom_site_occupancy
Zr1    Zr    0.47823   0.09601   0.47380   0.01267  Uiso   1.00
Zr2    Zr    0.08771   0.35419   0.87948   0.01267  Uiso   1.00
Zr3    Zr    0.37134   0.23970   0.47328   0.01267  Uiso   1.00
Zr4    Zr    0.76030   0.62866   0.52672   0.01267  Uiso   1.00
Zr5    Zr    0.64581   0.91229   0.12052   0.01267  Uiso   1.00
Zr6    Zr    0.58644   0.83978   0.88070   0.01267  Uiso   1.00
Zr7    Zr    0.90399   0.52177   0.52620   0.01267  Uiso   1.00
Zr8    Zr    0.98990   0.63966   0.47536   0.01267  Uiso   1.00
Zr9    Zr    0.64806   0.01642   0.02672   0.01267  Uiso   1.00
Zr10   Zr    0.47777   0.87979   0.97494   0.01267  Uiso   1.00
Zr11   Zr    0.98358   0.35194   0.97328   0.01267  Uiso   1.00
Zr12   Zr    0.12021   0.52223   0.02506   0.01267  Uiso   1.00
Zr13   Zr    0.84515   0.74717   0.47494   0.01267  Uiso   1.00
Zr14   Zr    0.25283   0.15485   0.52506   0.01267  Uiso   1.00
Zr15   Zr    0.45574   0.20908   0.61930   0.01267  Uiso   1.00
Zr16   Zr    0.58570   0.73546   0.97536   0.01267  Uiso   1.00
Zr17   Zr    0.16022   0.41356   0.11930   0.01267  Uiso   1.00
Zr18   Zr    0.95823   0.72471   0.62052   0.01267  Uiso   1.00
Zr19   Zr    0.12779   0.24557   0.97380   0.01267  Uiso   1.00
Zr20   Zr    0.26454   0.41430   0.02464   0.01267  Uiso   1.00
Zr21   Zr    0.79092   0.54426   0.38070   0.01267  Uiso   1.00
Zr22   Zr    0.27529   0.04177   0.37948   0.01267  Uiso   1.00
Zr23   Zr    0.75443   0.87221   0.02620   0.01267  Uiso   1.00
Zr24   Zr    0.36034   0.01010   0.52464   0.01267  Uiso   1.00
H1     H     0.02720   0.48300   0.73340   0.01267  Uiso   1.00
H2     H     0.91010   0.67310   0.02020   0.01267  Uiso   1.00
H3     H     0.33900   0.11900   0.63460   0.01267  Uiso   1.00
H4     H     0.88100   0.66100   0.36540   0.01267  Uiso   1.00
H5     H     0.55590   0.01870   0.09660   0.01267  Uiso   1.00
H6     H     0.72600   0.26800   0.23140   0.01267  Uiso   1.00
H7     H     0.24460   0.28660   0.26860   0.01267  Uiso   1.00
H8     H     0.98130   0.44410   0.90340   0.01267  Uiso   1.00
H9     H     0.26560   0.54560   0.13460   0.01267  Uiso   1.00
H10    H     0.16950   0.76110   0.22520   0.01267  Uiso   1.00
H11    H     0.73970   0.46790   0.44920   0.01267  Uiso   1.00
H12    H     0.37830   0.94510   0.40280   0.01267  Uiso   1.00
H13    H     0.73130   0.95950   0.94920   0.01267  Uiso   1.00
H14    H     0.51330   0.46210   0.22740   0.01267  Uiso   1.00
H15    H     0.04050   0.26870   0.05080   0.01267  Uiso   1.00
H16    H     0.73200   0.27400   0.76860   0.01267  Uiso   1.00
H17    H     0.32690   0.08990   0.97980   0.01267  Uiso   1.00
H18    H     0.72550   0.79230   0.09720   0.01267  Uiso   1.00
H19    H     0.53210   0.26030   0.55080   0.01267  Uiso   1.00
H20    H     0.21410   0.30570   0.72520   0.01267  Uiso   1.00
H21    H     0.82790   0.79070   0.59660   0.01267  Uiso   1.00
H22    H     0.51530   0.96410   0.72740   0.01267  Uiso   1.00
H23    H     0.71340   0.75540   0.73140   0.01267  Uiso   1.00
H24    H     0.23890   0.83050   0.77480   0.01267  Uiso   1.00
H25    H     0.09710   0.36010   0.52020   0.01267  Uiso   1.00
H26    H     0.20930   0.17210   0.40340   0.01267  Uiso   1.00
H27    H     0.05490   0.62170   0.59720   0.01267  Uiso   1.00
H28    H     0.63990   0.90290   0.47980   0.01267  Uiso   1.00
H29    H     0.53790   0.48670   0.77260   0.01267  Uiso   1.00
H30    H     0.20770   0.27450   0.90280   0.01267  Uiso   1.00
H31    H     0.51700   0.97280   0.26660   0.01267  Uiso   1.00
H32    H     0.45440   0.73440   0.86540   0.01267  Uiso   1.00
H33    H     0.04380   0.99960   0.76660   0.01267  Uiso   1.00
H34    H     0.00040   0.95620   0.23340   0.01267  Uiso   1.00
H35    H     0.03590   0.48470   0.27260   0.01267  Uiso   1.00
H36    H     0.69430   0.78590   0.27480   0.01267  Uiso   1.00
C1     C     0.63744   0.70844   0.16928   0.01267  Uiso   1.00
C2     C     0.54650   0.88450   0.50380   0.01267  Uiso   1.00
C3     C     0.26220   0.15920   0.31060   0.01267  Uiso   1.00
C4     C     0.23030   0.23390   0.23560   0.01267  Uiso   1.00
C5     C     0.90730   0.51310   0.31220   0.01267  Uiso   1.00
C6     C     0.11550   0.45350   0.49620   0.01267  Uiso   1.00
C7     C     0.07710   0.51790   0.87660   0.01267  Uiso   1.00
C8     C     0.61210   0.87270   0.49220   0.01267  Uiso   1.00
C9     C     0.86990   0.63050   0.00780   0.01267  Uiso   1.00
C10    C     0.26671   0.32291   0.75922   0.01267  Uiso   1.00
C11    C     0.36950   0.13010   0.99220   0.01267  Uiso   1.00
C12    C     0.62320   0.19180   0.62400   0.01267  Uiso   1.00
C13    C     0.21816   0.78916   0.33072   0.01267  Uiso   1.00
C14    C     0.10870   0.04950   0.37660   0.01267  Uiso   1.00
C15    C     0.52420   0.50560   0.73880   0.01267  Uiso   1.00
C16    C     0.83010   0.93250   0.19060   0.01267  Uiso   1.00
C17    C     0.46450   0.96170   0.23400   0.01267  Uiso   1.00
C18    C     0.74470   0.24830   0.26440   0.01267  Uiso   1.00
C19    C     0.41790   0.47330   0.25220   0.01267  Uiso   1.00
C20    C     0.79270   0.63070   0.99620   0.01267  Uiso   1.00
C21    C     0.74920   0.81780   0.87600   0.01267  Uiso   1.00
C22    C     0.12730   0.38790   0.50780   0.01267  Uiso   1.00
C23    C     0.48690   0.09270   0.68780   0.01267  Uiso   1.00
C24    C     0.90140   0.29840   0.81060   0.01267  Uiso   1.00
C25    C     0.21084   0.78184   0.66928   0.01267  Uiso   1.00
C26    C     0.93920   0.51580   0.00020   0.01267  Uiso   1.00
C27    C     0.60030   0.00210   0.87340   0.01267  Uiso   1.00
C28    C     0.62770   0.80890   0.50220   0.01267  Uiso   1.00
C29    C     0.62130   0.52310   0.37340   0.01267  Uiso   1.00
C30    C     0.25060   0.38080   0.87380   0.01267  Uiso   1.00
C31    C     0.34330   0.27470   0.68720   0.01267  Uiso   1.00
C32    C     0.23540   0.16900   0.24760   0.01267  Uiso   1.00
C33    C     0.33646   0.81606   0.75252   0.01267  Uiso   1.00
C34    C     0.99790   0.39970   0.12660   0.01267  Uiso   1.00
C35    C     0.61920   0.74940   0.12620   0.01267  Uiso   1.00
C36    C     0.95050   0.89130   0.62340   0.01267  Uiso   1.00
C37    C     0.76610   0.76970   0.76440   0.01267  Uiso   1.00
C38    C     0.74830   0.69170   0.99760   0.01267  Uiso   1.00
C39    C     0.12680   0.75700   0.62620   0.01267  Uiso   1.00
C40    C     0.53540   0.01680   0.76120   0.01267  Uiso   1.00
C41    C     0.30830   0.25170   0.00240   0.01267  Uiso   1.00
C42    C     0.38950   0.99190   0.30940   0.01267  Uiso   1.00
C43    C     0.24300   0.87320   0.37380   0.01267  Uiso   1.00
C44    C     0.53560   0.50260   0.32920   0.01267  Uiso   1.00
C45    C     0.98320   0.46460   0.23880   0.01267  Uiso   1.00
C46    C     0.00810   0.61050   0.69060   0.01267  Uiso   1.00
C47    C     0.03430   0.60070   0.75540   0.01267  Uiso   1.00
C48    C     0.05590   0.49930   0.49760   0.01267  Uiso   1.00
C49    C     0.47690   0.37870   0.62660   0.01267  Uiso   1.00
C50    C     0.75170   0.25530   0.73560   0.01267  Uiso   1.00
C51    C     0.06750   0.16990   0.80940   0.01267  Uiso   1.00
C52    C     0.02890   0.09530   0.74460   0.01267  Uiso   1.00
C53    C     0.03830   0.53550   0.76600   0.01267  Uiso   1.00
C54    C     0.44330   0.12450   0.00220   0.01267  Uiso   1.00
C55    C     0.67709   0.73329   0.24078   0.01267  Uiso   1.00
C56    C     0.49740   0.46440   0.67080   0.01267  Uiso   1.00
C57    C     0.49440   0.47580   0.26120   0.01267  Uiso   1.00
C58    C     0.50070   0.94410   0.50240   0.01267  Uiso   1.00
C59    C     0.36930   0.20730   0.00380   0.01267  Uiso   1.00
C60    C     0.78450   0.29150   0.33420   0.01267  Uiso   1.00
C61    C     0.73780   0.17140   0.25240   0.01267  Uiso   1.00
C62    C     0.19110   0.37230   0.49780   0.01267  Uiso   1.00
C63    C     0.82860   0.26220   0.74760   0.01267  Uiso   1.00
C64    C     0.18220   0.25080   0.12400   0.01267  Uiso   1.00
C65    C     0.98050   0.97770   0.26600   0.01267  Uiso   1.00
C66    C     0.54910   0.65490   0.81220   0.01267  Uiso   1.00
C67    C     0.68900   0.76560   0.49980   0.01267  Uiso   1.00
C68    C     0.18631   0.74251   0.25922   0.01267  Uiso   1.00
C69    C     0.90470   0.97110   0.25540   0.01267  Uiso   1.00
C70    C     0.72530   0.65670   0.31280   0.01267  Uiso   1.00
C71    C     0.40610   0.83750   0.81280   0.01267  Uiso   1.00
C72    C     0.84080   0.73780   0.68940   0.01267  Uiso   1.00
C73    C     0.70160   0.09860   0.18940   0.01267  Uiso   1.00
C74    C     0.97690   0.97790   0.66440   0.01267  Uiso   1.00
C75    C     0.87550   0.55670   0.99780   0.01267  Uiso   1.00
C76    C     0.48420   0.06080   0.99980   0.01267  Uiso   1.00
C77    C     0.39930   0.96570   0.24460   0.01267  Uiso   1.00
C78    C     0.20030   0.20730   0.16580   0.01267  Uiso   1.00
C79    C     0.68646   0.66606   0.25252   0.01267  Uiso   1.00
C80    C     0.48210   0.92290   0.12340   0.01267  Uiso   1.00
C81    C     0.16250   0.59390   0.18720   0.01267  Uiso   1.00
C82    C     0.83100   0.76460   0.75240   0.01267  Uiso   1.00
C83    C     0.52670   0.58210   0.74780   0.01267  Uiso   1.00
C84    C     0.79270   0.79970   0.83420   0.01267  Uiso   1.00
C85    C     0.95640   0.42340   0.17080   0.01267  Uiso   1.00
C86    C     0.23440   0.31100   0.50020   0.01267  Uiso   1.00
C87    C     0.91570   0.47110   0.24780   0.01267  Uiso   1.00
C88    C     0.80820   0.37680   0.37600   0.01267  Uiso   1.00
C89    C     0.25749   0.81369   0.74078   0.01267  Uiso   1.00
C90    C     0.57660   0.04360   0.82920   0.01267  Uiso   1.00
C91    C     0.02230   0.01950   0.73400   0.01267  Uiso   1.00
C92    C     0.70850   0.21550   0.66580   0.01267  Uiso   1.00
C93    C     0.43650   0.93750   0.16440   0.01267  Uiso   1.00
C94    C     0.52890   0.08430   0.75220   0.01267  Uiso   1.00
C95    C     0.34510   0.45090   0.18780   0.01267  Uiso   1.00
C96    C     0.02210   0.02310   0.33560   0.01267  Uiso   1.00
C97    C     0.33394   0.31354   0.74748   0.01267  Uiso   1.00
C98    C     0.29156   0.36256   0.83072   0.01267  Uiso   1.00
C99    C     0.18394   0.66354   0.24748   0.01267  Uiso   1.00
C100   C     0.06250   0.56350   0.83560   0.01267  Uiso   1.00
N1     N     0.40046   0.34746   0.81172   0.01267  Uiso   1.00
N2     N     0.89500   0.79400   0.81500   0.01267  Uiso   1.00
N3     N     0.48660   0.19460   0.01840   0.01267  Uiso   1.00
N4     N     0.97290   0.04090   0.36300   0.01267  Uiso   1.00
N5     N     0.90070   0.00990   0.31440   0.01267  Uiso   1.00
N6     N     0.41290   0.49590   0.31020   0.01267  Uiso   1.00
N7     N     0.17310   0.47670   0.48080   0.01267  Uiso   1.00
N8     N     0.05450   0.66370   0.81440   0.01267  Uiso   1.00
N9     N     0.95910   0.02710   0.63700   0.01267  Uiso   1.00
N10    N     0.20600   0.10500   0.18500   0.01267  Uiso   1.00
N11    N     0.62231   0.62571   0.13682   0.01267  Uiso   1.00
N12    N     0.35990   0.92790   0.13700   0.01267  Uiso   1.00
N13    N     0.80540   0.51340   0.98160   0.01267  Uiso   1.00
N14    N     0.07210   0.64010   0.86300   0.01267  Uiso   1.00
N15    N     0.59250   0.12090   0.85640   0.01267  Uiso   1.00
N16    N     0.75410   0.55770   0.98080   0.01267  Uiso   1.00
N17    N     0.44230   0.24590   0.01920   0.01267  Uiso   1.00
N18    N     0.65254   0.59954   0.18828   0.01267  Uiso   1.00
N19    N     0.18460   0.12760   0.13480   0.01267  Uiso   1.00
N20    N     0.79980   0.24280   0.36520   0.01267  Uiso   1.00
N21    N     0.50410   0.58710   0.68980   0.01267  Uiso   1.00
N22    N     0.23549   0.73889   0.36318   0.01267  Uiso   1.00
N23    N     0.26111   0.76451   0.63682   0.01267  Uiso   1.00
N24    N     0.48550   0.51390   0.35640   0.01267  Uiso   1.00
N25    N     0.57380   0.78180   0.51840   0.01267  Uiso   1.00
N26    N     0.21426   0.66126   0.31172   0.01267  Uiso   1.00
N27    N     0.75720   0.20020   0.63480   0.01267  Uiso   1.00
N28    N     0.85270   0.43570   0.18980   0.01267  Uiso   1.00
N29    N     0.37429   0.37769   0.86318   0.01267  Uiso   1.00
N30    N     0.99010   0.09930   0.68560   0.01267  Uiso   1.00
N31    N     0.33630   0.94550   0.18560   0.01267  Uiso   1.00
N32    N     0.48610   0.51450   0.64360   0.01267  Uiso   1.00
N33    N     0.83000   0.22900   0.68500   0.01267  Uiso   1.00
N34    N     0.56430   0.14730   0.81020   0.01267  Uiso   1.00
N35    N     0.77100   0.17000   0.31500   0.01267  Uiso   1.00
N36    N     0.33874   0.78574   0.68828   0.01267  Uiso   1.00
N37    N     0.52330   0.82690   0.51920   0.01267  Uiso   1.00
N38    N     0.21820   0.42620   0.48160   0.01267  Uiso   1.00
N39    N     0.87240   0.81540   0.86520   0.01267  Uiso   1.00
N40    N     0.87910   0.40750   0.14360   0.01267  Uiso   1.00
O1     O     0.18353   0.30653   0.93146   0.01267  Uiso   1.00
O2     O     0.27924   0.89524   0.43688   0.01267  Uiso   1.00
O3     O     0.17708   0.36448   0.84276   0.01267  Uiso   1.00
O4     O     0.89822   0.55142   0.44984   0.01267  Uiso   1.00
O5     O     0.44366   0.90546   0.06112   0.01267  Uiso   1.00
O6     O     0.95652   0.37652   0.06464   0.01267  Uiso   1.00
O7     O     0.30528   0.22008   0.36476   0.01267  Uiso   1.00
O8     O     0.77650   0.41670   0.34500   0.01267  Uiso   1.00
O9     O     0.09454   0.55634   0.93888   0.01267  Uiso   1.00
O10    O     0.02303   0.42663   0.93186   0.01267  Uiso   1.00
O11    O     0.19838   0.35158   0.05016   0.01267  Uiso   1.00
O12    O     0.28213   0.45093   0.19486   0.01267  Uiso   1.00
O13    O     0.77860   0.64100   0.44920   0.01267  Uiso   1.00
O14    O     0.43812   0.35812   0.56464   0.01267  Uiso   1.00
O15    O     0.76709   0.93249   0.19658   0.01267  Uiso   1.00
O16    O     0.56320   0.64880   0.86640   0.01267  Uiso   1.00
O17    O     0.84117   0.74477   0.56814   0.01267  Uiso   1.00
O18    O     0.35900   0.22140   0.55080   0.01267  Uiso   1.00
O19    O     0.62348   0.04348   0.93536   0.01267  Uiso   1.00
O20    O     0.22477   0.49897   0.09474   0.01267  Uiso   1.00
O21    O     0.17378   0.53278   0.19436   0.01267  Uiso   1.00
O22    O     0.07184   0.44684   0.84488   0.01267  Uiso   1.00
O23    O     0.24118   0.09138   0.30436   0.01267  Uiso   1.00
O24    O     0.08432   0.77172   0.65724   0.01267  Uiso   1.00
O25    O     0.27509   0.05189   0.47018   0.01267  Uiso   1.00
O26    O     0.21080   0.26040   0.51660   0.01267  Uiso   1.00
O27    O     0.59236   0.70836   0.06312   0.01267  Uiso   1.00
O28    O     0.07940   0.44180   0.05080   0.01267  Uiso   1.00
O29    O     0.34577   0.11997   0.59474   0.01267  Uiso   1.00
O30    O     0.78970   0.75910   0.01520   0.01267  Uiso   1.00
O31    O     0.70382   0.95222   0.07564   0.01267  Uiso   1.00
O32    O     0.37493   0.99793   0.43146   0.01267  Uiso   1.00
O33    O     0.75423   0.71883   0.36726   0.01267  Uiso   1.00
O34    O     0.14804   0.02304   0.34488   0.01267  Uiso   1.00
O35    O     0.00207   0.62507   0.56854   0.01267  Uiso   1.00
O36    O     0.64188   0.56188   0.43536   0.01267  Uiso   1.00
O37    O     0.52450   0.99390   0.48480   0.01267  Uiso   1.00
O38    O     0.13697   0.60157   0.13274   0.01267  Uiso   1.00
O39    O     0.45214   0.02074   0.36428   0.01267  Uiso   1.00
O40    O     0.91911   0.44211   0.98162   0.01267  Uiso   1.00
O41    O     0.72942   0.58842   0.30564   0.01267  Uiso   1.00
O42    O     0.57337   0.97697   0.06814   0.01267  Uiso   1.00
O43    O     0.44680   0.03240   0.63360   0.01267  Uiso   1.00
O44    O     0.46722   0.82622   0.80564   0.01267  Uiso   1.00
O45    O     0.50103   0.77523   0.90526   0.01267  Uiso   1.00
O46    O     0.64842   0.80162   0.94984   0.01267  Uiso   1.00
O47    O     0.69841   0.93581   0.96502   0.01267  Uiso   1.00
O48    O     0.73960   0.78920   0.48340   0.01267  Uiso   1.00
O49    O     0.67605   0.66925   0.98270   0.01267  Uiso   1.00
O50    O     0.37818   0.12658   0.42436   0.01267  Uiso   1.00
O51    O     0.54907   0.71787   0.80514   0.01267  Uiso   1.00
O52    O     0.32051   0.98591   0.30342   0.01267  Uiso   1.00
O53    O     0.16829   0.44509   0.97018   0.01267  Uiso   1.00
O54    O     0.96760   0.55320   0.36640   0.01267  Uiso   1.00
O55    O     0.35120   0.43680   0.13360   0.01267  Uiso   1.00
O56    O     0.69347   0.81647   0.06854   0.01267  Uiso   1.00
O57    O     0.39843   0.86303   0.86726   0.01267  Uiso   1.00
O58    O     0.48339   0.22079   0.53498   0.01267  Uiso   1.00
O59    O     0.69052   0.10532   0.13524   0.01267  Uiso   1.00
O60    O     0.87342   0.62182   0.57564   0.01267  Uiso   1.00
O61    O     0.55491   0.83171   0.02982   0.01267  Uiso   1.00
O62    O     0.83786   0.90646   0.13572   0.01267  Uiso   1.00
O63    O     0.04778   0.29618   0.92436   0.01267  Uiso   1.00
O64    O     0.59752   0.14432   0.56204   0.01267  Uiso   1.00
O65    O     0.07139   0.40759   0.15698   0.01267  Uiso   1.00
O66    O     0.89468   0.30948   0.86476   0.01267  Uiso   1.00
O67    O     0.49939   0.33559   0.65698   0.01267  Uiso   1.00
O68    O     0.83727   0.50607   0.30514   0.01267  Uiso   1.00
O69    O     0.44335   0.93655   0.51730   0.01267  Uiso   1.00
O70    O     0.13254   0.09434   0.43888   0.01267  Uiso   1.00
O71    O     0.63552   0.82292   0.15724   0.01267  Uiso   1.00
O72    O     0.24090   0.21030   0.98480   0.01267  Uiso   1.00
O73    O     0.22828   0.91568   0.34276   0.01267  Uiso   1.00
O74    O     0.90862   0.75882   0.69564   0.01267  Uiso   1.00
O75    O     0.94811   0.72491   0.52982   0.01267  Uiso   1.00
O76    O     0.09354   0.16214   0.86428   0.01267  Uiso   1.00
O77    O     0.00620   0.55580   0.01660   0.01267  Uiso   1.00
O78    O     0.06751   0.23291   0.80342   0.01267  Uiso   1.00
O79    O     0.68749   0.71049   0.51838   0.01267  Uiso   1.00
O80    O     0.55789   0.08089   0.01838   0.01267  Uiso   1.00
O81    O     0.77992   0.69472   0.63524   0.01267  Uiso   1.00
O82    O     0.68682   0.03702   0.19564   0.01267  Uiso   1.00
O83    O     0.77921   0.51661   0.46502   0.01267  Uiso   1.00
O84    O     0.41158   0.27058   0.69436   0.01267  Uiso   1.00
O85    O     0.67830   0.81850   0.84500   0.01267  Uiso   1.00
O86    O     0.00610   0.47550   0.51520   0.01267  Uiso   1.00
O87    O     0.66441   0.50061   0.34302   0.01267  Uiso   1.00
O88    O     0.88003   0.65423   0.40526   0.01267  Uiso   1.00
O89    O     0.33075   0.32395   0.01730   0.01267  Uiso   1.00
O90    O     0.55316   0.92816   0.15512   0.01267  Uiso   1.00
O91    O     0.28117   0.24577   0.63274   0.01267  Uiso   1.00
O92    O     0.78548   0.83228   0.93796   0.01267  Uiso   1.00
O93    O     0.44858   0.10178   0.55016   0.01267  Uiso   1.00
O94    O     0.16772   0.21452   0.06204   0.01267  Uiso   1.00
O95    O     0.96298   0.31318   0.80436   0.01267  Uiso   1.00
O96    O     0.97696   0.85196   0.65512   0.01267  Uiso   1.00
O97    O     0.90566   0.86746   0.56112   0.01267  Uiso   1.00
O98    O     0.44420   0.99380   0.98340   0.01267  Uiso   1.00
O99    O     0.18150   0.32170   0.15500   0.01267  Uiso   1.00
O100   O     0.28951   0.31251   0.48162   0.01267  Uiso   1.00
O101   O     0.49393   0.16273   0.69486   0.01267  Uiso   1.00
O102   O     0.06419   0.30159   0.03498   0.01267  Uiso   1.00
O103   O     0.97926   0.54786   0.63572   0.01267  Uiso   1.00
O104   O     0.29164   0.40764   0.93688   0.01267  Uiso   1.00
O105   O     0.06345   0.55665   0.48270   0.01267  Uiso   1.00
O106   O     0.25523   0.15883   0.43186   0.01267  Uiso   1.00
O107   O     0.58330   0.22350   0.65500   0.01267  Uiso   1.00
O108   O     0.01409   0.67949   0.69658   0.01267  Uiso   1.00
O109   O     0.55820   0.92060   0.94920   0.01267  Uiso   1.00
O110   O     0.85568   0.40248   0.43796   0.01267  Uiso   1.00
O111   O     0.59241   0.92861   0.84302   0.01267  Uiso   1.00
O112   O     0.10476   0.72076   0.56312   0.01267  Uiso   1.00
