data_image0
_cell_length_a       21.43
_cell_length_b       21.43
_cell_length_c       16.89
_cell_angle_alpha    90
_cell_angle_beta     90
_cell_angle_gamma    120

_symmetry_space_group_name_H-M    "P 1"
_symmetry_int_tables_number       1

loop_
  _symmetry_equiv_pos_as_xyz
  'x, y, z'

loop_
  _atom_site_label
  _atom_site_occupancy
  _atom_site_fract_x
  _atom_site_fract_y
  _atom_site_fract_z
  _atom_site_thermal_displace_type
  _atom_site_B_iso_or_equiv
  _atom_site_type_symbol
  O1       1.0000 0.95877  0.14560  0.07304  Biso   1.000  O
  O2       1.0000 0.04102  0.14184  0.15560  Biso   1.000  O
  C1       1.0000 0.00100  0.45600  0.32800  Biso   1.000  C
  C2       1.0000 0.99600  0.46670  0.24900  Biso   1.000  C
  C3       1.0000 0.99860  0.39080  0.34740  Biso   1.000  C
  C4       1.0000 0.00200  0.37000  0.42500  Biso   1.000  C
  C5       1.0000 0.00400  0.31400  0.45992  Biso   1.000  C
  C6       1.0000 0.00191  0.33957  0.28501  Biso   1.000  C
  C7       1.0000 0.94850  0.30352  0.22651  Biso   1.000  C
  C8       1.0000 0.94851  0.24952  0.17722  Biso   1.000  C
  C9       1.0000 0.05508  0.31899  0.29108  Biso   1.000  C
  C10      1.0000 0.00069  0.16911  0.13455  Biso   1.000  C
  C11      1.0000 0.00117  0.22841  0.18506  Biso   1.000  C
  C12      1.0000 0.05478  0.26501  0.24262  Biso   1.000  C
  Zr1      1.0000 0.92834  0.92614  0.09253  Biso   1.000  Zr
  O3       1.0000 0.82917  0.83005  0.08285  Biso   1.000  O
  O4       1.0000 0.87554  0.86613  0.19296  Biso   1.000  O
  C13      1.0000 0.54400  0.54500  0.32800  Biso   1.000  C
  C14      1.0000 0.53330  0.52930  0.24900  Biso   1.000  C
  C15      1.0000 0.60920  0.60780  0.34740  Biso   1.000  C
  C16      1.0000 0.63000  0.63200  0.42500  Biso   1.000  C
  C17      1.0000 0.68600  0.69000  0.45992  Biso   1.000  C
  C18      1.0000 0.66077  0.65229  0.28694  Biso   1.000  C
  C19      1.0000 0.73149  0.66607  0.29329  Biso   1.000  C
  C20      1.0000 0.78432  0.71823  0.24623  Biso   1.000  C
  C21      1.0000 0.64201  0.68815  0.23089  Biso   1.000  C
  C22      1.0000 0.82311  0.81731  0.15546  Biso   1.000  C
  C23      1.0000 0.76599  0.75530  0.19214  Biso   1.000  C
  C24      1.0000 0.69508  0.73986  0.18267  Biso   1.000  C
  O5       1.0000 0.15119  0.96342  0.07203  Biso   1.000  O
  C25      1.0000 0.45301  0.00142  0.32939  Biso   1.000  C
  C26      1.0000 0.47070  0.00400  0.24900  Biso   1.000  C
  C27      1.0000 0.39220  0.00140  0.34740  Biso   1.000  C
  C28      1.0000 0.36800  0.99800  0.42500  Biso   1.000  C
  C29      1.0000 0.31000  0.99600  0.45992  Biso   1.000  C
  C30      1.0000 0.34393  0.00676  0.28802  Biso   1.000  C
  C31      1.0000 0.30766  0.04556  0.30529  Biso   1.000  C
  C32      1.0000 0.25450  0.04565  0.25586  Biso   1.000  C
  C33      1.0000 0.32403  0.96933  0.21466  Biso   1.000  C
  C34      1.0000 0.17329  0.00479  0.13389  Biso   1.000  C
  C35      1.0000 0.23325  0.00646  0.18486  Biso   1.000  C
  C36      1.0000 0.27007  0.96910  0.16459  Biso   1.000  C
  O6       1.0000 0.04427  0.85486  0.07251  Biso   1.000  O
  C37      1.0000 0.99900  0.54400  0.32800  Biso   1.000  C
  C38      1.0000 0.00400  0.53330  0.24900  Biso   1.000  C
  C39      1.0000 0.00140  0.60920  0.34740  Biso   1.000  C
  C40      1.0000 0.99800  0.63000  0.42500  Biso   1.000  C
  C41      1.0000 0.99600  0.68600  0.45992  Biso   1.000  C
  C42      1.0000 0.99902  0.66069  0.28492  Biso   1.000  C
  C43      1.0000 0.05266  0.69604  0.22645  Biso   1.000  C
  C44      1.0000 0.05335  0.75012  0.17676  Biso   1.000  C
  C45      1.0000 0.94644  0.68198  0.29071  Biso   1.000  C
  C46      1.0000 0.00203  0.83113  0.13362  Biso   1.000  C
  C47      1.0000 0.00118  0.77187  0.18429  Biso   1.000  C
  C48      1.0000 0.94750  0.73603  0.24190  Biso   1.000  C
  Zr2      1.0000 0.07378  0.07408  0.09276  Biso   1.000  Zr
  O7       1.0000 0.16849  0.17409  0.08207  Biso   1.000  O
  C49      1.0000 0.45600  0.45500  0.32800  Biso   1.000  C
  C50      1.0000 0.46670  0.47070  0.24900  Biso   1.000  C
  C51      1.0000 0.39080  0.39220  0.34740  Biso   1.000  C
  C52      1.0000 0.37000  0.36800  0.42500  Biso   1.000  C
  C53      1.0000 0.31400  0.31000  0.45992  Biso   1.000  C
  C54      1.0000 0.34485  0.34267  0.28674  Biso   1.000  C
  C55      1.0000 0.30264  0.36039  0.23912  Biso   1.000  C
  C56      1.0000 0.25095  0.30803  0.19029  Biso   1.000  C
  C57      1.0000 0.33769  0.27432  0.28417  Biso   1.000  C
  C58      1.0000 0.18092  0.18125  0.15468  Biso   1.000  C
  C59      1.0000 0.24243  0.23915  0.19061  Biso   1.000  C
  C60      1.0000 0.28578  0.22216  0.23637  Biso   1.000  C
  O8       1.0000 0.85839  0.95629  0.15564  Biso   1.000  O
  O9       1.0000 0.85177  0.03681  0.07286  Biso   1.000  O
  C61      1.0000 0.54500  0.00100  0.32800  Biso   1.000  C
  C62      1.0000 0.52930  0.99600  0.24900  Biso   1.000  C
  C63      1.0000 0.60780  0.99860  0.34740  Biso   1.000  C
  C64      1.0000 0.63200  0.00200  0.42500  Biso   1.000  C
  C65      1.0000 0.69000  0.00400  0.45992  Biso   1.000  C
  C66      1.0000 0.65819  0.99325  0.28518  Biso   1.000  C
  C67      1.0000 0.68257  0.94327  0.29531  Biso   1.000  C
  C68      1.0000 0.73662  0.94343  0.24682  Biso   1.000  C
  C69      1.0000 0.69071  0.04330  0.22279  Biso   1.000  C
  C70      1.0000 0.82940  0.99515  0.13461  Biso   1.000  C
  C71      1.0000 0.76964  0.99385  0.18533  Biso   1.000  C
  C72      1.0000 0.74475  0.04320  0.17371  Biso   1.000  C
  O10      1.0000 0.04454  0.85505  0.92816  Biso   1.000  O
  O11      1.0000 0.96188  0.85843  0.84620  Biso   1.000  O
  C73      1.0000 0.99900  0.54400  0.67200  Biso   1.000  C
  C74      1.0000 0.00400  0.53330  0.75100  Biso   1.000  C
  C75      1.0000 0.00140  0.60920  0.65260  Biso   1.000  C
  C76      1.0000 0.99800  0.63000  0.57500  Biso   1.000  C
  C77      1.0000 0.99600  0.68600  0.54008  Biso   1.000  C
  C78      1.0000 0.99919  0.66085  0.71513  Biso   1.000  C
  C79      1.0000 0.05261  0.69584  0.77395  Biso   1.000  C
  C80      1.0000 0.05343  0.74996  0.82375  Biso   1.000  C
  C81      1.0000 0.94698  0.68263  0.70918  Biso   1.000  C
  C82      1.0000 0.00243  0.83139  0.86690  Biso   1.000  C
  C83      1.0000 0.00160  0.77216  0.81606  Biso   1.000  C
  C84      1.0000 0.94816  0.73670  0.75809  Biso   1.000  C
  Zr3      1.0000 0.07401  0.07395  0.90828  Biso   1.000  Zr
  O12      1.0000 0.17402  0.16894  0.91712  Biso   1.000  O
  O13      1.0000 0.12590  0.13366  0.80755  Biso   1.000  O
  C85      1.0000 0.45600  0.45500  0.67200  Biso   1.000  C
  C86      1.0000 0.46670  0.47070  0.75100  Biso   1.000  C
  C87      1.0000 0.39080  0.39220  0.65260  Biso   1.000  C
  C88      1.0000 0.37000  0.36800  0.57500  Biso   1.000  C
  C89      1.0000 0.31400  0.31000  0.54008  Biso   1.000  C
  C90      1.0000 0.33973  0.34750  0.71305  Biso   1.000  C
  C91      1.0000 0.26887  0.33329  0.70717  Biso   1.000  C
  C92      1.0000 0.21656  0.28081  0.75427  Biso   1.000  C
  C93      1.0000 0.35923  0.31191  0.76864  Biso   1.000  C
  C94      1.0000 0.17906  0.18192  0.84463  Biso   1.000  C
  C95      1.0000 0.23561  0.24394  0.80780  Biso   1.000  C
  C96      1.0000 0.30668  0.25989  0.81690  Biso   1.000  C
  O14      1.0000 0.85856  0.95638  0.84503  Biso   1.000  O
  O15      1.0000 0.85188  0.03691  0.92782  Biso   1.000  O
  C97      1.0000 0.54500  0.00100  0.67200  Biso   1.000  C
  C98      1.0000 0.52930  0.99600  0.75100  Biso   1.000  C
  C99      1.0000 0.60780  0.99860  0.65260  Biso   1.000  C
  C100     1.0000 0.63200  0.00200  0.57500  Biso   1.000  C
  C101     1.0000 0.69000  0.00400  0.54008  Biso   1.000  C
  C102     1.0000 0.65832  0.99335  0.71490  Biso   1.000  C
  C103     1.0000 0.68290  0.94351  0.70480  Biso   1.000  C
  C104     1.0000 0.73695  0.94371  0.75342  Biso   1.000  C
  C105     1.0000 0.69073  0.04333  0.77742  Biso   1.000  C
  C106     1.0000 0.82958  0.99530  0.86598  Biso   1.000  C
  C107     1.0000 0.76984  0.99403  0.81506  Biso   1.000  C
  C108     1.0000 0.74478  0.04328  0.82661  Biso   1.000  C
  O16      1.0000 0.95811  0.14564  0.92858  Biso   1.000  O
  O17      1.0000 0.04111  0.14258  0.84687  Biso   1.000  O
  C109     1.0000 0.00100  0.45600  0.67200  Biso   1.000  C
  C110     1.0000 0.99600  0.46670  0.75100  Biso   1.000  C
  C111     1.0000 0.99860  0.39080  0.65260  Biso   1.000  C
  C112     1.0000 0.00200  0.37000  0.57500  Biso   1.000  C
  C113     1.0000 0.00400  0.31400  0.54008  Biso   1.000  C
  C114     1.0000 0.00155  0.33935  0.71519  Biso   1.000  C
  C115     1.0000 0.94884  0.30450  0.77476  Biso   1.000  C
  C116     1.0000 0.94876  0.25069  0.82460  Biso   1.000  C
  C117     1.0000 0.05384  0.31765  0.70870  Biso   1.000  C
  C118     1.0000 0.00029  0.16942  0.86737  Biso   1.000  C
  C119     1.0000 0.00064  0.22855  0.81638  Biso   1.000  C
  C120     1.0000 0.05340  0.26388  0.75767  Biso   1.000  C
  Zr4      1.0000 0.92852  0.92619  0.90814  Biso   1.000  Zr
  O18      1.0000 0.82968  0.82964  0.91756  Biso   1.000  O
  O19      1.0000 0.87565  0.86655  0.80747  Biso   1.000  O
  C121     1.0000 0.54400  0.54500  0.67200  Biso   1.000  C
  C122     1.0000 0.53330  0.52930  0.75100  Biso   1.000  C
  C123     1.0000 0.60920  0.60780  0.65260  Biso   1.000  C
  C124     1.0000 0.63000  0.63200  0.57500  Biso   1.000  C
  C125     1.0000 0.68600  0.69000  0.54008  Biso   1.000  C
  C126     1.0000 0.66093  0.65231  0.71307  Biso   1.000  C
  C127     1.0000 0.73179  0.66653  0.70625  Biso   1.000  C
  C128     1.0000 0.78467  0.71870  0.75330  Biso   1.000  C
  C129     1.0000 0.64218  0.68779  0.76962  Biso   1.000  C
  C130     1.0000 0.82343  0.81734  0.84485  Biso   1.000  C
  C131     1.0000 0.76632  0.75537  0.80792  Biso   1.000  C
  C132     1.0000 0.69530  0.73949  0.81785  Biso   1.000  C
  O20      1.0000 0.14334  0.04266  0.84527  Biso   1.000  O
  O21      1.0000 0.15249  0.96520  0.93056  Biso   1.000  O
  C133     1.0000 0.45450  0.00436  0.67052  Biso   1.000  C
  C134     1.0000 0.47070  0.00400  0.75100  Biso   1.000  C
  C135     1.0000 0.39220  0.00140  0.65260  Biso   1.000  C
  C136     1.0000 0.36800  0.99800  0.57500  Biso   1.000  C
  C137     1.0000 0.31000  0.99600  0.54008  Biso   1.000  C
  C138     1.0000 0.33991  0.00016  0.71253  Biso   1.000  C
  C139     1.0000 0.35744  0.03185  0.78933  Biso   1.000  C
  C140     1.0000 0.30479  0.03374  0.84021  Biso   1.000  C
  C141     1.0000 0.26527  0.96864  0.69379  Biso   1.000  C
  C142     1.0000 0.17393  0.00568  0.86806  Biso   1.000  C
  C143     1.0000 0.23188  0.00475  0.81665  Biso   1.000  C
  C144     1.0000 0.21338  0.97107  0.74283  Biso   1.000  C
  Zr5      1.0000 0.06147  0.94333  0.00055  Biso   1.000  Zr
  Zr6      1.0000 0.94113  0.05712  0.00051  Biso   1.000  Zr
  N1       1.0000 0.00000  0.50000  0.38400  Biso   1.000  N
  N2       1.0000 0.50000  0.50000  0.38400  Biso   1.000  N
  N3       1.0000 0.50000  0.00000  0.38400  Biso   1.000  N
  N4       1.0000 0.00000  0.50000  0.61600  Biso   1.000  N
  N5       1.0000 0.50000  0.50000  0.61600  Biso   1.000  N
  N6       1.0000 0.50000  0.00000  0.61600  Biso   1.000  N
  N7       1.0000 0.01000  0.41600  0.50000  Biso   1.000  N
  N8       1.0000 0.58400  0.59400  0.50000  Biso   1.000  N
  N9       1.0000 0.40600  0.99000  0.50000  Biso   1.000  N
  N10      1.0000 0.99000  0.58400  0.50000  Biso   1.000  N
  N11      1.0000 0.41600  0.40600  0.50000  Biso   1.000  N
  N12      1.0000 0.59400  0.01000  0.50000  Biso   1.000  N
  Fe1      1.0000 0.00000  0.50000  0.50000  Biso   1.000  Fe
  Fe2      1.0000 0.50000  0.50000  0.50000  Biso   1.000  Fe
  Fe3      1.0000 0.50000  0.00000  0.50000  Biso   1.000  Fe
  O22      1.0000 0.96146  0.85813  0.15430  Biso   1.000  O
  O23      1.0000 0.14370  0.04309  0.15513  Biso   1.000  O
  O24      1.0000 0.13279  0.12886  0.19285  Biso   1.000  O
  O25      1.0000 0.96558  0.03376  0.11655  Biso   1.000  O
  O26      1.0000 0.87474  0.94295  0.00029  Biso   1.000  O
  O27      1.0000 0.94762  0.87412  0.00037  Biso   1.000  O
  O28      1.0000 0.12761  0.05744  0.00073  Biso   1.000  O
  O29      1.0000 0.03686  0.96645  0.88454  Biso   1.000  O
  O30      1.0000 0.05494  0.12616  0.00039  Biso   1.000  O
  O31      1.0000 0.03657  0.96649  0.11623  Biso   1.000  O
  O32      1.0000 0.96580  0.03379  0.88460  Biso   1.000  O
  H1       1.0000 0.98722  0.42302  0.20453  Biso   1.000  H
  H2       1.0000 0.00554  0.27081  0.42195  Biso   1.000  H
  H3       1.0000 0.89394  0.27821  0.25741  Biso   1.000  H
  H4       1.0000 0.95319  0.34945  0.18816  Biso   1.000  H
  H5       1.0000 0.95025  0.26724  0.11323  Biso   1.000  H
  H6       1.0000 0.89575  0.19667  0.18537  Biso   1.000  H
  H7       1.0000 0.10035  0.34624  0.33633  Biso   1.000  H
  H8       1.0000 0.04631  0.21120  0.09655  Biso   1.000  H
  H9       1.0000 0.09871  0.25022  0.24970  Biso   1.000  H
  H10      1.0000 0.57698  0.56419  0.20453  Biso   1.000  H
  H11      1.0000 0.72919  0.73473  0.42195  Biso   1.000  H
  H12      1.0000 0.74516  0.63426  0.33717  Biso   1.000  H
  H13      1.0000 0.84244  0.73064  0.25186  Biso   1.000  H
  H14      1.0000 0.58360  0.67477  0.22519  Biso   1.000  H
  H15      1.0000 0.68035  0.76893  0.13624  Biso   1.000  H
  H16      1.0000 0.43682  0.01154  0.20205  Biso   1.000  H
  H17      1.0000 0.26527  0.99446  0.42195  Biso   1.000  H
  H18      1.0000 0.32100  0.07900  0.36174  Biso   1.000  H
  H19      1.0000 0.22773  0.07812  0.27333  Biso   1.000  H
  H20      1.0000 0.35256  0.93882  0.19611  Biso   1.000  H
  H21      1.0000 0.25543  0.93820  0.10626  Biso   1.000  H
  H22      1.0000 0.01225  0.56339  0.19080  Biso   1.000  H
  H23      1.0000 0.99446  0.72919  0.42195  Biso   1.000  H
  H24      1.0000 0.10714  0.72098  0.25748  Biso   1.000  H
  H25      1.0000 0.04751  0.64973  0.18844  Biso   1.000  H
  H26      1.0000 0.05145  0.73205  0.11289  Biso   1.000  H
  H27      1.0000 0.10641  0.80269  0.18479  Biso   1.000  H
  H28      1.0000 0.90113  0.65525  0.33599  Biso   1.000  H
  H29      1.0000 0.90409  0.75158  0.24869  Biso   1.000  H
  H30      1.0000 0.43661  0.44885  0.19080  Biso   1.000  H
  H31      1.0000 0.27081  0.26527  0.42195  Biso   1.000  H
  H32      1.0000 0.31094  0.41723  0.24076  Biso   1.000  H
  H33      1.0000 0.21629  0.32166  0.15077  Biso   1.000  H
  H34      1.0000 0.37464  0.26208  0.32144  Biso   1.000  H
  H35      1.0000 0.27876  0.16582  0.23466  Biso   1.000  H
  H36      1.0000 0.55115  0.98775  0.19080  Biso   1.000  H
  H37      1.0000 0.73473  0.00554  0.42195  Biso   1.000  H
  H38      1.0000 0.65854  0.90082  0.34396  Biso   1.000  H
  H39      1.0000 0.75437  0.90203  0.25715  Biso   1.000  H
  H40      1.0000 0.67268  0.08445  0.21221  Biso   1.000  H
  H41      1.0000 0.78770  0.94880  0.09706  Biso   1.000  H
  H42      1.0000 0.76932  0.08370  0.12326  Biso   1.000  H
  H43      1.0000 0.01278  0.57698  0.79547  Biso   1.000  H
  H44      1.0000 0.99438  0.73124  0.57383  Biso   1.000  H
  H45      1.0000 0.09567  0.67985  0.78104  Biso   1.000  H
  H46      1.0000 0.09661  0.77660  0.87132  Biso   1.000  H
  H47      1.0000 0.90183  0.65630  0.66366  Biso   1.000  H
  H48      1.0000 0.90503  0.75261  0.75110  Biso   1.000  H
  H49      1.0000 0.42302  0.43581  0.79547  Biso   1.000  H
  H50      1.0000 0.26876  0.26314  0.57383  Biso   1.000  H
  H51      1.0000 0.25477  0.36503  0.66366  Biso   1.000  H
  H52      1.0000 0.15827  0.26796  0.74915  Biso   1.000  H
  H53      1.0000 0.41783  0.32581  0.77388  Biso   1.000  H
  H54      1.0000 0.32197  0.23102  0.86301  Biso   1.000  H
  H55      1.0000 0.56419  0.98722  0.79547  Biso   1.000  H
  H56      1.0000 0.73686  0.00562  0.57383  Biso   1.000  H
  H57      1.0000 0.65906  0.90112  0.65607  Biso   1.000  H
  H58      1.0000 0.75483  0.90241  0.74308  Biso   1.000  H
  H59      1.0000 0.67258  0.08439  0.78800  Biso   1.000  H
  H60      1.0000 0.76923  0.08374  0.87711  Biso   1.000  H
  H61      1.0000 0.94079  0.42542  0.77496  Biso   1.000  H
  H62      1.0000 0.04074  0.46694  0.78776  Biso   1.000  H
  H63      1.0000 0.00562  0.26876  0.57383  Biso   1.000  H
  H64      1.0000 0.90573  0.32035  0.78243  Biso   1.000  H
  H65      1.0000 0.90611  0.22418  0.87273  Biso   1.000  H
  H66      1.0000 0.09853  0.34378  0.66265  Biso   1.000  H
  H67      1.0000 0.04553  0.21174  0.90558  Biso   1.000  H
  H68      1.0000 0.09660  0.24813  0.75011  Biso   1.000  H
  H69      1.0000 0.56339  0.55115  0.80920  Biso   1.000  H
  H70      1.0000 0.73124  0.73686  0.57383  Biso   1.000  H
  H71      1.0000 0.74556  0.63507  0.66199  Biso   1.000  H
  H72      1.0000 0.84286  0.73146  0.74723  Biso   1.000  H
  H73      1.0000 0.58371  0.67413  0.77576  Biso   1.000  H
  H74      1.0000 0.68053  0.76822  0.86468  Biso   1.000  H
  H75      1.0000 0.43595  0.00983  0.79823  Biso   1.000  H
  H76      1.0000 0.26314  0.99438  0.57383  Biso   1.000  H
  H77      1.0000 0.41503  0.05690  0.81233  Biso   1.000  H
  H78      1.0000 0.32105  0.05906  0.90154  Biso   1.000  H
  H79      1.0000 0.24865  0.93989  0.63421  Biso   1.000  H
  H80      1.0000 0.15495  0.94520  0.72245  Biso   1.000  H
