data_ja5131269_si_002_clean
_audit_creation_date              2015-08-19
_audit_creation_method            'Materials Studio'
_symmetry_space_group_name_H-M    'P1'
_symmetry_Int_Tables_number       1
_symmetry_cell_setting            triclinic
loop_
_symmetry_equiv_pos_as_xyz
  x,y,z
_cell_length_a                    17.0669
_cell_length_b                    17.0894
_cell_length_c                    17.0894
_cell_angle_alpha                 90.2418
_cell_angle_beta                  91.6798
_cell_angle_gamma                 91.6798
loop_
_atom_site_label
_atom_site_type_symbol
_atom_site_fract_x
_atom_site_fract_y
_atom_site_fract_z
_atom_site_U_iso_or_equiv
_atom_site_adp_type
_atom_site_occupancy
Zn1    Zn    0.68302   0.78638   0.91648   0.01267  Uiso   1.00
Zn2    Zn    0.81383   0.78782   0.78782   0.01267  Uiso   1.00
Zn3    Zn    0.81417   0.91947   0.91947   0.01267  Uiso   1.00
Zn4    Zn    0.68302   0.91648   0.78638   0.01267  Uiso   1.00
H1     H     0.65490   0.40580   0.92620   0.01267  Uiso   1.00
H2     H     0.66130   0.15620   0.77860   0.01267  Uiso   1.00
H3     H     0.66090   0.29320   0.77680   0.01267  Uiso   1.00
H4     H     0.19960   0.94200   0.94200   0.01267  Uiso   1.00
H5     H     0.66090   0.77680   0.29320   0.01267  Uiso   1.00
H6     H     0.83680   0.55000   0.78120   0.01267  Uiso   1.00
H7     H     0.83970   0.93820   0.30180   0.01267  Uiso   1.00
H8     H     0.83680   0.78120   0.55000   0.01267  Uiso   1.00
H9     H     0.30400   0.76760   0.92940   0.01267  Uiso   1.00
H10    H     0.65580   0.92960   0.54280   0.01267  Uiso   1.00
H11    H     0.30400   0.92940   0.76760   0.01267  Uiso   1.00
H12    H     0.65490   0.92620   0.40580   0.01267  Uiso   1.00
H13    H     0.17930   0.77500   0.77500   0.01267  Uiso   1.00
H14    H     0.84020   0.94000   0.16500   0.01267  Uiso   1.00
H15    H     0.43560   0.76410   0.92670   0.01267  Uiso   1.00
H16    H     0.43560   0.92670   0.76410   0.01267  Uiso   1.00
H17    H     0.84020   0.16500   0.94000   0.01267  Uiso   1.00
H18    H     0.83970   0.30180   0.93820   0.01267  Uiso   1.00
H19    H     0.06500   0.94680   0.94680   0.01267  Uiso   1.00
H20    H     0.83590   0.41300   0.77780   0.01267  Uiso   1.00
H21    H     0.04430   0.78140   0.78140   0.01267  Uiso   1.00
H22    H     0.65580   0.54280   0.92960   0.01267  Uiso   1.00
H23    H     0.83590   0.77780   0.41300   0.01267  Uiso   1.00
H24    H     0.66130   0.77860   0.15620   0.01267  Uiso   1.00
C1     C     0.75080   0.85950   0.14770   0.01267  Uiso   1.00
C2     C     0.79930   0.80860   0.43940   0.01267  Uiso   1.00
C3     C     0.45120   0.85130   0.85130   0.01267  Uiso   1.00
C4     C     0.75150   0.86050   0.06050   0.01267  Uiso   1.00
C5     C     0.80380   0.90690   0.19090   0.01267  Uiso   1.00
C6     C     0.79930   0.43940   0.80860   0.01267  Uiso   1.00
C7     C     0.75080   0.14770   0.85950   0.01267  Uiso   1.00
C8     C     0.75150   0.06050   0.86050   0.01267  Uiso   1.00
C9     C     0.75030   0.31040   0.85720   0.01267  Uiso   1.00
C10    C     0.79990   0.52070   0.81070   0.01267  Uiso   1.00
C11    C     0.74640   0.85570   0.55930   0.01267  Uiso   1.00
C12    C     0.69730   0.26710   0.80990   0.01267  Uiso   1.00
C13    C     0.79990   0.81070   0.52070   0.01267  Uiso   1.00
C14    C     0.07650   0.81450   0.81450   0.01267  Uiso   1.00
C15    C     0.69240   0.51640   0.89880   0.01267  Uiso   1.00
C16    C     0.75030   0.85720   0.31040   0.01267  Uiso   1.00
C17    C     0.40910   0.80140   0.89540   0.01267  Uiso   1.00
C18    C     0.69180   0.43510   0.89670   0.01267  Uiso   1.00
C19    C     0.73850   0.85130   0.64570   0.01267  Uiso   1.00
C20    C     0.80380   0.19090   0.90690   0.01267  Uiso   1.00
C21    C     0.80350   0.90570   0.27230   0.01267  Uiso   1.00
C22    C     0.53910   0.85030   0.85030   0.01267  Uiso   1.00
C23    C     0.73850   0.64570   0.85130   0.01267  Uiso   1.00
C24    C     0.08800   0.91160   0.91160   0.01267  Uiso   1.00
C25    C     0.69760   0.18580   0.81100   0.01267  Uiso   1.00
C26    C     0.74640   0.55930   0.85570   0.01267  Uiso   1.00
C27    C     0.20290   0.85840   0.85840   0.01267  Uiso   1.00
C28    C     0.74530   0.85170   0.39650   0.01267  Uiso   1.00
C29    C     0.40910   0.89540   0.80140   0.01267  Uiso   1.00
C30    C     0.69760   0.81100   0.18580   0.01267  Uiso   1.00
C31    C     0.80350   0.27230   0.90570   0.01267  Uiso   1.00
C32    C     0.95360   0.87120   0.87120   0.01267  Uiso   1.00
C33    C     0.15650   0.81020   0.81020   0.01267  Uiso   1.00
C34    C     0.33120   0.80290   0.89610   0.01267  Uiso   1.00
C35    C     0.04110   0.86460   0.86460   0.01267  Uiso   1.00
C36    C     0.69730   0.80990   0.26710   0.01267  Uiso   1.00
C37    C     0.74530   0.39650   0.85170   0.01267  Uiso   1.00
C38    C     0.69180   0.89670   0.43510   0.01267  Uiso   1.00
C39    C     0.33120   0.89610   0.80290   0.01267  Uiso   1.00
C40    C     0.16780   0.90870   0.90870   0.01267  Uiso   1.00
C41    C     0.69240   0.89880   0.51640   0.01267  Uiso   1.00
C42    C     0.28990   0.85190   0.85190   0.01267  Uiso   1.00
O1     O     0.79080   0.81280   0.67940   0.01267  Uiso   1.00
O2     O     0.92510   0.91220   0.91220   0.01267  Uiso   1.00
O3     O     0.74870   0.85280   0.85280   0.01267  Uiso   1.00
O4     O     0.91930   0.81660   0.81660   0.01267  Uiso   1.00
O5     O     0.57440   0.80490   0.89890   0.01267  Uiso   1.00
O6     O     0.79770   0.90470   0.03030   0.01267  Uiso   1.00
O7     O     0.70340   0.81190   0.02590   0.01267  Uiso   1.00
O8     O     0.79770   0.03030   0.90470   0.01267  Uiso   1.00
O9     O     0.57440   0.89890   0.80490   0.01267  Uiso   1.00
O10    O     0.79080   0.67940   0.81280   0.01267  Uiso   1.00
O11    O     0.69550   0.67640   0.90080   0.01267  Uiso   1.00
O12    O     0.70340   0.02590   0.81190   0.01267  Uiso   1.00
O13    O     0.69550   0.90080   0.67640   0.01267  Uiso   1.00
Zn5    Zn    0.31698   0.21362   0.08352   0.01267  Uiso   1.00
Zn6    Zn    0.18617   0.21218   0.21218   0.01267  Uiso   1.00
Zn7    Zn    0.31698   0.08352   0.21362   0.01267  Uiso   1.00
Zn8    Zn    0.18583   0.08053   0.08053   0.01267  Uiso   1.00
H25    H     0.34420   0.07040   0.45720   0.01267  Uiso   1.00
H26    H     0.33910   0.22320   0.70680   0.01267  Uiso   1.00
H27    H     0.56440   0.23590   0.07330   0.01267  Uiso   1.00
H28    H     0.80040   0.05800   0.05800   0.01267  Uiso   1.00
H29    H     0.56440   0.07330   0.23590   0.01267  Uiso   1.00
H30    H     0.33870   0.84380   0.22140   0.01267  Uiso   1.00
H31    H     0.34420   0.45720   0.07040   0.01267  Uiso   1.00
H32    H     0.16410   0.22220   0.58700   0.01267  Uiso   1.00
H33    H     0.16030   0.06180   0.69820   0.01267  Uiso   1.00
H34    H     0.15980   0.83500   0.06000   0.01267  Uiso   1.00
H35    H     0.15980   0.06000   0.83500   0.01267  Uiso   1.00
H36    H     0.82070   0.22500   0.22500   0.01267  Uiso   1.00
H37    H     0.33870   0.22140   0.84380   0.01267  Uiso   1.00
H38    H     0.34510   0.07380   0.59420   0.01267  Uiso   1.00
H39    H     0.16320   0.21880   0.45000   0.01267  Uiso   1.00
H40    H     0.69600   0.23240   0.07060   0.01267  Uiso   1.00
H41    H     0.16410   0.58700   0.22220   0.01267  Uiso   1.00
H42    H     0.93500   0.05320   0.05320   0.01267  Uiso   1.00
H43    H     0.16320   0.45000   0.21880   0.01267  Uiso   1.00
H44    H     0.95570   0.21860   0.21860   0.01267  Uiso   1.00
H45    H     0.16030   0.69820   0.06180   0.01267  Uiso   1.00
H46    H     0.69600   0.07060   0.23240   0.01267  Uiso   1.00
H47    H     0.34510   0.59420   0.07380   0.01267  Uiso   1.00
H48    H     0.33910   0.70680   0.22320   0.01267  Uiso   1.00
C43    C     0.04640   0.12880   0.12880   0.01267  Uiso   1.00
C44    C     0.54880   0.14870   0.14870   0.01267  Uiso   1.00
C45    C     0.30820   0.56490   0.10330   0.01267  Uiso   1.00
C46    C     0.71010   0.14810   0.14810   0.01267  Uiso   1.00
C47    C     0.20010   0.18930   0.47930   0.01267  Uiso   1.00
C48    C     0.95890   0.13540   0.13540   0.01267  Uiso   1.00
C49    C     0.19620   0.09310   0.80910   0.01267  Uiso   1.00
C50    C     0.91200   0.08840   0.08840   0.01267  Uiso   1.00
C51    C     0.66880   0.10390   0.19710   0.01267  Uiso   1.00
C52    C     0.25360   0.44070   0.14430   0.01267  Uiso   1.00
C53    C     0.30760   0.10120   0.48360   0.01267  Uiso   1.00
C54    C     0.20070   0.56060   0.19140   0.01267  Uiso   1.00
C55    C     0.30820   0.10330   0.56490   0.01267  Uiso   1.00
C56    C     0.25470   0.60350   0.14830   0.01267  Uiso   1.00
C57    C     0.46090   0.14970   0.14970   0.01267  Uiso   1.00
C58    C     0.30270   0.19010   0.73290   0.01267  Uiso   1.00
C59    C     0.19650   0.72770   0.09430   0.01267  Uiso   1.00
C60    C     0.24850   0.13950   0.93950   0.01267  Uiso   1.00
C61    C     0.24850   0.93950   0.13950   0.01267  Uiso   1.00
C62    C     0.59090   0.19860   0.10460   0.01267  Uiso   1.00
C63    C     0.92350   0.18550   0.18550   0.01267  Uiso   1.00
C64    C     0.30240   0.18900   0.81420   0.01267  Uiso   1.00
C65    C     0.19620   0.80910   0.09310   0.01267  Uiso   1.00
C66    C     0.59090   0.10460   0.19860   0.01267  Uiso   1.00
C67    C     0.20010   0.47930   0.18930   0.01267  Uiso   1.00
C68    C     0.24970   0.68960   0.14280   0.01267  Uiso   1.00
C69    C     0.26150   0.14870   0.35430   0.01267  Uiso   1.00
C70    C     0.30760   0.48360   0.10120   0.01267  Uiso   1.00
C71    C     0.66880   0.19710   0.10390   0.01267  Uiso   1.00
C72    C     0.20070   0.19140   0.56060   0.01267  Uiso   1.00
C73    C     0.25470   0.14830   0.60350   0.01267  Uiso   1.00
C74    C     0.25360   0.14430   0.44070   0.01267  Uiso   1.00
C75    C     0.30240   0.81420   0.18900   0.01267  Uiso   1.00
C76    C     0.83220   0.09130   0.09130   0.01267  Uiso   1.00
C77    C     0.26150   0.35430   0.14870   0.01267  Uiso   1.00
C78    C     0.24920   0.85230   0.14050   0.01267  Uiso   1.00
C79    C     0.84350   0.18980   0.18980   0.01267  Uiso   1.00
C80    C     0.24920   0.14050   0.85230   0.01267  Uiso   1.00
C81    C     0.79710   0.14160   0.14160   0.01267  Uiso   1.00
C82    C     0.19650   0.09430   0.72770   0.01267  Uiso   1.00
C83    C     0.30270   0.73290   0.19010   0.01267  Uiso   1.00
C84    C     0.24970   0.14280   0.68960   0.01267  Uiso   1.00
O14    O     0.29660   0.97410   0.18810   0.01267  Uiso   1.00
O15    O     0.20920   0.18720   0.32060   0.01267  Uiso   1.00
O16    O     0.30450   0.32360   0.09920   0.01267  Uiso   1.00
O17    O     0.07490   0.08780   0.08780   0.01267  Uiso   1.00
O18    O     0.20230   0.09530   0.96970   0.01267  Uiso   1.00
O19    O     0.25130   0.14720   0.14720   0.01267  Uiso   1.00
O20    O     0.29660   0.18810   0.97410   0.01267  Uiso   1.00
O21    O     0.42560   0.19510   0.10110   0.01267  Uiso   1.00
O22    O     0.42560   0.10110   0.19510   0.01267  Uiso   1.00
O23    O     0.20920   0.32060   0.18720   0.01267  Uiso   1.00
O24    O     0.30450   0.09920   0.32360   0.01267  Uiso   1.00
O25    O     0.20230   0.96970   0.09530   0.01267  Uiso   1.00
O26    O     0.08070   0.18340   0.18340   0.01267  Uiso   1.00
