data_ja512437u_si_002_clean
_audit_creation_date              2015-08-19
_audit_creation_method            'Materials Studio'
_symmetry_space_group_name_H-M    'P1'
_symmetry_Int_Tables_number       1
_symmetry_cell_setting            triclinic
loop_
_symmetry_equiv_pos_as_xyz
  x,y,z
_cell_length_a                    19.4690
_cell_length_b                    19.4690
_cell_length_c                    20.6804
_cell_angle_alpha                 90.0000
_cell_angle_beta                  90.0000
_cell_angle_gamma                 120.0000
loop_
_atom_site_label
_atom_site_type_symbol
_atom_site_fract_x
_atom_site_fract_y
_atom_site_fract_z
_atom_site_U_iso_or_equiv
_atom_site_adp_type
_atom_site_occupancy
Mn1    Mn    0.73046   0.37785   0.97551   0.01267  Uiso   1.00
Mn2    Mn    0.70781   0.43746   0.81206   0.01267  Uiso   1.00
Mn3    Mn    0.64739   0.26954   0.30885   0.01267  Uiso   1.00
Mn4    Mn    0.29219   0.56254   0.31206   0.01267  Uiso   1.00
Mn5    Mn    0.26954   0.62215   0.47551   0.01267  Uiso   1.00
Mn6    Mn    0.27035   0.70781   0.64539   0.01267  Uiso   1.00
Mn7    Mn    0.72965   0.29219   0.14539   0.01267  Uiso   1.00
Mn8    Mn    0.62215   0.35261   0.64218   0.01267  Uiso   1.00
Mn9    Mn    0.43746   0.72965   0.97873   0.01267  Uiso   1.00
Mn10   Mn    0.56254   0.27035   0.47873   0.01267  Uiso   1.00
Mn11   Mn    0.37785   0.64739   0.14218   0.01267  Uiso   1.00
Mn12   Mn    0.35261   0.73046   0.80885   0.01267  Uiso   1.00
H1     H     0.35880   0.22100   0.24617   0.01267  Uiso   1.00
H2     H     0.96710   0.25770   0.51940   0.01267  Uiso   1.00
H3     H     0.53750   0.88190   0.59527   0.01267  Uiso   1.00
H4     H     0.74290   0.54400   0.05367   0.01267  Uiso   1.00
H5     H     0.67420   0.93260   0.60067   0.01267  Uiso   1.00
H6     H     0.16670   0.22970   0.26037   0.01267  Uiso   1.00
H7     H     0.40380   0.04380   0.28193   0.01267  Uiso   1.00
H8     H     0.18460   0.10730   0.56037   0.01267  Uiso   1.00
H9     H     0.79070   0.63480   0.76407   0.01267  Uiso   1.00
H10    H     0.34440   0.46250   0.92860   0.01267  Uiso   1.00
H11    H     0.36520   0.15590   0.43073   0.01267  Uiso   1.00
H12    H     0.83000   0.68390   0.87020   0.01267  Uiso   1.00
H13    H     0.04380   0.64000   0.44860   0.01267  Uiso   1.00
H14    H     0.81540   0.89270   0.06037   0.01267  Uiso   1.00
H15    H     0.74030   0.04920   0.53050   0.01267  Uiso   1.00
H16    H     0.25710   0.45600   0.55367   0.01267  Uiso   1.00
H17    H     0.04860   0.31650   0.94420   0.01267  Uiso   1.00
H18    H     0.89270   0.07730   0.22703   0.01267  Uiso   1.00
H19    H     0.19890   0.74290   0.88700   0.01267  Uiso   1.00
H20    H     0.30890   0.25970   0.86383   0.01267  Uiso   1.00
H21    H     0.65560   0.53750   0.42860   0.01267  Uiso   1.00
H22    H     0.31610   0.14610   0.53687   0.01267  Uiso   1.00
H23    H     0.50500   0.72870   0.74067   0.01267  Uiso   1.00
H24    H     0.72870   0.22370   0.90733   0.01267  Uiso   1.00
H25    H     0.88440   0.20370   0.39410   0.01267  Uiso   1.00
H26    H     0.92270   0.81540   0.89370   0.01267  Uiso   1.00
H27    H     0.25970   0.95080   0.03050   0.01267  Uiso   1.00
H28    H     0.64120   0.77900   0.74617   0.01267  Uiso   1.00
H29    H     0.44530   0.34380   0.85563   0.01267  Uiso   1.00
H30    H     0.22370   0.49500   0.07400   0.01267  Uiso   1.00
H31    H     0.07730   0.18460   0.39370   0.01267  Uiso   1.00
H32    H     0.27130   0.77630   0.40733   0.01267  Uiso   1.00
H33    H     0.49500   0.27130   0.24067   0.01267  Uiso   1.00
H34    H     0.95620   0.36000   0.94860   0.01267  Uiso   1.00
H35    H     0.74230   0.70940   0.18607   0.01267  Uiso   1.00
H36    H     0.31930   0.11560   0.72743   0.01267  Uiso   1.00
H37    H     0.04920   0.30890   0.69717   0.01267  Uiso   1.00
H38    H     0.86220   0.64120   0.57950   0.01267  Uiso   1.00
H39    H     0.59620   0.95620   0.78193   0.01267  Uiso   1.00
H40    H     0.80110   0.25710   0.38700   0.01267  Uiso   1.00
H41    H     0.93700   0.16670   0.09370   0.01267  Uiso   1.00
H42    H     0.13780   0.35880   0.07950   0.01267  Uiso   1.00
H43    H     0.34380   0.89850   0.02230   0.01267  Uiso   1.00
H44    H     0.31650   0.26790   0.11087   0.01267  Uiso   1.00
H45    H     0.95080   0.69110   0.19717   0.01267  Uiso   1.00
H46    H     0.77030   0.93700   0.92703   0.01267  Uiso   1.00
H47    H     0.63480   0.84410   0.93073   0.01267  Uiso   1.00
H48    H     0.67200   0.06130   0.33033   0.01267  Uiso   1.00
H49    H     0.45600   0.19890   0.72033   0.01267  Uiso   1.00
H50    H     0.11560   0.79630   0.89410   0.01267  Uiso   1.00
H51    H     0.85390   0.17000   0.20353   0.01267  Uiso   1.00
H52    H     0.54400   0.80110   0.22033   0.01267  Uiso   1.00
H53    H     0.22100   0.86220   0.41283   0.01267  Uiso   1.00
H54    H     0.79630   0.68070   0.06077   0.01267  Uiso   1.00
H55    H     0.20370   0.31930   0.56077   0.01267  Uiso   1.00
H56    H     0.10730   0.92270   0.72703   0.01267  Uiso   1.00
H57    H     0.15590   0.79070   0.59740   0.01267  Uiso   1.00
H58    H     0.68070   0.88440   0.22743   0.01267  Uiso   1.00
H59    H     0.69110   0.74030   0.36383   0.01267  Uiso   1.00
H60    H     0.29060   0.03290   0.85273   0.01267  Uiso   1.00
H61    H     0.14610   0.83000   0.70353   0.01267  Uiso   1.00
H62    H     0.65620   0.10150   0.52230   0.01267  Uiso   1.00
H63    H     0.22970   0.06300   0.42703   0.01267  Uiso   1.00
H64    H     0.06300   0.83330   0.59370   0.01267  Uiso   1.00
H65    H     0.95140   0.68350   0.44420   0.01267  Uiso   1.00
H66    H     0.64000   0.59620   0.61527   0.01267  Uiso   1.00
H67    H     0.06740   0.74160   0.26733   0.01267  Uiso   1.00
H68    H     0.70940   0.96710   0.35273   0.01267  Uiso   1.00
H69    H     0.61070   0.67200   0.16367   0.01267  Uiso   1.00
H70    H     0.11810   0.65560   0.26193   0.01267  Uiso   1.00
H71    H     0.55470   0.65620   0.35563   0.01267  Uiso   1.00
H72    H     0.84410   0.20930   0.09740   0.01267  Uiso   1.00
H73    H     0.38930   0.32800   0.66367   0.01267  Uiso   1.00
H74    H     0.32800   0.93870   0.83033   0.01267  Uiso   1.00
H75    H     0.89850   0.55470   0.18897   0.01267  Uiso   1.00
H76    H     0.17000   0.31610   0.37020   0.01267  Uiso   1.00
H77    H     0.83330   0.77030   0.76037   0.01267  Uiso   1.00
H78    H     0.25770   0.29060   0.68607   0.01267  Uiso   1.00
H79    H     0.06130   0.38930   0.49700   0.01267  Uiso   1.00
H80    H     0.93260   0.25840   0.76733   0.01267  Uiso   1.00
H81    H     0.20930   0.36520   0.26407   0.01267  Uiso   1.00
H82    H     0.10150   0.44530   0.68897   0.01267  Uiso   1.00
H83    H     0.77900   0.13780   0.91283   0.01267  Uiso   1.00
H84    H     0.77630   0.50500   0.57400   0.01267  Uiso   1.00
H85    H     0.68390   0.85390   0.03687   0.01267  Uiso   1.00
H86    H     0.32580   0.06740   0.10067   0.01267  Uiso   1.00
H87    H     0.93870   0.61070   0.99700   0.01267  Uiso   1.00
H88    H     0.73210   0.04860   0.77753   0.01267  Uiso   1.00
H89    H     0.36000   0.40380   0.11527   0.01267  Uiso   1.00
H90    H     0.25840   0.32580   0.93400   0.01267  Uiso   1.00
H91    H     0.46250   0.11810   0.09527   0.01267  Uiso   1.00
H92    H     0.88190   0.34440   0.76193   0.01267  Uiso   1.00
H93    H     0.74160   0.67420   0.43400   0.01267  Uiso   1.00
H94    H     0.03290   0.74230   0.01940   0.01267  Uiso   1.00
H95    H     0.68350   0.73210   0.61087   0.01267  Uiso   1.00
H96    H     0.26790   0.95140   0.27753   0.01267  Uiso   1.00
C1     C     0.23073   0.34544   0.23274   0.01267  Uiso   1.00
C2     C     0.99302   0.70568   0.47512   0.01267  Uiso   1.00
C3     C     0.32012   0.36829   0.14425   0.01267  Uiso   1.00
C4     C     0.20320   0.14817   0.18008   0.01267  Uiso   1.00
C5     C     0.57387   0.78875   0.24964   0.01267  Uiso   1.00
C6     C     0.17828   0.87841   0.96380   0.01267  Uiso   1.00
C7     C     0.24711   0.90846   0.00139   0.01267  Uiso   1.00
C8     C     0.09154   0.33865   0.66806   0.01267  Uiso   1.00
C9     C     0.70013   0.82172   0.29713   0.01267  Uiso   1.00
C10    C     0.12872   0.30438   0.40039   0.01267  Uiso   1.00
C11    C     0.21986   0.55260   0.61836   0.01267  Uiso   1.00
C12    C     0.76927   0.53928   0.54553   0.01267  Uiso   1.00
C13    C     0.41990   0.29713   0.83002   0.01267  Uiso   1.00
C14    C     0.05503   0.20320   0.01341   0.01267  Uiso   1.00
C15    C     0.20531   0.26478   0.23044   0.01267  Uiso   1.00
C16    C     0.12411   0.36577   0.43070   0.01267  Uiso   1.00
C17    C     0.82434   0.12872   0.23372   0.01267  Uiso   1.00
C18    C     0.19955   0.70744   0.33422   0.01267  Uiso   1.00
C19    C     0.79680   0.85183   0.68008   0.01267  Uiso   1.00
C20    C     0.81461   0.53542   0.12108   0.01267  Uiso   1.00
C21    C     0.92669   0.77379   0.91404   0.01267  Uiso   1.00
C22    C     0.28734   0.99302   0.30845   0.01267  Uiso   1.00
C23    C     0.86540   0.75786   0.50896   0.01267  Uiso   1.00
C24    C     0.45021   0.26651   0.58180   0.01267  Uiso   1.00
C25    C     0.82993   0.95374   0.30386   0.01267  Uiso   1.00
C26    C     0.63171   0.95183   0.81091   0.01267  Uiso   1.00
C27    C     0.36829   0.04817   0.31091   0.01267  Uiso   1.00
C28    C     0.28742   0.39706   0.18916   0.01267  Uiso   1.00
C29    C     0.89101   0.25113   0.79553   0.01267  Uiso   1.00
C30    C     0.67988   0.63171   0.64425   0.01267  Uiso   1.00
C31    C     0.94497   0.79680   0.51341   0.01267  Uiso   1.00
C32    C     0.54979   0.73349   0.08180   0.01267  Uiso   1.00
C33    C     0.53542   0.72081   0.28774   0.01267  Uiso   1.00
C34    C     0.23051   0.65170   0.32963   0.01267  Uiso   1.00
C35    C     0.34761   0.28363   0.64208   0.01267  Uiso   1.00
C36    C     0.79469   0.73522   0.73044   0.01267  Uiso   1.00
C37    C     0.77379   0.84710   0.08071   0.01267  Uiso   1.00
C38    C     0.46072   0.22999   0.21220   0.01267  Uiso   1.00
C39    C     0.73522   0.94053   0.89710   0.01267  Uiso   1.00
C40    C     0.75786   0.89246   0.67563   0.01267  Uiso   1.00
C41    C     0.09200   0.09231   0.00273   0.01267  Uiso   1.00
C42    C     0.86104   0.30239   0.79255   0.01267  Uiso   1.00
C43    C     0.42613   0.21125   0.74964   0.01267  Uiso   1.00
C44    C     0.86004   0.18885   0.83998   0.01267  Uiso   1.00
C45    C     0.87841   0.70013   0.13047   0.01267  Uiso   1.00
C46    C     0.00031   0.90800   0.33606   0.01267  Uiso   1.00
C47    C     0.91337   0.78713   0.13826   0.01267  Uiso   1.00
C48    C     0.77001   0.23073   0.87886   0.01267  Uiso   1.00
C49    C     0.51742   0.82673   0.85614   0.01267  Uiso   1.00
C50    C     0.67119   0.86004   0.67332   0.01267  Uiso   1.00
C51    C     0.00798   0.26940   0.48885   0.01267  Uiso   1.00
C52    C     0.26651   0.81630   0.74846   0.01267  Uiso   1.00
C53    C     0.75834   0.12411   0.26403   0.01267  Uiso   1.00
C54    C     0.22999   0.76927   0.37886   0.01267  Uiso   1.00
C55    C     0.20810   0.19644   0.62424   0.01267  Uiso   1.00
C56    C     0.17327   0.69069   0.52281   0.01267  Uiso   1.00
C57    C     0.71637   0.06398   0.30874   0.01267  Uiso   1.00
C58    C     0.13896   0.69761   0.29255   0.01267  Uiso   1.00
C59    C     0.75289   0.09154   0.50139   0.01267  Uiso   1.00
C60    C     0.65527   0.83854   0.25400   0.01267  Uiso   1.00
C61    C     0.88529   0.23073   0.06607   0.01267  Uiso   1.00
C62    C     0.13460   0.24214   0.00896   0.01267  Uiso   1.00
C63    C     0.66726   0.21986   0.45169   0.01267  Uiso   1.00
C64    C     0.05947   0.79469   0.56377   0.01267  Uiso   1.00
C65    C     0.58010   0.70287   0.33002   0.01267  Uiso   1.00
C66    C     0.72081   0.18539   0.45441   0.01267  Uiso   1.00
C67    C     0.79971   0.17953   0.88197   0.01267  Uiso   1.00
C68    C     0.78014   0.44740   0.11836   0.01267  Uiso   1.00
C69    C     0.70568   0.71266   0.64179   0.01267  Uiso   1.00
C70    C     0.12624   0.91337   0.97159   0.01267  Uiso   1.00
C71    C     0.16146   0.81673   0.92067   0.01267  Uiso   1.00
C72    C     0.30931   0.48258   0.18948   0.01267  Uiso   1.00
C73    C     0.14817   0.94497   0.34674   0.01267  Uiso   1.00
C74    C     0.82673   0.30931   0.02281   0.01267  Uiso   1.00
C75    C     0.87619   0.82993   0.13720   0.01267  Uiso   1.00
C76    C     0.10754   0.86540   0.34229   0.01267  Uiso   1.00
C77    C     0.29713   0.87723   0.99669   0.01267  Uiso   1.00
C78    C     0.57881   0.23051   0.16297   0.01267  Uiso   1.00
C79    C     0.27919   0.81461   0.95441   0.01267  Uiso   1.00
C80    C     0.08663   0.21287   0.63826   0.01267  Uiso   1.00
C81    C     0.89036   0.28742   0.02249   0.01267  Uiso   1.00
C82    C     0.17566   0.87128   0.73372   0.01267  Uiso   1.00
C83    C     0.82047   0.62018   0.54864   0.01267  Uiso   1.00
C84    C     0.39706   0.10964   0.35582   0.01267  Uiso   1.00
C85    C     0.98834   0.79190   0.95757   0.01267  Uiso   1.00
C86    C     0.42119   0.76949   0.66297   0.01267  Uiso   1.00
C87    C     0.22621   0.15290   0.58071   0.01267  Uiso   1.00
C88    C     0.29987   0.17828   0.79713   0.01267  Uiso   1.00
C89    C     0.26142   0.99202   0.82218   0.01267  Uiso   1.00
C90    C     0.76949   0.34830   0.82963   0.01267  Uiso   1.00
C91    C     0.34473   0.16146   0.75400   0.01267  Uiso   1.00
C92    C     0.37982   0.20029   0.21531   0.01267  Uiso   1.00
C93    C     0.70744   0.50789   0.50089   0.01267  Uiso   1.00
C94    C     0.17953   0.37982   0.04864   0.01267  Uiso   1.00
C95    C     0.60294   0.89036   0.85582   0.01267  Uiso   1.00
C96    C     0.63423   0.75834   0.09737   0.01267  Uiso   1.00
C97    C     0.18370   0.45021   0.41513   0.01267  Uiso   1.00
C98    C     0.33274   0.78014   0.95169   0.01267  Uiso   1.00
C99    C     0.65456   0.88529   0.89940   0.01267  Uiso   1.00
C100   C     0.20029   0.82047   0.38197   0.01267  Uiso   1.00
C101   C     0.73858   0.00798   0.32218   0.01267  Uiso   1.00
C102   C     0.17007   0.04626   0.80386   0.01267  Uiso   1.00
C103   C     0.99969   0.09200   0.83606   0.01267  Uiso   1.00
C104   C     0.50789   0.80045   0.66756   0.01267  Uiso   1.00
C105   C     0.30438   0.17566   0.56706   0.01267  Uiso   1.00
C106   C     0.82172   0.12159   0.46380   0.01267  Uiso   1.00
C107   C     0.09031   0.02371   0.99445   0.01267  Uiso   1.00
C108   C     0.65170   0.42119   0.49630   0.01267  Uiso   1.00
C109   C     0.07331   0.22621   0.41404   0.01267  Uiso   1.00
C110   C     0.29432   0.28734   0.14179   0.01267  Uiso   1.00
C111   C     0.12159   0.29987   0.63047   0.01267  Uiso   1.00
C112   C     0.90800   0.90769   0.50273   0.01267  Uiso   1.00
C113   C     0.93340   0.90969   0.32778   0.01267  Uiso   1.00
C114   C     0.18885   0.32881   0.00665   0.01267  Uiso   1.00
C115   C     0.87376   0.08663   0.47159   0.01267  Uiso   1.00
C116   C     0.90769   0.99969   0.66940   0.01267  Uiso   1.00
C117   C     0.76371   0.76507   0.68433   0.01267  Uiso   1.00
C118   C     0.24166   0.87589   0.76403   0.01267  Uiso   1.00
C119   C     0.11471   0.76927   0.56607   0.01267  Uiso   1.00
C120   C     0.13996   0.81115   0.33998   0.01267  Uiso   1.00
C121   C     0.81673   0.65527   0.08734   0.01267  Uiso   1.00
C122   C     0.95183   0.32012   0.97758   0.01267  Uiso   1.00
C123   C     0.26478   0.05947   0.39710   0.01267  Uiso   1.00
C124   C     0.73060   0.73858   0.15552   0.01267  Uiso   1.00
C125   C     0.34830   0.57881   0.99630   0.01267  Uiso   1.00
C126   C     0.99202   0.73060   0.98885   0.01267  Uiso   1.00
C127   C     0.10964   0.71258   0.52249   0.01267  Uiso   1.00
C128   C     0.90846   0.66135   0.16806   0.01267  Uiso   1.00
C129   C     0.12381   0.17007   0.63720   0.01267  Uiso   1.00
C130   C     0.33865   0.24711   0.83472   0.01267  Uiso   1.00
C131   C     0.12277   0.41990   0.66336   0.01267  Uiso   1.00
C132   C     0.80045   0.29256   0.83422   0.01267  Uiso   1.00
C133   C     0.81630   0.54979   0.91513   0.01267  Uiso   1.00
C134   C     0.29256   0.49211   0.00089   0.01267  Uiso   1.00
C135   C     0.80356   0.01166   0.29090   0.01267  Uiso   1.00
C136   C     0.36012   0.10899   0.12887   0.01267  Uiso   1.00
C137   C     0.87723   0.58010   0.16336   0.01267  Uiso   1.00
C138   C     0.55260   0.33274   0.78502   0.01267  Uiso   1.00
C139   C     0.34544   0.11471   0.39940   0.01267  Uiso   1.00
C140   C     0.78512   0.57387   0.08298   0.01267  Uiso   1.00
C141   C     0.95374   0.12381   0.47053   0.01267  Uiso   1.00
C142   C     0.01166   0.20810   0.45757   0.01267  Uiso   1.00
C143   C     0.44135   0.13896   0.12589   0.01267  Uiso   1.00
C144   C     0.04817   0.67988   0.47758   0.01267  Uiso   1.00
C145   C     0.28363   0.93602   0.80874   0.01267  Uiso   1.00
C146   C     0.79190   0.80356   0.12424   0.01267  Uiso   1.00
C147   C     0.78713   0.87376   0.30492   0.01267  Uiso   1.00
C148   C     0.84710   0.07331   0.24737   0.01267  Uiso   1.00
C149   C     0.25113   0.36012   0.96220   0.01267  Uiso   1.00
C150   C     0.94053   0.20531   0.06377   0.01267  Uiso   1.00
C151   C     0.19644   0.98834   0.79090   0.01267  Uiso   1.00
C152   C     0.44740   0.66726   0.28502   0.01267  Uiso   1.00
C153   C     0.36577   0.24166   0.59737   0.01267  Uiso   1.00
C154   C     0.65239   0.71637   0.14208   0.01267  Uiso   1.00
C155   C     0.76927   0.65456   0.73274   0.01267  Uiso   1.00
C156   C     0.04626   0.87619   0.97053   0.01267  Uiso   1.00
C157   C     0.87589   0.63423   0.93070   0.01267  Uiso   1.00
C158   C     0.71258   0.60294   0.68916   0.01267  Uiso   1.00
C159   C     0.06660   0.09031   0.82778   0.01267  Uiso   1.00
C160   C     0.18539   0.46458   0.62108   0.01267  Uiso   1.00
C161   C     0.93602   0.65239   0.97541   0.01267  Uiso   1.00
C162   C     0.00136   0.23629   0.01766   0.01267  Uiso   1.00
C163   C     0.18327   0.34473   0.58734   0.01267  Uiso   1.00
C164   C     0.78875   0.21488   0.41631   0.01267  Uiso   1.00
C165   C     0.55865   0.86104   0.62589   0.01267  Uiso   1.00
C166   C     0.90969   0.97629   0.49445   0.01267  Uiso   1.00
C167   C     0.97629   0.06660   0.66112   0.01267  Uiso   1.00
C168   C     0.26940   0.26142   0.65552   0.01267  Uiso   1.00
C169   C     0.63988   0.89101   0.62887   0.01267  Uiso   1.00
C170   C     0.70287   0.12277   0.49669   0.01267  Uiso   1.00
C171   C     0.23073   0.46072   0.04553   0.01267  Uiso   1.00
C172   C     0.02371   0.93340   0.16112   0.01267  Uiso   1.00
C173   C     0.71266   0.00698   0.80845   0.01267  Uiso   1.00
C174   C     0.23629   0.23493   0.18433   0.01267  Uiso   1.00
C175   C     0.30239   0.44135   0.95922   0.01267  Uiso   1.00
C176   C     0.48258   0.17327   0.35614   0.01267  Uiso   1.00
C177   C     0.81115   0.67119   0.50665   0.01267  Uiso   1.00
C178   C     0.69761   0.55865   0.45922   0.01267  Uiso   1.00
C179   C     0.21287   0.12624   0.80492   0.01267  Uiso   1.00
C180   C     0.24214   0.10754   0.17563   0.01267  Uiso   1.00
C181   C     0.87128   0.69562   0.90039   0.01267  Uiso   1.00
C182   C     0.32881   0.13996   0.17332   0.01267  Uiso   1.00
C183   C     0.15290   0.92669   0.74737   0.01267  Uiso   1.00
C184   C     0.21488   0.42613   0.58298   0.01267  Uiso   1.00
C185   C     0.06398   0.34761   0.47541   0.01267  Uiso   1.00
C186   C     0.85183   0.05503   0.84674   0.01267  Uiso   1.00
C187   C     0.89246   0.13460   0.84229   0.01267  Uiso   1.00
C188   C     0.69069   0.51742   0.68948   0.01267  Uiso   1.00
C189   C     0.46458   0.27919   0.78774   0.01267  Uiso   1.00
C190   C     0.49211   0.19955   0.16756   0.01267  Uiso   1.00
C191   C     0.23493   0.99864   0.35099   0.01267  Uiso   1.00
C192   C     0.09231   0.00031   0.16940   0.01267  Uiso   1.00
C193   C     0.73349   0.18370   0.24846   0.01267  Uiso   1.00
C194   C     0.99864   0.76371   0.51766   0.01267  Uiso   1.00
C195   C     0.69562   0.82434   0.06706   0.01267  Uiso   1.00
C196   C     0.00698   0.29432   0.97512   0.01267  Uiso   1.00
C197   C     0.62018   0.79971   0.71531   0.01267  Uiso   1.00
C198   C     0.66135   0.75289   0.33472   0.01267  Uiso   1.00
C199   C     0.76507   0.00136   0.85099   0.01267  Uiso   1.00
C200   C     0.53928   0.77001   0.71220   0.01267  Uiso   1.00
C201   C     0.74887   0.63988   0.46220   0.01267  Uiso   1.00
C202   C     0.10899   0.74887   0.29553   0.01267  Uiso   1.00
C203   C     0.83854   0.18327   0.42067   0.01267  Uiso   1.00
C204   C     0.21125   0.78512   0.91631   0.01267  Uiso   1.00
S1     S     0.17609   0.01599   0.98775   0.01267  Uiso   1.00
S2     S     0.09281   0.99376   0.34761   0.01267  Uiso   1.00
S3     S     0.93270   0.93113   0.15611   0.01267  Uiso   1.00
S4     S     0.90095   0.90719   0.68095   0.01267  Uiso   1.00
S5     S     0.90719   0.00624   0.84761   0.01267  Uiso   1.00
S6     S     0.81924   0.81596   0.50561   0.01267  Uiso   1.00
S7     S     0.00328   0.81924   0.33894   0.01267  Uiso   1.00
S8     S     0.93113   0.99843   0.32277   0.01267  Uiso   1.00
S9     S     0.98401   0.16010   0.65442   0.01267  Uiso   1.00
S10    S     0.18404   0.00328   0.17228   0.01267  Uiso   1.00
S11    S     0.09905   0.09281   0.18095   0.01267  Uiso   1.00
S12    S     0.81596   0.99672   0.67228   0.01267  Uiso   1.00
S13    S     0.99376   0.90095   0.51428   0.01267  Uiso   1.00
S14    S     0.00624   0.09905   0.01428   0.01267  Uiso   1.00
S15    S     0.00157   0.93270   0.98944   0.01267  Uiso   1.00
S16    S     0.99843   0.06730   0.48944   0.01267  Uiso   1.00
S17    S     0.18076   0.18404   0.00561   0.01267  Uiso   1.00
S18    S     0.01599   0.83990   0.15442   0.01267  Uiso   1.00
S19    S     0.06730   0.06887   0.65611   0.01267  Uiso   1.00
S20    S     0.82391   0.98401   0.48775   0.01267  Uiso   1.00
S21    S     0.99672   0.18076   0.83894   0.01267  Uiso   1.00
S22    S     0.06887   0.00157   0.82277   0.01267  Uiso   1.00
S23    S     0.16010   0.17609   0.82108   0.01267  Uiso   1.00
S24    S     0.83990   0.82391   0.32108   0.01267  Uiso   1.00
O1     O     0.80399   0.41537   0.15962   0.01267  Uiso   1.00
O2     O     0.63687   0.46935   0.65262   0.01267  Uiso   1.00
O3     O     0.31755   0.81473   0.78426   0.01267  Uiso   1.00
O4     O     0.61138   0.19601   0.49295   0.01267  Uiso   1.00
O5     O     0.77301   0.53809   0.86618   0.01267  Uiso   1.00
O6     O     0.59359   0.32116   0.74382   0.01267  Uiso   1.00
O7     O     0.50115   0.23187   0.39316   0.01267  Uiso   1.00
O8     O     0.20771   0.60157   0.28441   0.01267  Uiso   1.00
O9     O     0.32116   0.72757   0.91049   0.01267  Uiso   1.00
O10    O     0.28110   0.65539   0.37067   0.01267  Uiso   1.00
O11    O     0.81473   0.49718   0.95093   0.01267  Uiso   1.00
O12    O     0.39386   0.79229   0.61775   0.01267  Uiso   1.00
O13    O     0.50282   0.31755   0.61760   0.01267  Uiso   1.00
O14    O     0.60614   0.20771   0.11775   0.01267  Uiso   1.00
O15    O     0.53065   0.16752   0.31928   0.01267  Uiso   1.00
O16    O     0.68245   0.18527   0.28426   0.01267  Uiso   1.00
O17    O     0.71890   0.34461   0.87067   0.01267  Uiso   1.00
O18    O     0.49885   0.76813   0.89316   0.01267  Uiso   1.00
O19    O     0.76508   0.22699   0.19951   0.01267  Uiso   1.00
O20    O     0.36313   0.53065   0.15262   0.01267  Uiso   1.00
O21    O     0.40641   0.67884   0.24382   0.01267  Uiso   1.00
O22    O     0.22699   0.46191   0.36618   0.01267  Uiso   1.00
O23    O     0.19601   0.58463   0.65962   0.01267  Uiso   1.00
O24    O     0.34461   0.62571   0.03734   0.01267  Uiso   1.00
O25    O     0.73072   0.49885   0.72650   0.01267  Uiso   1.00
O26    O     0.27243   0.59359   0.57716   0.01267  Uiso   1.00
O27    O     0.65539   0.37429   0.53734   0.01267  Uiso   1.00
O28    O     0.46191   0.23492   0.53285   0.01267  Uiso   1.00
O29    O     0.39843   0.60614   0.95108   0.01267  Uiso   1.00
O30    O     0.37429   0.71890   0.70401   0.01267  Uiso   1.00
O31    O     0.76813   0.26928   0.05983   0.01267  Uiso   1.00
O32    O     0.60157   0.39386   0.45108   0.01267  Uiso   1.00
O33    O     0.16752   0.63687   0.48595   0.01267  Uiso   1.00
O34    O     0.49718   0.68245   0.11760   0.01267  Uiso   1.00
O35    O     0.26928   0.50115   0.22650   0.01267  Uiso   1.00
O36    O     0.62571   0.28110   0.20401   0.01267  Uiso   1.00
O37    O     0.41537   0.61138   0.32628   0.01267  Uiso   1.00
O38    O     0.83248   0.36313   0.98595   0.01267  Uiso   1.00
O39    O     0.67884   0.27243   0.41049   0.01267  Uiso   1.00
O40    O     0.23187   0.73072   0.55983   0.01267  Uiso   1.00
O41    O     0.72757   0.40641   0.07716   0.01267  Uiso   1.00
O42    O     0.46935   0.83248   0.81928   0.01267  Uiso   1.00
O43    O     0.53809   0.76508   0.03285   0.01267  Uiso   1.00
O44    O     0.58463   0.38862   0.82628   0.01267  Uiso   1.00
O45    O     0.38862   0.80399   0.99295   0.01267  Uiso   1.00
O46    O     0.23492   0.77301   0.69951   0.01267  Uiso   1.00
O47    O     0.79229   0.39843   0.78441   0.01267  Uiso   1.00
O48    O     0.18527   0.50282   0.45093   0.01267  Uiso   1.00
