data_ja5b02999_si_006_clean
_audit_creation_date              2015-08-19
_audit_creation_method            'Materials Studio'
_symmetry_space_group_name_H-M    'P1'
_symmetry_Int_Tables_number       1
_symmetry_cell_setting            triclinic
loop_
_symmetry_equiv_pos_as_xyz
  x,y,z
_cell_length_a                    20.2990
_cell_length_b                    20.3310
_cell_length_c                    20.3310
_cell_angle_alpha                 90.0000
_cell_angle_beta                  90.0000
_cell_angle_gamma                 90.0000
loop_
_atom_site_label
_atom_site_type_symbol
_atom_site_fract_x
_atom_site_fract_y
_atom_site_fract_z
_atom_site_U_iso_or_equiv
_atom_site_adp_type
_atom_site_occupancy
Na1    Na    0.86500   0.81460   0.81460   0.01267  Uiso   1.00
Na2    Na    0.13500   0.81460   0.81460   0.01267  Uiso   1.00
Na3    Na    0.86500   0.18540   0.18540   0.01267  Uiso   1.00
Na4    Na    0.86500   0.18540   0.81460   0.01267  Uiso   1.00
Na5    Na    0.86500   0.81460   0.18540   0.01267  Uiso   1.00
Na6    Na    0.13500   0.18540   0.81460   0.01267  Uiso   1.00
Na7    Na    0.13500   0.81460   0.18540   0.01267  Uiso   1.00
Na8    Na    0.13500   0.18540   0.18540   0.01267  Uiso   1.00
Cd1    Cd    0.00000   0.90290   0.90290   0.01267  Uiso   1.00
Cd2    Cd    0.00000   0.09710   0.90290   0.01267  Uiso   1.00
Cd3    Cd    0.00000   0.09710   0.09710   0.01267  Uiso   1.00
Cd4    Cd    0.00000   0.90290   0.09710   0.01267  Uiso   1.00
Cd5    Cd    0.50000   0.94812   0.50000   0.01267  Uiso   1.00
Cd6    Cd    0.50000   0.50000   0.05188   0.01267  Uiso   1.00
Cd7    Cd    0.50000   0.05188   0.50000   0.01267  Uiso   1.00
Cd8    Cd    0.50000   0.50000   0.94812   0.01267  Uiso   1.00
H1     H     0.22930   0.90040   0.75330   0.01267  Uiso   1.00
H2     H     0.77070   0.90040   0.24670   0.01267  Uiso   1.00
H3     H     0.22930   0.75330   0.09960   0.01267  Uiso   1.00
H4     H     0.74490   0.00000   0.43950   0.01267  Uiso   1.00
H5     H     0.22930   0.09960   0.24670   0.01267  Uiso   1.00
H6     H     0.31990   0.68200   0.09970   0.01267  Uiso   1.00
H7     H     0.74490   0.43950   0.00000   0.01267  Uiso   1.00
H8     H     0.74490   0.00000   0.56050   0.01267  Uiso   1.00
H9     H     0.68010   0.09970   0.31800   0.01267  Uiso   1.00
H10    H     0.68010   0.68200   0.09970   0.01267  Uiso   1.00
H11    H     0.22930   0.75330   0.90040   0.01267  Uiso   1.00
H12    H     0.68010   0.68200   0.90030   0.01267  Uiso   1.00
H13    H     0.56060   0.00000   0.74770   0.01267  Uiso   1.00
H14    H     0.31990   0.31800   0.09970   0.01267  Uiso   1.00
H15    H     0.25510   0.43950   0.00000   0.01267  Uiso   1.00
H16    H     0.43940   0.00000   0.25230   0.01267  Uiso   1.00
H17    H     0.77070   0.75330   0.90040   0.01267  Uiso   1.00
H18    H     0.25510   0.00000   0.43950   0.01267  Uiso   1.00
H19    H     0.77070   0.09960   0.75330   0.01267  Uiso   1.00
H20    H     0.68010   0.31800   0.09970   0.01267  Uiso   1.00
H21    H     0.31990   0.09970   0.31800   0.01267  Uiso   1.00
H22    H     0.31990   0.09970   0.68200   0.01267  Uiso   1.00
H23    H     0.31990   0.68200   0.90030   0.01267  Uiso   1.00
H24    H     0.56060   0.74770   0.00000   0.01267  Uiso   1.00
H25    H     0.68010   0.09970   0.68200   0.01267  Uiso   1.00
H26    H     0.56060   0.25230   0.00000   0.01267  Uiso   1.00
H27    H     0.31990   0.31800   0.90030   0.01267  Uiso   1.00
H28    H     0.25510   0.00000   0.56050   0.01267  Uiso   1.00
H29    H     0.31990   0.90030   0.68200   0.01267  Uiso   1.00
H30    H     0.74490   0.56050   0.00000   0.01267  Uiso   1.00
H31    H     0.68010   0.31800   0.90030   0.01267  Uiso   1.00
H32    H     0.68010   0.90030   0.68200   0.01267  Uiso   1.00
H33    H     0.22930   0.09960   0.75330   0.01267  Uiso   1.00
H34    H     0.77070   0.24670   0.09960   0.01267  Uiso   1.00
H35    H     0.77070   0.24670   0.90040   0.01267  Uiso   1.00
H36    H     0.43940   0.00000   0.74770   0.01267  Uiso   1.00
H37    H     0.25510   0.56050   0.00000   0.01267  Uiso   1.00
H38    H     0.43940   0.25230   0.00000   0.01267  Uiso   1.00
H39    H     0.77070   0.09960   0.24670   0.01267  Uiso   1.00
H40    H     0.43940   0.74770   0.00000   0.01267  Uiso   1.00
H41    H     0.22930   0.24670   0.09960   0.01267  Uiso   1.00
H42    H     0.22930   0.24670   0.90040   0.01267  Uiso   1.00
H43    H     0.22930   0.90040   0.24670   0.01267  Uiso   1.00
H44    H     0.68010   0.90030   0.31800   0.01267  Uiso   1.00
H45    H     0.56060   0.00000   0.25230   0.01267  Uiso   1.00
H46    H     0.77070   0.75330   0.09960   0.01267  Uiso   1.00
H47    H     0.31990   0.90030   0.31800   0.01267  Uiso   1.00
H48    H     0.77070   0.90040   0.75330   0.01267  Uiso   1.00
C1     C     0.30050   0.05924   0.30480   0.01267  Uiso   1.00
C2     C     0.44519   0.64650   0.00000   0.01267  Uiso   1.00
C3     C     0.24670   0.73750   0.05922   0.01267  Uiso   1.00
C4     C     0.69950   0.05924   0.30480   0.01267  Uiso   1.00
C5     C     0.35650   0.55476   0.00000   0.01267  Uiso   1.00
C6     C     0.67420   0.00000   0.32780   0.01267  Uiso   1.00
C7     C     0.38040   0.00000   0.37970   0.01267  Uiso   1.00
C8     C     0.24670   0.26250   0.94078   0.01267  Uiso   1.00
C9     C     0.67420   0.32780   0.00000   0.01267  Uiso   1.00
C10    C     0.53337   0.70970   0.00000   0.01267  Uiso   1.00
C11    C     0.16100   0.20160   0.00000   0.01267  Uiso   1.00
C12    C     0.78160   0.24330   0.00000   0.01267  Uiso   1.00
C13    C     0.32580   0.00000   0.67220   0.01267  Uiso   1.00
C14    C     0.83900   0.20160   0.00000   0.01267  Uiso   1.00
C15    C     0.83900   0.79840   0.00000   0.01267  Uiso   1.00
C16    C     0.75330   0.26250   0.94078   0.01267  Uiso   1.00
C17    C     0.38040   0.37970   0.00000   0.01267  Uiso   1.00
C18    C     0.16100   0.00000   0.79840   0.01267  Uiso   1.00
C19    C     0.69950   0.30480   0.94076   0.01267  Uiso   1.00
C20    C     0.35650   0.00000   0.55476   0.01267  Uiso   1.00
C21    C     0.75330   0.94078   0.26250   0.01267  Uiso   1.00
C22    C     0.75330   0.73750   0.94078   0.01267  Uiso   1.00
C23    C     0.44519   0.00000   0.35350   0.01267  Uiso   1.00
C24    C     0.46663   0.29030   0.00000   0.01267  Uiso   1.00
C25    C     0.75330   0.73750   0.05922   0.01267  Uiso   1.00
C26    C     0.30050   0.30480   0.05924   0.01267  Uiso   1.00
C27    C     0.38040   0.62030   0.00000   0.01267  Uiso   1.00
C28    C     0.53337   0.00000   0.70970   0.01267  Uiso   1.00
C29    C     0.24670   0.73750   0.94078   0.01267  Uiso   1.00
C30    C     0.46663   0.00000   0.70970   0.01267  Uiso   1.00
C31    C     0.55481   0.00000   0.64650   0.01267  Uiso   1.00
C32    C     0.61960   0.37970   0.00000   0.01267  Uiso   1.00
C33    C     0.21840   0.24330   0.00000   0.01267  Uiso   1.00
C34    C     0.64350   0.00000   0.44524   0.01267  Uiso   1.00
C35    C     0.78160   0.00000   0.75670   0.01267  Uiso   1.00
C36    C     0.75330   0.05922   0.73750   0.01267  Uiso   1.00
C37    C     0.78160   0.00000   0.24330   0.01267  Uiso   1.00
C38    C     0.69950   0.30480   0.05924   0.01267  Uiso   1.00
C39    C     0.35650   0.44524   0.00000   0.01267  Uiso   1.00
C40    C     0.67420   0.67220   0.00000   0.01267  Uiso   1.00
C41    C     0.70690   0.53332   0.00000   0.01267  Uiso   1.00
C42    C     0.75330   0.94078   0.73750   0.01267  Uiso   1.00
C43    C     0.53337   0.00000   0.29030   0.01267  Uiso   1.00
C44    C     0.44519   0.00000   0.64650   0.01267  Uiso   1.00
C45    C     0.61960   0.00000   0.62030   0.01267  Uiso   1.00
C46    C     0.16100   0.00000   0.20160   0.01267  Uiso   1.00
C47    C     0.21840   0.00000   0.75670   0.01267  Uiso   1.00
C48    C     0.64350   0.00000   0.55476   0.01267  Uiso   1.00
C49    C     0.83900   0.00000   0.20160   0.01267  Uiso   1.00
C50    C     0.46663   0.70970   0.00000   0.01267  Uiso   1.00
C51    C     0.75330   0.26250   0.05922   0.01267  Uiso   1.00
C52    C     0.24670   0.94078   0.26250   0.01267  Uiso   1.00
C53    C     0.30050   0.69520   0.05924   0.01267  Uiso   1.00
C54    C     0.30050   0.94076   0.69520   0.01267  Uiso   1.00
C55    C     0.32580   0.32780   0.00000   0.01267  Uiso   1.00
C56    C     0.69950   0.69520   0.05924   0.01267  Uiso   1.00
C57    C     0.24670   0.05922   0.73750   0.01267  Uiso   1.00
C58    C     0.21840   0.75670   0.00000   0.01267  Uiso   1.00
C59    C     0.32580   0.00000   0.32780   0.01267  Uiso   1.00
C60    C     0.83900   0.00000   0.79840   0.01267  Uiso   1.00
C61    C     0.29310   0.00000   0.46668   0.01267  Uiso   1.00
C62    C     0.61960   0.00000   0.37970   0.01267  Uiso   1.00
C63    C     0.29310   0.53332   0.00000   0.01267  Uiso   1.00
C64    C     0.30050   0.05924   0.69520   0.01267  Uiso   1.00
C65    C     0.67420   0.00000   0.67220   0.01267  Uiso   1.00
C66    C     0.38040   0.00000   0.62030   0.01267  Uiso   1.00
C67    C     0.64350   0.55476   0.00000   0.01267  Uiso   1.00
C68    C     0.24670   0.05922   0.26250   0.01267  Uiso   1.00
C69    C     0.70690   0.00000   0.53332   0.01267  Uiso   1.00
C70    C     0.70690   0.46668   0.00000   0.01267  Uiso   1.00
C71    C     0.53337   0.29030   0.00000   0.01267  Uiso   1.00
C72    C     0.55481   0.35350   0.00000   0.01267  Uiso   1.00
C73    C     0.24670   0.94078   0.73750   0.01267  Uiso   1.00
C74    C     0.78160   0.75670   0.00000   0.01267  Uiso   1.00
C75    C     0.69950   0.05924   0.69520   0.01267  Uiso   1.00
C76    C     0.75330   0.05922   0.26250   0.01267  Uiso   1.00
C77    C     0.29310   0.46668   0.00000   0.01267  Uiso   1.00
C78    C     0.61960   0.62030   0.00000   0.01267  Uiso   1.00
C79    C     0.29310   0.00000   0.53332   0.01267  Uiso   1.00
C80    C     0.30050   0.94076   0.30480   0.01267  Uiso   1.00
C81    C     0.32580   0.67220   0.00000   0.01267  Uiso   1.00
C82    C     0.44519   0.35350   0.00000   0.01267  Uiso   1.00
C83    C     0.16100   0.79840   0.00000   0.01267  Uiso   1.00
C84    C     0.21840   0.00000   0.24330   0.01267  Uiso   1.00
C85    C     0.69950   0.69520   0.94076   0.01267  Uiso   1.00
C86    C     0.69950   0.94076   0.30480   0.01267  Uiso   1.00
C87    C     0.64350   0.44524   0.00000   0.01267  Uiso   1.00
C88    C     0.30050   0.30480   0.94076   0.01267  Uiso   1.00
C89    C     0.24670   0.26250   0.05922   0.01267  Uiso   1.00
C90    C     0.69950   0.94076   0.69520   0.01267  Uiso   1.00
C91    C     0.70690   0.00000   0.46668   0.01267  Uiso   1.00
C92    C     0.35650   0.00000   0.44524   0.01267  Uiso   1.00
C93    C     0.55481   0.00000   0.35350   0.01267  Uiso   1.00
C94    C     0.46663   0.00000   0.29030   0.01267  Uiso   1.00
C95    C     0.55481   0.64650   0.00000   0.01267  Uiso   1.00
C96    C     0.30050   0.69520   0.94076   0.01267  Uiso   1.00
N1     N     0.50000   0.00000   0.60470   0.01267  Uiso   1.00
N2     N     0.86960   0.05500   0.18160   0.01267  Uiso   1.00
N3     N     0.13040   0.94500   0.81840   0.01267  Uiso   1.00
N4     N     0.92062   0.14650   0.96788   0.01267  Uiso   1.00
N5     N     0.13040   0.81840   0.94500   0.01267  Uiso   1.00
N6     N     0.86960   0.18160   0.94500   0.01267  Uiso   1.00
N7     N     0.86960   0.81840   0.05500   0.01267  Uiso   1.00
N8     N     0.07938   0.03212   0.85350   0.01267  Uiso   1.00
N9     N     0.07938   0.03212   0.14650   0.01267  Uiso   1.00
N10    N     0.07938   0.85350   0.96788   0.01267  Uiso   1.00
N11    N     0.92062   0.96788   0.85350   0.01267  Uiso   1.00
N12    N     0.86960   0.05500   0.81840   0.01267  Uiso   1.00
N13    N     0.13040   0.94500   0.18160   0.01267  Uiso   1.00
N14    N     0.07938   0.14650   0.03212   0.01267  Uiso   1.00
N15    N     0.86960   0.94500   0.81840   0.01267  Uiso   1.00
N16    N     0.92062   0.96788   0.14650   0.01267  Uiso   1.00
N17    N     0.86960   0.81840   0.94500   0.01267  Uiso   1.00
N18    N     0.50000   0.60470   0.00000   0.01267  Uiso   1.00
N19    N     0.60170   0.00000   0.50000   0.01267  Uiso   1.00
N20    N     0.13040   0.05500   0.18160   0.01267  Uiso   1.00
N21    N     0.13040   0.18160   0.05500   0.01267  Uiso   1.00
N22    N     0.92062   0.14650   0.03212   0.01267  Uiso   1.00
N23    N     0.86960   0.94500   0.18160   0.01267  Uiso   1.00
N24    N     0.39830   0.00000   0.50000   0.01267  Uiso   1.00
N25    N     0.50000   0.39530   0.00000   0.01267  Uiso   1.00
N26    N     0.92062   0.85350   0.96788   0.01267  Uiso   1.00
N27    N     0.92062   0.03212   0.85350   0.01267  Uiso   1.00
N28    N     0.92062   0.03212   0.14650   0.01267  Uiso   1.00
N29    N     0.39830   0.50000   0.00000   0.01267  Uiso   1.00
N30    N     0.07938   0.96788   0.14650   0.01267  Uiso   1.00
N31    N     0.13040   0.05500   0.81840   0.01267  Uiso   1.00
N32    N     0.60170   0.50000   0.00000   0.01267  Uiso   1.00
N33    N     0.07938   0.96788   0.85350   0.01267  Uiso   1.00
N34    N     0.50000   0.00000   0.39530   0.01267  Uiso   1.00
N35    N     0.86960   0.18160   0.05500   0.01267  Uiso   1.00
N36    N     0.13040   0.81840   0.05500   0.01267  Uiso   1.00
N37    N     0.92062   0.85350   0.03212   0.01267  Uiso   1.00
N38    N     0.13040   0.18160   0.94500   0.01267  Uiso   1.00
N39    N     0.07938   0.14650   0.96788   0.01267  Uiso   1.00
N40    N     0.07938   0.85350   0.03212   0.01267  Uiso   1.00
Cl1    Cl    0.00000   0.82060   0.17940   0.01267  Uiso   1.00
Cl2    Cl    0.00000   0.17940   0.17940   0.01267  Uiso   1.00
Cl3    Cl    0.00000   0.82060   0.82060   0.01267  Uiso   1.00
Cl4    Cl    0.00000   0.17940   0.82060   0.01267  Uiso   1.00
