data_ja5b02777_si_006_clean
_audit_creation_date              2015-08-19
_audit_creation_method            'Materials Studio'
_symmetry_space_group_name_H-M    'P1'
_symmetry_Int_Tables_number       1
_symmetry_cell_setting            triclinic
loop_
_symmetry_equiv_pos_as_xyz
  x,y,z
_cell_length_a                    13.7360
_cell_length_b                    13.7360
_cell_length_c                    14.0301
_cell_angle_alpha                 108.1120
_cell_angle_beta                  113.5340
_cell_angle_gamma                 105.9400
loop_
_atom_site_label
_atom_site_type_symbol
_atom_site_fract_x
_atom_site_fract_y
_atom_site_fract_z
_atom_site_U_iso_or_equiv
_atom_site_adp_type
_atom_site_occupancy
Li1    Li    0.33720   0.65200   0.57740   0.01267  Uiso   1.00
Li2    Li    0.18020   0.74800   0.32280   0.01267  Uiso   1.00
Li3    Li    0.92520   0.85740   0.17720   0.01267  Uiso   1.00
Li4    Li    0.07480   0.14260   0.82280   0.01267  Uiso   1.00
Li5    Li    0.42540   0.24020   0.07740   0.01267  Uiso   1.00
Li6    Li    0.81980   0.25200   0.67720   0.01267  Uiso   1.00
Li7    Li    0.66280   0.34800   0.42260   0.01267  Uiso   1.00
Li8    Li    0.57460   0.75980   0.92260   0.01267  Uiso   1.00
Zr1    Zr    0.62560   0.75200   0.37360   0.01267  Uiso   1.00
Zr2    Zr    0.12160   0.74800   0.87360   0.01267  Uiso   1.00
Zr3    Zr    0.37440   0.24800   0.62640   0.01267  Uiso   1.00
Zr4    Zr    0.87840   0.25200   0.12640   0.01267  Uiso   1.00
C1     C     0.86000   0.27960   0.91020   0.01267  Uiso   1.00
C2     C     0.84510   0.00980   0.08370   0.01267  Uiso   1.00
C3     C     0.04490   0.76340   0.05270   0.01267  Uiso   1.00
C4     C     0.67950   0.26100   0.17070   0.01267  Uiso   1.00
C5     C     0.59030   0.50880   0.32930   0.01267  Uiso   1.00
C6     C     0.95990   0.48670   0.71840   0.01267  Uiso   1.00
C7     C     0.48770   0.24420   0.47610   0.01267  Uiso   1.00
C8     C     0.51230   0.75580   0.52390   0.01267  Uiso   1.00
C9     C     0.78930   0.00780   0.55270   0.01267  Uiso   1.00
C10    C     0.77850   0.28200   0.28990   0.01267  Uiso   1.00
C11    C     0.21070   0.99220   0.44730   0.01267  Uiso   1.00
C12    C     0.40970   0.49120   0.67070   0.01267  Uiso   1.00
C13    C     0.13060   0.05020   0.41020   0.01267  Uiso   1.00
C14    C     0.87760   0.53870   0.66750   0.01267  Uiso   1.00
C15    C     0.49210   0.48860   0.21010   0.01267  Uiso   1.00
C16    C     0.37120   0.21010   0.83250   0.01267  Uiso   1.00
C17    C     0.15490   0.99020   0.91630   0.01267  Uiso   1.00
C18    C     0.26830   0.24150   0.78160   0.01267  Uiso   1.00
C19    C     0.32050   0.73900   0.82930   0.01267  Uiso   1.00
C20    C     0.22150   0.71800   0.71010   0.01267  Uiso   1.00
C21    C     0.57390   0.23860   0.58370   0.01267  Uiso   1.00
C22    C     0.73170   0.75850   0.21840   0.01267  Uiso   1.00
C23    C     0.04010   0.51330   0.28160   0.01267  Uiso   1.00
C24    C     0.26810   0.01160   0.02390   0.01267  Uiso   1.00
C25    C     0.62880   0.78990   0.16750   0.01267  Uiso   1.00
C26    C     0.95510   0.23660   0.94730   0.01267  Uiso   1.00
C27    C     0.86940   0.94980   0.58980   0.01267  Uiso   1.00
C28    C     0.50790   0.51140   0.78990   0.01267  Uiso   1.00
C29    C     0.12240   0.46130   0.33250   0.01267  Uiso   1.00
C30    C     0.42610   0.76140   0.41630   0.01267  Uiso   1.00
C31    C     0.14000   0.72040   0.08980   0.01267  Uiso   1.00
C32    C     0.73190   0.98840   0.97610   0.01267  Uiso   1.00
O1     O     0.34410   0.38360   0.59130   0.01267  Uiso   1.00
O2     O     0.93120   0.65100   0.72280   0.01267  Uiso   1.00
O3     O     0.38840   0.23320   0.47080   0.01267  Uiso   1.00
O4     O     0.13730   0.07300   0.91370   0.01267  Uiso   1.00
O5     O     0.42550   0.39160   0.12270   0.01267  Uiso   1.00
O6     O     0.20000   0.24030   0.81830   0.01267  Uiso   1.00
O7     O     0.58460   0.25790   0.15870   0.01267  Uiso   1.00
O8     O     0.92200   0.38170   0.68170   0.01267  Uiso   1.00
O9     O     0.06880   0.34900   0.27720   0.01267  Uiso   1.00
O10    O     0.77270   0.47790   0.58440   0.01267  Uiso   1.00
O11    O     0.68690   0.93710   0.45560   0.01267  Uiso   1.00
O12    O     0.48840   0.58330   0.21430   0.01267  Uiso   1.00
O13    O     0.59920   0.42590   0.34130   0.01267  Uiso   1.00
O14    O     0.86270   0.92700   0.08630   0.01267  Uiso   1.00
O15    O     0.70770   0.24720   0.09130   0.01267  Uiso   1.00
O16    O     0.51320   0.25650   0.40410   0.01267  Uiso   1.00
O17    O     0.06810   0.56420   0.80090   0.01267  Uiso   1.00
O18    O     0.13100   0.72590   0.71430   0.01267  Uiso   1.00
O19    O     0.48680   0.74350   0.59590   0.01267  Uiso   1.00
O20    O     0.57180   0.79160   0.22280   0.01267  Uiso   1.00
O21    O     0.07800   0.61830   0.31830   0.01267  Uiso   1.00
O22    O     0.51160   0.41670   0.78570   0.01267  Uiso   1.00
O23    O     0.34070   0.77640   0.41370   0.01267  Uiso   1.00
O24    O     0.17340   0.88810   0.38690   0.01267  Uiso   1.00
O25    O     0.61160   0.76680   0.52920   0.01267  Uiso   1.00
O26    O     0.65590   0.61640   0.40870   0.01267  Uiso   1.00
O27    O     0.45540   0.75060   0.33780   0.01267  Uiso   1.00
O28    O     0.08720   0.88240   0.83780   0.01267  Uiso   1.00
O29    O     0.98150   0.23130   0.04440   0.01267  Uiso   1.00
O30    O     0.31310   0.06290   0.54440   0.01267  Uiso   1.00
O31    O     0.81320   0.83820   0.52720   0.01267  Uiso   1.00
O32    O     0.26240   0.91760   0.02920   0.01267  Uiso   1.00
O33    O     0.39350   0.18830   0.91560   0.01267  Uiso   1.00
O34    O     0.41540   0.74210   0.84130   0.01267  Uiso   1.00
O35    O     0.60650   0.81170   0.08440   0.01267  Uiso   1.00
O36    O     0.73670   0.73280   0.30090   0.01267  Uiso   1.00
O37    O     0.02430   0.99380   0.32990   0.01267  Uiso   1.00
O38    O     0.26330   0.26720   0.69910   0.01267  Uiso   1.00
O39    O     0.80000   0.75970   0.18170   0.01267  Uiso   1.00
O40    O     0.82660   0.11190   0.61310   0.01267  Uiso   1.00
O41    O     0.97570   0.00620   0.67010   0.01267  Uiso   1.00
O42    O     0.23110   0.69720   0.62270   0.01267  Uiso   1.00
O43    O     0.91280   0.11760   0.16220   0.01267  Uiso   1.00
O44    O     0.22730   0.52210   0.41560   0.01267  Uiso   1.00
O45    O     0.00120   0.78650   0.11310   0.01267  Uiso   1.00
O46    O     0.73760   0.08240   0.97080   0.01267  Uiso   1.00
O47    O     0.01850   0.76870   0.95560   0.01267  Uiso   1.00
O48    O     0.29230   0.75280   0.90870   0.01267  Uiso   1.00
O49    O     0.76890   0.30280   0.37730   0.01267  Uiso   1.00
O50    O     0.40080   0.57410   0.65870   0.01267  Uiso   1.00
O51    O     0.35240   0.10910   0.09590   0.01267  Uiso   1.00
O52    O     0.86900   0.27410   0.28570   0.01267  Uiso   1.00
O53    O     0.16390   0.69440   0.17010   0.01267  Uiso   1.00
O54    O     0.54460   0.24940   0.66220   0.01267  Uiso   1.00
O55    O     0.64760   0.89090   0.90410   0.01267  Uiso   1.00
O56    O     0.57450   0.60840   0.87730   0.01267  Uiso   1.00
O57    O     0.83610   0.30560   0.82990   0.01267  Uiso   1.00
O58    O     0.18680   0.16180   0.47280   0.01267  Uiso   1.00
O59    O     0.18900   0.71400   0.02720   0.01267  Uiso   1.00
O60    O     0.93190   0.43580   0.19910   0.01267  Uiso   1.00
O61    O     0.42820   0.20840   0.77720   0.01267  Uiso   1.00
O62    O     0.81100   0.28600   0.97280   0.01267  Uiso   1.00
O63    O     0.65930   0.22360   0.58630   0.01267  Uiso   1.00
O64    O     0.99880   0.21350   0.88690   0.01267  Uiso   1.00
