data_image0
_cell_length_a       5.1594
_cell_length_b       11.0274
_cell_length_c       15.274
_cell_angle_alpha    83.31
_cell_angle_beta     87.657
_cell_angle_gamma    83.128

_symmetry_space_group_name_H-M    "P 1"
_symmetry_int_tables_number       1

loop_
  _symmetry_equiv_pos_as_xyz
  'x, y, z'

loop_
  _atom_site_label
  _atom_site_occupancy
  _atom_site_fract_x
  _atom_site_fract_y
  _atom_site_fract_z
  _atom_site_thermal_displace_type
  _atom_site_B_iso_or_equiv
  _atom_site_type_symbol
  C1       1.0000 0.97950  0.62540  0.49055  Biso   1.000  C
  H1       1.0000 0.96460  0.71080  0.48420  Biso   1.000  H
  C2       1.0000 0.07720  0.56208  0.56894  Biso   1.000  C
  C3       1.0000 0.09660  0.43266  0.57848  Biso   1.000  C
  C4       1.0000 0.18500  0.35600  0.66135  Biso   1.000  C
  C5       1.0000 0.40920  0.27190  0.66040  Biso   1.000  C
  H2       1.0000 0.49940  0.26050  0.60750  Biso   1.000  H
  C6       1.0000 0.49800  0.20500  0.73822  Biso   1.000  C
  H3       1.0000 0.65160  0.15160  0.73730  Biso   1.000  H
  C7       1.0000 0.36110  0.21700  0.81700  Biso   1.000  C
  C8       1.0000 0.13240  0.29700  0.81692  Biso   1.000  C
  H4       1.0000 0.03490  0.30400  0.86900  Biso   1.000  H
  C9       1.0000 0.04860  0.36610  0.74008  Biso   1.000  C
  H5       1.0000 0.89690  0.42070  0.74140  Biso   1.000  H
  C10      1.0000 0.46450  0.15020  0.90198  Biso   1.000  C
  C11      1.0000 0.15730  0.63353  0.63892  Biso   1.000  C
  C12      1.0000 0.38580  0.59620  0.68448  Biso   1.000  C
  H6       1.0000 0.49730  0.52900  0.66890  Biso   1.000  H
  C13      1.0000 0.44870  0.65820  0.75268  Biso   1.000  C
  H7       1.0000 0.60210  0.63210  0.78280  Biso   1.000  H
  C14      1.0000 0.28550  0.75895  0.77679  Biso   1.000  C
  C15      1.0000 0.06140  0.79890  0.72950  Biso   1.000  C
  H8       1.0000 0.95240  0.86760  0.74390  Biso   1.000  H
  C16      1.0000 0.99980  0.73700  0.66113  Biso   1.000  C
  H9       1.0000 0.85020  0.76510  0.62940  Biso   1.000  H
  C17      1.0000 0.33870  0.82060  0.85421  Biso   1.000  C
  O1       1.0000 0.30480  0.14197  0.96794  Biso   1.000  O
  O2       1.0000 0.69830  0.10958  0.90423  Biso   1.000  O
  O3       1.0000 0.18180  0.89816  0.88325  Biso   1.000  O
  O4       1.0000 0.56860  0.78465  0.88719  Biso   1.000  O
  H10      1.0000 0.58690  0.82180  0.92960  Biso   1.000  H
  C18      1.0000 0.02050  0.37460  0.50945  Biso   1.000  C
  H11      1.0000 0.03540  0.28920  0.51580  Biso   1.000  H
  C19      1.0000 0.92280  0.43792  0.43106  Biso   1.000  C
  C20      1.0000 0.90340  0.56734  0.42152  Biso   1.000  C
  C21      1.0000 0.81500  0.64400  0.33865  Biso   1.000  C
  C22      1.0000 0.59080  0.72810  0.33960  Biso   1.000  C
  H12      1.0000 0.50060  0.73950  0.39250  Biso   1.000  H
  C23      1.0000 0.50200  0.79500  0.26178  Biso   1.000  C
  H13      1.0000 0.34840  0.84840  0.26270  Biso   1.000  H
  C24      1.0000 0.63890  0.78300  0.18300  Biso   1.000  C
  C25      1.0000 0.86760  0.70300  0.18308  Biso   1.000  C
  H14      1.0000 0.96510  0.69600  0.13100  Biso   1.000  H
  C26      1.0000 0.95140  0.63390  0.25992  Biso   1.000  C
  H15      1.0000 0.10310  0.57930  0.25860  Biso   1.000  H
  C27      1.0000 0.53550  0.84980  0.09802  Biso   1.000  C
  C28      1.0000 0.84270  0.36647  0.36108  Biso   1.000  C
  C29      1.0000 0.61420  0.40380  0.31552  Biso   1.000  C
  H16      1.0000 0.50270  0.47100  0.33110  Biso   1.000  H
  C30      1.0000 0.55130  0.34180  0.24732  Biso   1.000  C
  H17      1.0000 0.39790  0.36790  0.21720  Biso   1.000  H
  C31      1.0000 0.71450  0.24105  0.22321  Biso   1.000  C
  C32      1.0000 0.93860  0.20110  0.27050  Biso   1.000  C
  H18      1.0000 0.04760  0.13240  0.25610  Biso   1.000  H
  C33      1.0000 0.00020  0.26300  0.33887  Biso   1.000  C
  H19      1.0000 0.14980  0.23490  0.37060  Biso   1.000  H
  C34      1.0000 0.66130  0.17940  0.14579  Biso   1.000  C
  O5       1.0000 0.69520  0.85803  0.03206  Biso   1.000  O
  O6       1.0000 0.30170  0.89042  0.09577  Biso   1.000  O
  O7       1.0000 0.81820  0.10184  0.11675  Biso   1.000  O
  O8       1.0000 0.43140  0.21535  0.11281  Biso   1.000  O
  H20      1.0000 0.41310  0.17820  0.07040  Biso   1.000  H
  Ca1      1.0000 0.00000  0.00000  0.00000  Biso   1.000  Ca
