data_ja5b02999_si_003_clean
_audit_creation_date              2015-08-19
_audit_creation_method            'Materials Studio'
_symmetry_space_group_name_H-M    'P1'
_symmetry_Int_Tables_number       1
_symmetry_cell_setting            triclinic
loop_
_symmetry_equiv_pos_as_xyz
  x,y,z
_cell_length_a                    20.4520
_cell_length_b                    27.8490
_cell_length_c                    27.8490
_cell_angle_alpha                 90.0000
_cell_angle_beta                  90.0000
_cell_angle_gamma                 90.0000
loop_
_atom_site_label
_atom_site_type_symbol
_atom_site_fract_x
_atom_site_fract_y
_atom_site_fract_z
_atom_site_U_iso_or_equiv
_atom_site_adp_type
_atom_site_occupancy
Cd1    Cd    0.12471   0.31509   0.45391   0.01267  Uiso   1.00
Cd2    Cd    0.50000   0.17969   0.67969   0.01267  Uiso   1.00
Cd3    Cd    0.12471   0.81509   0.04609   0.01267  Uiso   1.00
Cd4    Cd    0.87529   0.95391   0.81509   0.01267  Uiso   1.00
Cd5    Cd    0.87529   0.04609   0.18491   0.01267  Uiso   1.00
Cd6    Cd    0.87529   0.81509   0.04609   0.01267  Uiso   1.00
Cd7    Cd    0.00000   0.02540   0.09652   0.01267  Uiso   1.00
Cd8    Cd    0.87529   0.68491   0.54609   0.01267  Uiso   1.00
Cd9    Cd    0.12471   0.18491   0.95391   0.01267  Uiso   1.00
Cd10   Cd    0.12471   0.54609   0.31509   0.01267  Uiso   1.00
Cd11   Cd    0.87529   0.54609   0.31509   0.01267  Uiso   1.00
Cd12   Cd    0.00000   0.52540   0.40348   0.01267  Uiso   1.00
Cd13   Cd    0.00000   0.90348   0.02540   0.01267  Uiso   1.00
Cd14   Cd    0.00000   0.59652   0.52540   0.01267  Uiso   1.00
Cd15   Cd    0.87529   0.31509   0.45391   0.01267  Uiso   1.00
Cd16   Cd    0.50000   0.82031   0.32031   0.01267  Uiso   1.00
Cd17   Cd    0.50000   0.32031   0.17969   0.01267  Uiso   1.00
Cd18   Cd    0.87529   0.18491   0.95391   0.01267  Uiso   1.00
Cd19   Cd    0.00000   0.09652   0.97460   0.01267  Uiso   1.00
Cd20   Cd    0.87529   0.45391   0.68491   0.01267  Uiso   1.00
Cd21   Cd    0.50000   0.72150   0.77850   0.01267  Uiso   1.00
Cd22   Cd    0.50000   0.27850   0.22150   0.01267  Uiso   1.00
Cd23   Cd    0.12471   0.68491   0.54609   0.01267  Uiso   1.00
Cd24   Cd    0.50000   0.67969   0.82031   0.01267  Uiso   1.00
Cd25   Cd    0.00000   0.97460   0.90348   0.01267  Uiso   1.00
Cd26   Cd    0.50000   0.77850   0.27850   0.01267  Uiso   1.00
Cd27   Cd    0.50000   0.22150   0.72150   0.01267  Uiso   1.00
Cd28   Cd    0.00000   0.40348   0.47460   0.01267  Uiso   1.00
Cd29   Cd    0.12471   0.04609   0.18491   0.01267  Uiso   1.00
Cd30   Cd    0.12471   0.95391   0.81509   0.01267  Uiso   1.00
Cd31   Cd    0.00000   0.47460   0.59652   0.01267  Uiso   1.00
Cd32   Cd    0.12471   0.45391   0.68491   0.01267  Uiso   1.00
H1     H     0.67600   0.82210   0.15630   0.01267  Uiso   1.00
H2     H     0.68410   0.55930   0.74040   0.01267  Uiso   1.00
H3     H     0.56010   0.58840   0.66180   0.01267  Uiso   1.00
H4     H     0.22430   0.19780   0.03240   0.01267  Uiso   1.00
H5     H     0.68410   0.94070   0.24040   0.01267  Uiso   1.00
H6     H     0.31590   0.44070   0.25960   0.01267  Uiso   1.00
H7     H     0.74320   0.17140   0.73730   0.01267  Uiso   1.00
H8     H     0.76760   0.84890   0.11370   0.01267  Uiso   1.00
H9     H     0.32400   0.34370   0.67790   0.01267  Uiso   1.00
H10    H     0.22430   0.96760   0.19780   0.01267  Uiso   1.00
H11    H     0.25680   0.82860   0.26270   0.01267  Uiso   1.00
H12    H     0.32400   0.84370   0.82210   0.01267  Uiso   1.00
H13    H     0.56010   0.08840   0.83820   0.01267  Uiso   1.00
H14    H     0.32400   0.15630   0.17790   0.01267  Uiso   1.00
H15    H     0.68410   0.24040   0.05930   0.01267  Uiso   1.00
H16    H     0.31590   0.74040   0.44070   0.01267  Uiso   1.00
H17    H     0.56010   0.41160   0.33820   0.01267  Uiso   1.00
H18    H     0.32400   0.67790   0.65630   0.01267  Uiso   1.00
H19    H     0.74320   0.82860   0.26270   0.01267  Uiso   1.00
H20    H     0.77570   0.19780   0.03240   0.01267  Uiso   1.00
H21    H     0.77570   0.80220   0.96760   0.01267  Uiso   1.00
H22    H     0.67600   0.84370   0.82210   0.01267  Uiso   1.00
H23    H     0.43990   0.83820   0.91160   0.01267  Uiso   1.00
H24    H     0.74320   0.76270   0.32860   0.01267  Uiso   1.00
H25    H     0.31590   0.24040   0.05930   0.01267  Uiso   1.00
H26    H     0.74320   0.32860   0.23730   0.01267  Uiso   1.00
H27    H     0.22430   0.53240   0.69780   0.01267  Uiso   1.00
H28    H     0.76760   0.88630   0.84890   0.01267  Uiso   1.00
H29    H     0.56010   0.33820   0.58840   0.01267  Uiso   1.00
H30    H     0.23240   0.38630   0.65110   0.01267  Uiso   1.00
H31    H     0.25680   0.67140   0.76270   0.01267  Uiso   1.00
H32    H     0.67600   0.32210   0.34370   0.01267  Uiso   1.00
H33    H     0.23240   0.84890   0.11370   0.01267  Uiso   1.00
H34    H     0.77570   0.53240   0.69780   0.01267  Uiso   1.00
H35    H     0.25680   0.32860   0.23730   0.01267  Uiso   1.00
H36    H     0.22430   0.03240   0.80220   0.01267  Uiso   1.00
H37    H     0.67600   0.17790   0.84370   0.01267  Uiso   1.00
H38    H     0.23240   0.15110   0.88630   0.01267  Uiso   1.00
H39    H     0.31590   0.75960   0.94070   0.01267  Uiso   1.00
H40    H     0.23240   0.88630   0.84890   0.01267  Uiso   1.00
H41    H     0.68410   0.25960   0.55930   0.01267  Uiso   1.00
H42    H     0.56010   0.83820   0.91160   0.01267  Uiso   1.00
H43    H     0.22430   0.69780   0.46760   0.01267  Uiso   1.00
H44    H     0.76760   0.11370   0.15110   0.01267  Uiso   1.00
H45    H     0.67600   0.15630   0.17790   0.01267  Uiso   1.00
H46    H     0.43990   0.66180   0.41160   0.01267  Uiso   1.00
H47    H     0.67600   0.34370   0.67790   0.01267  Uiso   1.00
H48    H     0.76760   0.65110   0.61370   0.01267  Uiso   1.00
H49    H     0.23240   0.65110   0.61370   0.01267  Uiso   1.00
H50    H     0.23240   0.34890   0.38630   0.01267  Uiso   1.00
H51    H     0.68410   0.44070   0.25960   0.01267  Uiso   1.00
H52    H     0.31590   0.05930   0.75960   0.01267  Uiso   1.00
H53    H     0.32400   0.65630   0.32210   0.01267  Uiso   1.00
H54    H     0.43990   0.91160   0.16180   0.01267  Uiso   1.00
H55    H     0.67600   0.65630   0.32210   0.01267  Uiso   1.00
H56    H     0.77570   0.03240   0.80220   0.01267  Uiso   1.00
H57    H     0.77570   0.46760   0.30220   0.01267  Uiso   1.00
H58    H     0.43990   0.33820   0.58840   0.01267  Uiso   1.00
H59    H     0.76760   0.34890   0.38630   0.01267  Uiso   1.00
H60    H     0.25680   0.23730   0.67140   0.01267  Uiso   1.00
H61    H     0.56010   0.16180   0.08840   0.01267  Uiso   1.00
H62    H     0.23240   0.11370   0.15110   0.01267  Uiso   1.00
H63    H     0.25680   0.76270   0.32860   0.01267  Uiso   1.00
H64    H     0.31590   0.94070   0.24040   0.01267  Uiso   1.00
H65    H     0.32400   0.82210   0.15630   0.01267  Uiso   1.00
H66    H     0.32400   0.17790   0.84370   0.01267  Uiso   1.00
H67    H     0.32400   0.32210   0.34370   0.01267  Uiso   1.00
H68    H     0.22430   0.80220   0.96760   0.01267  Uiso   1.00
H69    H     0.74320   0.23730   0.67140   0.01267  Uiso   1.00
H70    H     0.43990   0.58840   0.66180   0.01267  Uiso   1.00
H71    H     0.23240   0.61370   0.34890   0.01267  Uiso   1.00
H72    H     0.74320   0.73730   0.82860   0.01267  Uiso   1.00
H73    H     0.56010   0.66180   0.41160   0.01267  Uiso   1.00
H74    H     0.31590   0.55930   0.74040   0.01267  Uiso   1.00
H75    H     0.77570   0.69780   0.46760   0.01267  Uiso   1.00
H76    H     0.77570   0.30220   0.53240   0.01267  Uiso   1.00
H77    H     0.68410   0.05930   0.75960   0.01267  Uiso   1.00
H78    H     0.22430   0.30220   0.53240   0.01267  Uiso   1.00
H79    H     0.77570   0.96760   0.19780   0.01267  Uiso   1.00
H80    H     0.43990   0.08840   0.83820   0.01267  Uiso   1.00
H81    H     0.22430   0.46760   0.30220   0.01267  Uiso   1.00
H82    H     0.68410   0.74040   0.44070   0.01267  Uiso   1.00
H83    H     0.74320   0.26270   0.17140   0.01267  Uiso   1.00
H84    H     0.56010   0.91160   0.16180   0.01267  Uiso   1.00
H85    H     0.25680   0.73730   0.82860   0.01267  Uiso   1.00
H86    H     0.31590   0.25960   0.55930   0.01267  Uiso   1.00
H87    H     0.25680   0.17140   0.73730   0.01267  Uiso   1.00
H88    H     0.43990   0.41160   0.33820   0.01267  Uiso   1.00
H89    H     0.76760   0.15110   0.88630   0.01267  Uiso   1.00
H90    H     0.67600   0.67790   0.65630   0.01267  Uiso   1.00
H91    H     0.76760   0.38630   0.65110   0.01267  Uiso   1.00
H92    H     0.68410   0.75960   0.94070   0.01267  Uiso   1.00
H93    H     0.43990   0.16180   0.08840   0.01267  Uiso   1.00
H94    H     0.76760   0.61370   0.34890   0.01267  Uiso   1.00
H95    H     0.74320   0.67140   0.76270   0.01267  Uiso   1.00
H96    H     0.25680   0.26270   0.17140   0.01267  Uiso   1.00
C1     C     0.30380   0.35160   0.33530   0.01267  Uiso   1.00
C2     C     0.70100   0.92210   0.21470   0.01267  Uiso   1.00
C3     C     0.75060   0.13240   0.86060   0.01267  Uiso   1.00
C4     C     0.38100   0.76540   0.85850   0.01267  Uiso   1.00
C5     C     0.75060   0.36060   0.63240   0.01267  Uiso   1.00
C6     C     0.35740   0.82590   0.26930   0.01267  Uiso   1.00
C7     C     0.29900   0.71470   0.42210   0.01267  Uiso   1.00
C8     C     0.21980   0.91080   0.15170   0.01267  Uiso   1.00
C9     C     0.29900   0.78530   0.92210   0.01267  Uiso   1.00
C10    C     0.24460   0.43800   0.31060   0.01267  Uiso   1.00
C11    C     0.15890   0.12570   0.07336   0.01267  Uiso   1.00
C12    C     0.70600   0.72210   0.81490   0.01267  Uiso   1.00
C13    C     0.15890   0.62570   0.42664   0.01267  Uiso   1.00
C14    C     0.24940   0.63940   0.36760   0.01267  Uiso   1.00
C15    C     0.29400   0.18510   0.72210   0.01267  Uiso   1.00
C16    C     0.21980   0.41080   0.34830   0.01267  Uiso   1.00
C17    C     0.29400   0.68510   0.77790   0.01267  Uiso   1.00
C18    C     0.46701   0.31510   0.60360   0.01267  Uiso   1.00
C19    C     0.70100   0.28530   0.57790   0.01267  Uiso   1.00
C20    C     0.61900   0.73460   0.35850   0.01267  Uiso   1.00
C21    C     0.61900   0.14150   0.76540   0.01267  Uiso   1.00
C22    C     0.69620   0.14840   0.83530   0.01267  Uiso   1.00
C23    C     0.44590   0.87120   0.22340   0.01267  Uiso   1.00
C24    C     0.21980   0.65170   0.41080   0.01267  Uiso   1.00
C25    C     0.55410   0.12880   0.77660   0.01267  Uiso   1.00
C26    C     0.61900   0.26540   0.64150   0.01267  Uiso   1.00
C27    C     0.75060   0.36760   0.36060   0.01267  Uiso   1.00
C28    C     0.75060   0.63240   0.63940   0.01267  Uiso   1.00
C29    C     0.44590   0.72340   0.37120   0.01267  Uiso   1.00
C30    C     0.55410   0.72340   0.37120   0.01267  Uiso   1.00
C31    C     0.24460   0.68940   0.43800   0.01267  Uiso   1.00
C32    C     0.64260   0.23070   0.67410   0.01267  Uiso   1.00
C33    C     0.30380   0.85160   0.16470   0.01267  Uiso   1.00
C34    C     0.44590   0.12880   0.77660   0.01267  Uiso   1.00
C35    C     0.69620   0.33530   0.64840   0.01267  Uiso   1.00
C36    C     0.78020   0.84830   0.91080   0.01267  Uiso   1.00
C37    C     0.69620   0.16470   0.14840   0.01267  Uiso   1.00
C38    C     0.67140   0.79760   0.87890   0.01267  Uiso   1.00
C39    C     0.75060   0.13940   0.13240   0.01267  Uiso   1.00
C40    C     0.24460   0.18940   0.06200   0.01267  Uiso   1.00
C41    C     0.61900   0.64150   0.73460   0.01267  Uiso   1.00
C42    C     0.46701   0.10360   0.81510   0.01267  Uiso   1.00
C43    C     0.30380   0.64840   0.66470   0.01267  Uiso   1.00
C44    C     0.21980   0.08920   0.84830   0.01267  Uiso   1.00
C45    C     0.32860   0.79760   0.87890   0.01267  Uiso   1.00
C46    C     0.75540   0.18940   0.06200   0.01267  Uiso   1.00
C47    C     0.32860   0.70240   0.37890   0.01267  Uiso   1.00
C48    C     0.53299   0.89640   0.18490   0.01267  Uiso   1.00
C49    C     0.61900   0.35850   0.26540   0.01267  Uiso   1.00
C50    C     0.32860   0.37890   0.29760   0.01267  Uiso   1.00
C51    C     0.21980   0.15170   0.08920   0.01267  Uiso   1.00
C52    C     0.24940   0.36760   0.36060   0.01267  Uiso   1.00
C53    C     0.67140   0.37890   0.29760   0.01267  Uiso   1.00
C54    C     0.75540   0.68940   0.43800   0.01267  Uiso   1.00
C55    C     0.32860   0.29760   0.62110   0.01267  Uiso   1.00
C56    C     0.24940   0.36060   0.63240   0.01267  Uiso   1.00
C57    C     0.67140   0.70240   0.37890   0.01267  Uiso   1.00
C58    C     0.84110   0.42664   0.37430   0.01267  Uiso   1.00
C59    C     0.44590   0.22340   0.12880   0.01267  Uiso   1.00
C60    C     0.46701   0.39640   0.31510   0.01267  Uiso   1.00
C61    C     0.44590   0.77660   0.87120   0.01267  Uiso   1.00
C62    C     0.70600   0.68510   0.77790   0.01267  Uiso   1.00
C63    C     0.38100   0.85850   0.23460   0.01267  Uiso   1.00
C64    C     0.78020   0.34830   0.58920   0.01267  Uiso   1.00
C65    C     0.29400   0.22210   0.68510   0.01267  Uiso   1.00
C66    C     0.44590   0.37120   0.27660   0.01267  Uiso   1.00
C67    C     0.67140   0.12110   0.79760   0.01267  Uiso   1.00
C68    C     0.69620   0.83530   0.85160   0.01267  Uiso   1.00
C69    C     0.15890   0.92664   0.12570   0.01267  Uiso   1.00
C70    C     0.21980   0.34830   0.58920   0.01267  Uiso   1.00
C71    C     0.46701   0.68490   0.39640   0.01267  Uiso   1.00
C72    C     0.69620   0.64840   0.66470   0.01267  Uiso   1.00
C73    C     0.32860   0.12110   0.79760   0.01267  Uiso   1.00
C74    C     0.55410   0.87120   0.22340   0.01267  Uiso   1.00
C75    C     0.64260   0.82590   0.26930   0.01267  Uiso   1.00
C76    C     0.55410   0.37120   0.27660   0.01267  Uiso   1.00
C77    C     0.70600   0.18510   0.72210   0.01267  Uiso   1.00
C78    C     0.84110   0.07336   0.87430   0.01267  Uiso   1.00
C79    C     0.70100   0.21470   0.07790   0.01267  Uiso   1.00
C80    C     0.53299   0.31510   0.60360   0.01267  Uiso   1.00
C81    C     0.38100   0.23460   0.14150   0.01267  Uiso   1.00
C82    C     0.38100   0.35850   0.26540   0.01267  Uiso   1.00
C83    C     0.70600   0.31490   0.22210   0.01267  Uiso   1.00
C84    C     0.67140   0.20240   0.12110   0.01267  Uiso   1.00
C85    C     0.44590   0.27660   0.62880   0.01267  Uiso   1.00
C86    C     0.30380   0.83530   0.85160   0.01267  Uiso   1.00
C87    C     0.70100   0.57790   0.71470   0.01267  Uiso   1.00
C88    C     0.84110   0.87430   0.92664   0.01267  Uiso   1.00
C89    C     0.84110   0.92664   0.12570   0.01267  Uiso   1.00
C90    C     0.38100   0.64150   0.73460   0.01267  Uiso   1.00
C91    C     0.32860   0.20240   0.12110   0.01267  Uiso   1.00
C92    C     0.35740   0.67410   0.76930   0.01267  Uiso   1.00
C93    C     0.53299   0.10360   0.81510   0.01267  Uiso   1.00
C94    C     0.35740   0.26930   0.17410   0.01267  Uiso   1.00
C95    C     0.55410   0.77660   0.87120   0.01267  Uiso   1.00
C96    C     0.46701   0.81510   0.89640   0.01267  Uiso   1.00
C97    C     0.64260   0.32590   0.23070   0.01267  Uiso   1.00
C98    C     0.30380   0.14840   0.83530   0.01267  Uiso   1.00
C99    C     0.55410   0.22340   0.12880   0.01267  Uiso   1.00
C100   C     0.70100   0.42210   0.28530   0.01267  Uiso   1.00
C101   C     0.15890   0.07336   0.87430   0.01267  Uiso   1.00
C102   C     0.24460   0.93800   0.18940   0.01267  Uiso   1.00
C103   C     0.44590   0.62880   0.72340   0.01267  Uiso   1.00
C104   C     0.64260   0.67410   0.76930   0.01267  Uiso   1.00
C105   C     0.70100   0.07790   0.78530   0.01267  Uiso   1.00
C106   C     0.75540   0.81060   0.93800   0.01267  Uiso   1.00
C107   C     0.53299   0.68490   0.39640   0.01267  Uiso   1.00
C108   C     0.64260   0.17410   0.73070   0.01267  Uiso   1.00
C109   C     0.53299   0.18490   0.10360   0.01267  Uiso   1.00
C110   C     0.38100   0.14150   0.76540   0.01267  Uiso   1.00
C111   C     0.24460   0.56200   0.68940   0.01267  Uiso   1.00
C112   C     0.35740   0.73070   0.82590   0.01267  Uiso   1.00
C113   C     0.35740   0.23070   0.67410   0.01267  Uiso   1.00
C114   C     0.24940   0.63240   0.63940   0.01267  Uiso   1.00
C115   C     0.15890   0.87430   0.92664   0.01267  Uiso   1.00
C116   C     0.78020   0.65170   0.41080   0.01267  Uiso   1.00
C117   C     0.70600   0.81490   0.27790   0.01267  Uiso   1.00
C118   C     0.35740   0.76930   0.32590   0.01267  Uiso   1.00
C119   C     0.69620   0.35160   0.33530   0.01267  Uiso   1.00
C120   C     0.29400   0.27790   0.18510   0.01267  Uiso   1.00
C121   C     0.75540   0.31060   0.56200   0.01267  Uiso   1.00
C122   C     0.30380   0.33530   0.64840   0.01267  Uiso   1.00
C123   C     0.53299   0.60360   0.68490   0.01267  Uiso   1.00
C124   C     0.78020   0.41080   0.34830   0.01267  Uiso   1.00
C125   C     0.55410   0.27660   0.62880   0.01267  Uiso   1.00
C126   C     0.75060   0.86760   0.13940   0.01267  Uiso   1.00
C127   C     0.46701   0.60360   0.68490   0.01267  Uiso   1.00
C128   C     0.29900   0.92210   0.21470   0.01267  Uiso   1.00
C129   C     0.69620   0.85160   0.16470   0.01267  Uiso   1.00
C130   C     0.61900   0.23460   0.14150   0.01267  Uiso   1.00
C131   C     0.70100   0.71470   0.42210   0.01267  Uiso   1.00
C132   C     0.84110   0.57336   0.62570   0.01267  Uiso   1.00
C133   C     0.70100   0.78530   0.92210   0.01267  Uiso   1.00
C134   C     0.70600   0.27790   0.18510   0.01267  Uiso   1.00
C135   C     0.38100   0.26540   0.64150   0.01267  Uiso   1.00
C136   C     0.84110   0.62570   0.42664   0.01267  Uiso   1.00
C137   C     0.46701   0.89640   0.18490   0.01267  Uiso   1.00
C138   C     0.24940   0.13940   0.13240   0.01267  Uiso   1.00
C139   C     0.53299   0.81510   0.89640   0.01267  Uiso   1.00
C140   C     0.75060   0.63940   0.36760   0.01267  Uiso   1.00
C141   C     0.69620   0.66470   0.35160   0.01267  Uiso   1.00
C142   C     0.64260   0.73070   0.82590   0.01267  Uiso   1.00
C143   C     0.29900   0.42210   0.28530   0.01267  Uiso   1.00
C144   C     0.24460   0.06200   0.81060   0.01267  Uiso   1.00
C145   C     0.29900   0.07790   0.78530   0.01267  Uiso   1.00
C146   C     0.24940   0.86760   0.13940   0.01267  Uiso   1.00
C147   C     0.24940   0.86060   0.86760   0.01267  Uiso   1.00
C148   C     0.67140   0.29760   0.62110   0.01267  Uiso   1.00
C149   C     0.35740   0.32590   0.23070   0.01267  Uiso   1.00
C150   C     0.29400   0.72210   0.81490   0.01267  Uiso   1.00
C151   C     0.55410   0.62880   0.72340   0.01267  Uiso   1.00
C152   C     0.64260   0.26930   0.17410   0.01267  Uiso   1.00
C153   C     0.70600   0.22210   0.68510   0.01267  Uiso   1.00
C154   C     0.24460   0.31060   0.56200   0.01267  Uiso   1.00
C155   C     0.38100   0.73460   0.35850   0.01267  Uiso   1.00
C156   C     0.64260   0.76930   0.32590   0.01267  Uiso   1.00
C157   C     0.15890   0.57336   0.62570   0.01267  Uiso   1.00
C158   C     0.21980   0.58920   0.65170   0.01267  Uiso   1.00
C159   C     0.78020   0.91080   0.15170   0.01267  Uiso   1.00
C160   C     0.61900   0.76540   0.85850   0.01267  Uiso   1.00
C161   C     0.21980   0.84830   0.91080   0.01267  Uiso   1.00
C162   C     0.75540   0.06200   0.81060   0.01267  Uiso   1.00
C163   C     0.35740   0.17410   0.73070   0.01267  Uiso   1.00
C164   C     0.61900   0.85850   0.23460   0.01267  Uiso   1.00
C165   C     0.84110   0.37430   0.57336   0.01267  Uiso   1.00
C166   C     0.29900   0.21470   0.07790   0.01267  Uiso   1.00
C167   C     0.30380   0.16470   0.14840   0.01267  Uiso   1.00
C168   C     0.15890   0.37430   0.57336   0.01267  Uiso   1.00
C169   C     0.29900   0.57790   0.71470   0.01267  Uiso   1.00
C170   C     0.53299   0.39640   0.31510   0.01267  Uiso   1.00
C171   C     0.78020   0.58920   0.65170   0.01267  Uiso   1.00
C172   C     0.32860   0.87890   0.20240   0.01267  Uiso   1.00
C173   C     0.15890   0.42664   0.37430   0.01267  Uiso   1.00
C174   C     0.75540   0.56200   0.68940   0.01267  Uiso   1.00
C175   C     0.29900   0.28530   0.57790   0.01267  Uiso   1.00
C176   C     0.75060   0.86060   0.86760   0.01267  Uiso   1.00
C177   C     0.29400   0.77790   0.31490   0.01267  Uiso   1.00
C178   C     0.70600   0.77790   0.31490   0.01267  Uiso   1.00
C179   C     0.67140   0.87890   0.20240   0.01267  Uiso   1.00
C180   C     0.24940   0.13240   0.86060   0.01267  Uiso   1.00
C181   C     0.29400   0.31490   0.22210   0.01267  Uiso   1.00
C182   C     0.75540   0.93800   0.18940   0.01267  Uiso   1.00
C183   C     0.75540   0.43800   0.31060   0.01267  Uiso   1.00
C184   C     0.24460   0.81060   0.93800   0.01267  Uiso   1.00
C185   C     0.84110   0.12570   0.07336   0.01267  Uiso   1.00
C186   C     0.78020   0.08920   0.84830   0.01267  Uiso   1.00
C187   C     0.32860   0.62110   0.70240   0.01267  Uiso   1.00
C188   C     0.46701   0.18490   0.10360   0.01267  Uiso   1.00
C189   C     0.78020   0.15170   0.08920   0.01267  Uiso   1.00
C190   C     0.29400   0.81490   0.27790   0.01267  Uiso   1.00
C191   C     0.67140   0.62110   0.70240   0.01267  Uiso   1.00
C192   C     0.30380   0.66470   0.35160   0.01267  Uiso   1.00
N1     N     0.13070   0.89980   0.09370   0.01267  Uiso   1.00
N2     N     0.07920   0.39560   0.53250   0.01267  Uiso   1.00
N3     N     0.39650   0.69520   0.80480   0.01267  Uiso   1.00
N4     N     0.92080   0.46750   0.39560   0.01267  Uiso   1.00
N5     N     0.50000   0.35440   0.25050   0.01267  Uiso   1.00
N6     N     0.86870   0.03230   0.86580   0.01267  Uiso   1.00
N7     N     0.13130   0.13420   0.03230   0.01267  Uiso   1.00
N8     N     0.86930   0.09370   0.10020   0.01267  Uiso   1.00
N9     N     0.13130   0.63420   0.46770   0.01267  Uiso   1.00
N10    N     0.07920   0.60440   0.46750   0.01267  Uiso   1.00
N11    N     0.13070   0.40630   0.60020   0.01267  Uiso   1.00
N12    N     0.50000   0.74950   0.35440   0.01267  Uiso   1.00
N13    N     0.86870   0.63420   0.46770   0.01267  Uiso   1.00
N14    N     0.08000   0.57480   0.57900   0.01267  Uiso   1.00
N15    N     0.50000   0.85440   0.24950   0.01267  Uiso   1.00
N16    N     0.07920   0.10440   0.03250   0.01267  Uiso   1.00
N17    N     0.50000   0.14560   0.75050   0.01267  Uiso   1.00
N18    N     0.86870   0.36580   0.53230   0.01267  Uiso   1.00
N19    N     0.39650   0.19520   0.69520   0.01267  Uiso   1.00
N20    N     0.07920   0.46750   0.39560   0.01267  Uiso   1.00
N21    N     0.60350   0.19520   0.69520   0.01267  Uiso   1.00
N22    N     0.92000   0.07900   0.07480   0.01267  Uiso   1.00
N23    N     0.92000   0.42520   0.42100   0.01267  Uiso   1.00
N24    N     0.39650   0.80480   0.30480   0.01267  Uiso   1.00
N25    N     0.50000   0.64560   0.74950   0.01267  Uiso   1.00
N26    N     0.86930   0.39980   0.40630   0.01267  Uiso   1.00
N27    N     0.08000   0.42100   0.57480   0.01267  Uiso   1.00
N28    N     0.92000   0.92520   0.07900   0.01267  Uiso   1.00
N29    N     0.39650   0.30480   0.19520   0.01267  Uiso   1.00
N30    N     0.86930   0.59370   0.39980   0.01267  Uiso   1.00
N31    N     0.92080   0.10440   0.03250   0.01267  Uiso   1.00
N32    N     0.50000   0.24950   0.14560   0.01267  Uiso   1.00
N33    N     0.08000   0.07480   0.92100   0.01267  Uiso   1.00
N34    N     0.13130   0.36580   0.53230   0.01267  Uiso   1.00
N35    N     0.92080   0.96750   0.10440   0.01267  Uiso   1.00
N36    N     0.92000   0.57480   0.57900   0.01267  Uiso   1.00
N37    N     0.13130   0.96770   0.13420   0.01267  Uiso   1.00
N38    N     0.92080   0.89560   0.96750   0.01267  Uiso   1.00
N39    N     0.13130   0.86580   0.96770   0.01267  Uiso   1.00
N40    N     0.08000   0.42520   0.42100   0.01267  Uiso   1.00
N41    N     0.86870   0.86580   0.96770   0.01267  Uiso   1.00
N42    N     0.13070   0.39980   0.40630   0.01267  Uiso   1.00
N43    N     0.86930   0.60020   0.59370   0.01267  Uiso   1.00
N44    N     0.86930   0.90630   0.89980   0.01267  Uiso   1.00
N45    N     0.92080   0.53250   0.60440   0.01267  Uiso   1.00
N46    N     0.13130   0.03230   0.86580   0.01267  Uiso   1.00
N47    N     0.08000   0.92520   0.07900   0.01267  Uiso   1.00
N48    N     0.07920   0.53250   0.60440   0.01267  Uiso   1.00
N49    N     0.07920   0.89560   0.96750   0.01267  Uiso   1.00
N50    N     0.92000   0.42100   0.57480   0.01267  Uiso   1.00
N51    N     0.07920   0.96750   0.10440   0.01267  Uiso   1.00
N52    N     0.13070   0.60020   0.59370   0.01267  Uiso   1.00
N53    N     0.92000   0.07480   0.92100   0.01267  Uiso   1.00
N54    N     0.92000   0.57900   0.42520   0.01267  Uiso   1.00
N55    N     0.86930   0.89980   0.09370   0.01267  Uiso   1.00
N56    N     0.92080   0.03250   0.89560   0.01267  Uiso   1.00
N57    N     0.92080   0.60440   0.46750   0.01267  Uiso   1.00
N58    N     0.92000   0.92100   0.92520   0.01267  Uiso   1.00
N59    N     0.50000   0.75050   0.85440   0.01267  Uiso   1.00
N60    N     0.13070   0.59370   0.39980   0.01267  Uiso   1.00
N61    N     0.13070   0.10020   0.90630   0.01267  Uiso   1.00
N62    N     0.13070   0.90630   0.89980   0.01267  Uiso   1.00
N63    N     0.60350   0.30480   0.19520   0.01267  Uiso   1.00
N64    N     0.13070   0.09370   0.10020   0.01267  Uiso   1.00
N65    N     0.13130   0.46770   0.36580   0.01267  Uiso   1.00
N66    N     0.86870   0.13420   0.03230   0.01267  Uiso   1.00
N67    N     0.86870   0.53230   0.63420   0.01267  Uiso   1.00
N68    N     0.07920   0.03250   0.89560   0.01267  Uiso   1.00
N69    N     0.86870   0.46770   0.36580   0.01267  Uiso   1.00
N70    N     0.92080   0.39560   0.53250   0.01267  Uiso   1.00
N71    N     0.13130   0.53230   0.63420   0.01267  Uiso   1.00
N72    N     0.50000   0.25050   0.64560   0.01267  Uiso   1.00
N73    N     0.86930   0.40630   0.60020   0.01267  Uiso   1.00
N74    N     0.08000   0.57900   0.42520   0.01267  Uiso   1.00
N75    N     0.60350   0.80480   0.30480   0.01267  Uiso   1.00
N76    N     0.86930   0.10020   0.90630   0.01267  Uiso   1.00
N77    N     0.60350   0.69520   0.80480   0.01267  Uiso   1.00
N78    N     0.86870   0.96770   0.13420   0.01267  Uiso   1.00
N79    N     0.08000   0.92100   0.92520   0.01267  Uiso   1.00
N80    N     0.08000   0.07900   0.07480   0.01267  Uiso   1.00
Cl1    Cl    0.00000   0.95120   0.81781   0.01267  Uiso   1.00
Cl2    Cl    0.00000   0.04880   0.18219   0.01267  Uiso   1.00
Cl3    Cl    0.00000   0.54880   0.31781   0.01267  Uiso   1.00
Cl4    Cl    0.00000   0.81781   0.04880   0.01267  Uiso   1.00
Cl5    Cl    0.00000   0.45120   0.68219   0.01267  Uiso   1.00
Cl6    Cl    0.00000   0.31781   0.45120   0.01267  Uiso   1.00
Cl7    Cl    0.00000   0.18219   0.95120   0.01267  Uiso   1.00
Cl8    Cl    0.00000   0.68219   0.54880   0.01267  Uiso   1.00
