data_ja5b02999_si_007_clean
_audit_creation_date              2015-08-19
_audit_creation_method            'Materials Studio'
_symmetry_space_group_name_H-M    'P1'
_symmetry_Int_Tables_number       1
_symmetry_cell_setting            triclinic
loop_
_symmetry_equiv_pos_as_xyz
  x,y,z
_cell_length_a                    19.9050
_cell_length_b                    20.5500
_cell_length_c                    20.5500
_cell_angle_alpha                 90.0000
_cell_angle_beta                  90.0000
_cell_angle_gamma                 90.0000
loop_
_atom_site_label
_atom_site_type_symbol
_atom_site_fract_x
_atom_site_fract_y
_atom_site_fract_z
_atom_site_U_iso_or_equiv
_atom_site_adp_type
_atom_site_occupancy
Mn1    Mn    0.50000   0.40588   0.59412   0.01267  Uiso   1.00
Mn2    Mn    0.50000   0.59412   0.59412   0.01267  Uiso   1.00
Mn3    Mn    0.00000   0.50000   0.00000   0.01267  Uiso   1.00
Mn4    Mn    0.50000   0.59412   0.40588   0.01267  Uiso   1.00
Mn5    Mn    0.00000   0.00000   0.50000   0.01267  Uiso   1.00
Mn6    Mn    0.50000   0.40588   0.40588   0.01267  Uiso   1.00
H1     H     0.72520   0.74910   0.59860   0.01267  Uiso   1.00
H2     H     0.81340   0.17550   0.40140   0.01267  Uiso   1.00
H3     H     0.74950   0.06120   0.50000   0.01267  Uiso   1.00
H4     H     0.06260   0.75650   0.50000   0.01267  Uiso   1.00
H5     H     0.72520   0.59860   0.25090   0.01267  Uiso   1.00
H6     H     0.00000   0.50000   0.05700   0.01267  Uiso   1.00
H7     H     0.27480   0.74910   0.59860   0.01267  Uiso   1.00
H8     H     0.00000   0.50000   0.94300   0.01267  Uiso   1.00
H9     H     0.81340   0.40140   0.17550   0.01267  Uiso   1.00
H10    H     0.18660   0.59860   0.17550   0.01267  Uiso   1.00
H11    H     0.18660   0.82450   0.40140   0.01267  Uiso   1.00
H12    H     0.81340   0.59860   0.82450   0.01267  Uiso   1.00
H13    H     0.18660   0.82450   0.59860   0.01267  Uiso   1.00
H14    H     0.81340   0.40140   0.82450   0.01267  Uiso   1.00
H15    H     0.74950   0.50000   0.06120   0.01267  Uiso   1.00
H16    H     0.00000   0.05700   0.50000   0.01267  Uiso   1.00
H17    H     0.18660   0.17550   0.59860   0.01267  Uiso   1.00
H18    H     0.27480   0.74910   0.40140   0.01267  Uiso   1.00
H19    H     0.25050   0.06120   0.50000   0.01267  Uiso   1.00
H20    H     0.72520   0.74910   0.40140   0.01267  Uiso   1.00
H21    H     0.72520   0.25090   0.40140   0.01267  Uiso   1.00
H22    H     0.27480   0.40140   0.25090   0.01267  Uiso   1.00
H23    H     0.93740   0.24350   0.50000   0.01267  Uiso   1.00
H24    H     0.06260   0.50000   0.75650   0.01267  Uiso   1.00
H25    H     0.74950   0.93880   0.50000   0.01267  Uiso   1.00
H26    H     0.94160   0.50000   0.00000   0.01267  Uiso   1.00
H27    H     0.25050   0.50000   0.93880   0.01267  Uiso   1.00
H28    H     0.06260   0.50000   0.24350   0.01267  Uiso   1.00
H29    H     0.27480   0.59860   0.74910   0.01267  Uiso   1.00
H30    H     0.81340   0.82450   0.59860   0.01267  Uiso   1.00
H31    H     0.05840   0.00000   0.50000   0.01267  Uiso   1.00
H32    H     0.81340   0.82450   0.40140   0.01267  Uiso   1.00
H33    H     0.81340   0.59860   0.17550   0.01267  Uiso   1.00
H34    H     0.25050   0.50000   0.06120   0.01267  Uiso   1.00
H35    H     0.18660   0.17550   0.40140   0.01267  Uiso   1.00
H36    H     0.00000   0.94300   0.50000   0.01267  Uiso   1.00
H37    H     0.27480   0.25090   0.40140   0.01267  Uiso   1.00
H38    H     0.93740   0.50000   0.24350   0.01267  Uiso   1.00
H39    H     0.27480   0.40140   0.74910   0.01267  Uiso   1.00
H40    H     0.05840   0.50000   0.00000   0.01267  Uiso   1.00
H41    H     0.27480   0.25090   0.59860   0.01267  Uiso   1.00
H42    H     0.72520   0.40140   0.74910   0.01267  Uiso   1.00
H43    H     0.72520   0.59860   0.74910   0.01267  Uiso   1.00
H44    H     0.93740   0.50000   0.75650   0.01267  Uiso   1.00
H45    H     0.06260   0.24350   0.50000   0.01267  Uiso   1.00
H46    H     0.74950   0.50000   0.93880   0.01267  Uiso   1.00
H47    H     0.94160   0.00000   0.50000   0.01267  Uiso   1.00
H48    H     0.72520   0.40140   0.25090   0.01267  Uiso   1.00
H49    H     0.81340   0.17550   0.59860   0.01267  Uiso   1.00
H50    H     0.27480   0.59860   0.25090   0.01267  Uiso   1.00
H51    H     0.18660   0.59860   0.82450   0.01267  Uiso   1.00
H52    H     0.18660   0.40140   0.82450   0.01267  Uiso   1.00
H53    H     0.72520   0.25090   0.59860   0.01267  Uiso   1.00
H54    H     0.93740   0.75650   0.50000   0.01267  Uiso   1.00
H55    H     0.18660   0.40140   0.17550   0.01267  Uiso   1.00
H56    H     0.25050   0.93880   0.50000   0.01267  Uiso   1.00
C1     C     0.12210   0.50000   0.11730   0.01267  Uiso   1.00
C2     C     0.71540   0.50000   0.25618   0.01267  Uiso   1.00
C3     C     0.20520   0.44137   0.19010   0.01267  Uiso   1.00
C4     C     0.78760   0.50000   0.96680   0.01267  Uiso   1.00
C5     C     0.74240   0.55860   0.76510   0.01267  Uiso   1.00
C6     C     0.71540   0.74382   0.50000   0.01267  Uiso   1.00
C7     C     0.78760   0.03320   0.50000   0.01267  Uiso   1.00
C8     C     0.82001   0.50000   0.16675   0.01267  Uiso   1.00
C9     C     0.71540   0.25618   0.50000   0.01267  Uiso   1.00
C10    C     0.28460   0.50000   0.25618   0.01267  Uiso   1.00
C11    C     0.20520   0.19010   0.55863   0.01267  Uiso   1.00
C12    C     0.85400   0.50000   0.94880   0.01267  Uiso   1.00
C13    C     0.17999   0.50000   0.83325   0.01267  Uiso   1.00
C14    C     0.20520   0.80990   0.55863   0.01267  Uiso   1.00
C15    C     0.82001   0.50000   0.83325   0.01267  Uiso   1.00
C16    C     0.96570   0.20630   0.50000   0.01267  Uiso   1.00
C17    C     0.14600   0.50000   0.94880   0.01267  Uiso   1.00
C18    C     0.79480   0.19010   0.55863   0.01267  Uiso   1.00
C19    C     0.85400   0.94880   0.50000   0.01267  Uiso   1.00
C20    C     0.79480   0.44137   0.19010   0.01267  Uiso   1.00
C21    C     0.78760   0.50000   0.03320   0.01267  Uiso   1.00
C22    C     0.21240   0.50000   0.03320   0.01267  Uiso   1.00
C23    C     0.96570   0.50000   0.79370   0.01267  Uiso   1.00
C24    C     0.79480   0.80990   0.55863   0.01267  Uiso   1.00
C25    C     0.25760   0.76510   0.44140   0.01267  Uiso   1.00
C26    C     0.66150   0.50000   0.69780   0.01267  Uiso   1.00
C27    C     0.21240   0.03320   0.50000   0.01267  Uiso   1.00
C28    C     0.25760   0.23490   0.44140   0.01267  Uiso   1.00
C29    C     0.28460   0.74382   0.50000   0.01267  Uiso   1.00
C30    C     0.33850   0.69780   0.50000   0.01267  Uiso   1.00
C31    C     0.20520   0.55863   0.19010   0.01267  Uiso   1.00
C32    C     0.94530   0.50000   0.85740   0.01267  Uiso   1.00
C33    C     0.21240   0.50000   0.96680   0.01267  Uiso   1.00
C34    C     0.85400   0.05120   0.50000   0.01267  Uiso   1.00
C35    C     0.94530   0.85740   0.50000   0.01267  Uiso   1.00
C36    C     0.14600   0.94880   0.50000   0.01267  Uiso   1.00
C37    C     0.74240   0.44140   0.76510   0.01267  Uiso   1.00
C38    C     0.74240   0.55860   0.23490   0.01267  Uiso   1.00
C39    C     0.87790   0.50000   0.88270   0.01267  Uiso   1.00
C40    C     0.96570   0.50000   0.20630   0.01267  Uiso   1.00
C41    C     0.33850   0.50000   0.69780   0.01267  Uiso   1.00
C42    C     0.14600   0.05120   0.50000   0.01267  Uiso   1.00
C43    C     0.74240   0.76510   0.55860   0.01267  Uiso   1.00
C44    C     0.66150   0.69780   0.50000   0.01267  Uiso   1.00
C45    C     0.79480   0.55863   0.19010   0.01267  Uiso   1.00
C46    C     0.33850   0.50000   0.30220   0.01267  Uiso   1.00
C47    C     0.21240   0.96680   0.50000   0.01267  Uiso   1.00
C48    C     0.05470   0.14260   0.50000   0.01267  Uiso   1.00
C49    C     0.20520   0.80990   0.44137   0.01267  Uiso   1.00
C50    C     0.28460   0.50000   0.74382   0.01267  Uiso   1.00
C51    C     0.05470   0.50000   0.14260   0.01267  Uiso   1.00
C52    C     0.20520   0.19010   0.44137   0.01267  Uiso   1.00
C53    C     0.66150   0.30220   0.50000   0.01267  Uiso   1.00
C54    C     0.03430   0.50000   0.20630   0.01267  Uiso   1.00
C55    C     0.05470   0.50000   0.85740   0.01267  Uiso   1.00
C56    C     0.12210   0.50000   0.88270   0.01267  Uiso   1.00
C57    C     0.66150   0.50000   0.30220   0.01267  Uiso   1.00
C58    C     0.12210   0.88270   0.50000   0.01267  Uiso   1.00
C59    C     0.82001   0.16675   0.50000   0.01267  Uiso   1.00
C60    C     0.20520   0.44137   0.80990   0.01267  Uiso   1.00
C61    C     0.25760   0.44140   0.23490   0.01267  Uiso   1.00
C62    C     0.82001   0.83325   0.50000   0.01267  Uiso   1.00
C63    C     0.74240   0.23490   0.44140   0.01267  Uiso   1.00
C64    C     0.33850   0.30220   0.50000   0.01267  Uiso   1.00
C65    C     0.87790   0.88270   0.50000   0.01267  Uiso   1.00
C66    C     0.74240   0.23490   0.55860   0.01267  Uiso   1.00
C67    C     0.03430   0.20630   0.50000   0.01267  Uiso   1.00
C68    C     0.96570   0.79370   0.50000   0.01267  Uiso   1.00
C69    C     0.87790   0.50000   0.11730   0.01267  Uiso   1.00
C70    C     0.94530   0.14260   0.50000   0.01267  Uiso   1.00
C71    C     0.87790   0.11730   0.50000   0.01267  Uiso   1.00
C72    C     0.25760   0.55860   0.76510   0.01267  Uiso   1.00
C73    C     0.94530   0.50000   0.14260   0.01267  Uiso   1.00
C74    C     0.25760   0.44140   0.76510   0.01267  Uiso   1.00
C75    C     0.17999   0.50000   0.16675   0.01267  Uiso   1.00
C76    C     0.71540   0.50000   0.74382   0.01267  Uiso   1.00
C77    C     0.03430   0.79370   0.50000   0.01267  Uiso   1.00
C78    C     0.79480   0.80990   0.44137   0.01267  Uiso   1.00
C79    C     0.79480   0.44137   0.80990   0.01267  Uiso   1.00
C80    C     0.74240   0.76510   0.44140   0.01267  Uiso   1.00
C81    C     0.25760   0.55860   0.23490   0.01267  Uiso   1.00
C82    C     0.79480   0.19010   0.44137   0.01267  Uiso   1.00
C83    C     0.17999   0.83325   0.50000   0.01267  Uiso   1.00
C84    C     0.78760   0.96680   0.50000   0.01267  Uiso   1.00
C85    C     0.20520   0.55863   0.80990   0.01267  Uiso   1.00
C86    C     0.74240   0.44140   0.23490   0.01267  Uiso   1.00
C87    C     0.85400   0.50000   0.05120   0.01267  Uiso   1.00
C88    C     0.28460   0.25618   0.50000   0.01267  Uiso   1.00
C89    C     0.05470   0.85740   0.50000   0.01267  Uiso   1.00
C90    C     0.79480   0.55863   0.80990   0.01267  Uiso   1.00
C91    C     0.17999   0.16675   0.50000   0.01267  Uiso   1.00
C92    C     0.12210   0.11730   0.50000   0.01267  Uiso   1.00
C93    C     0.25760   0.23490   0.55860   0.01267  Uiso   1.00
C94    C     0.14600   0.50000   0.05120   0.01267  Uiso   1.00
C95    C     0.25760   0.76510   0.55860   0.01267  Uiso   1.00
C96    C     0.03430   0.50000   0.79370   0.01267  Uiso   1.00
N1     N     0.42304   0.46732   0.64193   0.01267  Uiso   1.00
N2     N     0.37158   0.32229   0.55430   0.01267  Uiso   1.00
N3     N     0.57696   0.64193   0.46732   0.01267  Uiso   1.00
N4     N     0.37158   0.44570   0.32229   0.01267  Uiso   1.00
N5     N     0.57696   0.35807   0.46732   0.01267  Uiso   1.00
N6     N     0.37158   0.67771   0.55430   0.01267  Uiso   1.00
N7     N     0.42304   0.35807   0.53268   0.01267  Uiso   1.00
N8     N     0.62842   0.32229   0.44570   0.01267  Uiso   1.00
N9     N     0.37158   0.67771   0.44570   0.01267  Uiso   1.00
N10    N     0.62842   0.44570   0.67771   0.01267  Uiso   1.00
N11    N     0.62842   0.44570   0.32229   0.01267  Uiso   1.00
N12    N     0.37158   0.32229   0.44570   0.01267  Uiso   1.00
N13    N     0.00000   0.50000   0.90020   0.01267  Uiso   1.00
N14    N     0.42304   0.64193   0.46732   0.01267  Uiso   1.00
N15    N     0.89740   0.00000   0.50000   0.01267  Uiso   1.00
N16    N     0.00000   0.50000   0.09980   0.01267  Uiso   1.00
N17    N     0.42304   0.53268   0.35807   0.01267  Uiso   1.00
N18    N     0.37158   0.55430   0.67771   0.01267  Uiso   1.00
N19    N     0.62842   0.32229   0.55430   0.01267  Uiso   1.00
N20    N     0.62842   0.55430   0.67771   0.01267  Uiso   1.00
N21    N     0.42304   0.35807   0.46732   0.01267  Uiso   1.00
N22    N     0.62842   0.67771   0.44570   0.01267  Uiso   1.00
N23    N     0.57696   0.53268   0.64193   0.01267  Uiso   1.00
N24    N     0.42304   0.46732   0.35807   0.01267  Uiso   1.00
N25    N     0.10260   0.00000   0.50000   0.01267  Uiso   1.00
N26    N     0.62842   0.55430   0.32229   0.01267  Uiso   1.00
N27    N     0.62842   0.67771   0.55430   0.01267  Uiso   1.00
N28    N     0.57696   0.53268   0.35807   0.01267  Uiso   1.00
N29    N     0.57696   0.64193   0.53268   0.01267  Uiso   1.00
N30    N     0.37158   0.55430   0.32229   0.01267  Uiso   1.00
N31    N     0.57696   0.46732   0.35807   0.01267  Uiso   1.00
N32    N     0.37158   0.44570   0.67771   0.01267  Uiso   1.00
N33    N     0.00000   0.09980   0.50000   0.01267  Uiso   1.00
N34    N     0.42304   0.53268   0.64193   0.01267  Uiso   1.00
N35    N     0.57696   0.46732   0.64193   0.01267  Uiso   1.00
N36    N     0.42304   0.64193   0.53268   0.01267  Uiso   1.00
N37    N     0.89740   0.50000   0.00000   0.01267  Uiso   1.00
N38    N     0.00000   0.90020   0.50000   0.01267  Uiso   1.00
N39    N     0.57696   0.35807   0.53268   0.01267  Uiso   1.00
N40    N     0.10260   0.50000   0.00000   0.01267  Uiso   1.00
