data_ja907023c_si_002_clean
_audit_creation_date              2015-08-19
_audit_creation_method            'Materials Studio'
_symmetry_space_group_name_H-M    'P1'
_symmetry_Int_Tables_number       1
_symmetry_cell_setting            triclinic
loop_
_symmetry_equiv_pos_as_xyz
  x,y,z
_cell_length_a                    20.1173
_cell_length_b                    20.1171
_cell_length_c                    20.1171
_cell_angle_alpha                 109.4710
_cell_angle_beta                  109.4710
_cell_angle_gamma                 109.4710
loop_
_atom_site_label
_atom_site_type_symbol
_atom_site_fract_x
_atom_site_fract_y
_atom_site_fract_z
_atom_site_U_iso_or_equiv
_atom_site_adp_type
_atom_site_occupancy
Co1    Co    0.50000   0.50000   0.50000   0.01267  Uiso   1.00
Co2    Co    0.00000   0.00000   0.50000   0.01267  Uiso   1.00
Co3    Co    0.00000   0.50000   0.00000   0.01267  Uiso   1.00
Co4    Co    0.50000   0.00000   0.00000   0.01267  Uiso   1.00
H1     H     0.62020   0.10480   0.19680   0.01267  Uiso   1.00
H2     H     0.74510   0.66350   0.63600   0.01267  Uiso   1.00
H3     H     0.66360   0.81580   0.93680   0.01267  Uiso   1.00
H4     H     0.19680   0.62020   0.10480   0.01267  Uiso   1.00
H5     H     0.91840   0.25490   0.89090   0.01267  Uiso   1.00
H6     H     0.80320   0.37980   0.89520   0.01267  Uiso   1.00
H7     H     0.02750   0.66350   0.91840   0.01267  Uiso   1.00
H8     H     0.06320   0.87900   0.72680   0.01267  Uiso   1.00
H9     H     0.89310   0.70060   0.27930   0.01267  Uiso   1.00
H10    H     0.42340   0.51540   0.62020   0.01267  Uiso   1.00
H11    H     0.89310   0.61380   0.19250   0.01267  Uiso   1.00
H12    H     0.91840   0.02750   0.66350   0.01267  Uiso   1.00
H13    H     0.61380   0.19250   0.89310   0.01267  Uiso   1.00
H14    H     0.89090   0.63600   0.97250   0.01267  Uiso   1.00
H15    H     0.33640   0.27320   0.15220   0.01267  Uiso   1.00
H16    H     0.12100   0.27320   0.93680   0.01267  Uiso   1.00
H17    H     0.70060   0.27930   0.89310   0.01267  Uiso   1.00
H18    H     0.08160   0.74510   0.10910   0.01267  Uiso   1.00
H19    H     0.18420   0.06320   0.33640   0.01267  Uiso   1.00
H20    H     0.81580   0.93680   0.66360   0.01267  Uiso   1.00
H21    H     0.66350   0.91840   0.02750   0.01267  Uiso   1.00
H22    H     0.10910   0.08160   0.74510   0.01267  Uiso   1.00
H23    H     0.19680   0.09200   0.57660   0.01267  Uiso   1.00
H24    H     0.15220   0.33640   0.27320   0.01267  Uiso   1.00
H25    H     0.74510   0.10910   0.08160   0.01267  Uiso   1.00
H26    H     0.15220   0.87900   0.81580   0.01267  Uiso   1.00
H27    H     0.72070   0.10690   0.29940   0.01267  Uiso   1.00
H28    H     0.63600   0.74510   0.66350   0.01267  Uiso   1.00
H29    H     0.33650   0.36400   0.25490   0.01267  Uiso   1.00
H30    H     0.62020   0.42340   0.51540   0.01267  Uiso   1.00
H31    H     0.61380   0.72070   0.42130   0.01267  Uiso   1.00
H32    H     0.70060   0.80750   0.42130   0.01267  Uiso   1.00
H33    H     0.81580   0.15220   0.87900   0.01267  Uiso   1.00
H34    H     0.48460   0.37980   0.57660   0.01267  Uiso   1.00
H35    H     0.97250   0.89090   0.63600   0.01267  Uiso   1.00
H36    H     0.42130   0.61380   0.72070   0.01267  Uiso   1.00
H37    H     0.10690   0.38620   0.80750   0.01267  Uiso   1.00
H38    H     0.08160   0.97250   0.33650   0.01267  Uiso   1.00
H39    H     0.72070   0.42130   0.61380   0.01267  Uiso   1.00
H40    H     0.33640   0.18420   0.06320   0.01267  Uiso   1.00
H41    H     0.29940   0.19250   0.57870   0.01267  Uiso   1.00
H42    H     0.57660   0.48460   0.37980   0.01267  Uiso   1.00
H43    H     0.10480   0.48460   0.90800   0.01267  Uiso   1.00
H44    H     0.09200   0.89520   0.51540   0.01267  Uiso   1.00
H45    H     0.27930   0.57870   0.38620   0.01267  Uiso   1.00
H46    H     0.80750   0.10690   0.38620   0.01267  Uiso   1.00
H47    H     0.19250   0.57870   0.29940   0.01267  Uiso   1.00
H48    H     0.84780   0.12100   0.18420   0.01267  Uiso   1.00
H49    H     0.12100   0.18420   0.84780   0.01267  Uiso   1.00
H50    H     0.38620   0.27930   0.57870   0.01267  Uiso   1.00
H51    H     0.89520   0.51540   0.09200   0.01267  Uiso   1.00
H52    H     0.93680   0.66360   0.81580   0.01267  Uiso   1.00
H53    H     0.57870   0.29940   0.19250   0.01267  Uiso   1.00
H54    H     0.66360   0.72680   0.84780   0.01267  Uiso   1.00
H55    H     0.02750   0.10910   0.36400   0.01267  Uiso   1.00
H56    H     0.89090   0.91840   0.25490   0.01267  Uiso   1.00
H57    H     0.51540   0.62020   0.42340   0.01267  Uiso   1.00
H58    H     0.66350   0.63600   0.74510   0.01267  Uiso   1.00
H59    H     0.06320   0.33640   0.18420   0.01267  Uiso   1.00
H60    H     0.25490   0.89090   0.91840   0.01267  Uiso   1.00
H61    H     0.42340   0.80320   0.90800   0.01267  Uiso   1.00
H62    H     0.25490   0.33650   0.36400   0.01267  Uiso   1.00
H63    H     0.72680   0.84780   0.66360   0.01267  Uiso   1.00
H64    H     0.29940   0.72070   0.10690   0.01267  Uiso   1.00
H65    H     0.89520   0.80320   0.37980   0.01267  Uiso   1.00
H66    H     0.27930   0.89310   0.70060   0.01267  Uiso   1.00
H67    H     0.72680   0.06320   0.87900   0.01267  Uiso   1.00
H68    H     0.09200   0.57660   0.19680   0.01267  Uiso   1.00
H69    H     0.93680   0.12100   0.27320   0.01267  Uiso   1.00
H70    H     0.80750   0.42130   0.70060   0.01267  Uiso   1.00
H71    H     0.42130   0.70060   0.80750   0.01267  Uiso   1.00
H72    H     0.57660   0.19680   0.09200   0.01267  Uiso   1.00
H73    H     0.57870   0.38620   0.27930   0.01267  Uiso   1.00
H74    H     0.51540   0.09200   0.89520   0.01267  Uiso   1.00
H75    H     0.37980   0.57660   0.48460   0.01267  Uiso   1.00
H76    H     0.90800   0.42340   0.80320   0.01267  Uiso   1.00
H77    H     0.10910   0.36400   0.02750   0.01267  Uiso   1.00
H78    H     0.48460   0.90800   0.10480   0.01267  Uiso   1.00
H79    H     0.97250   0.33650   0.08160   0.01267  Uiso   1.00
H80    H     0.87900   0.81580   0.15220   0.01267  Uiso   1.00
H81    H     0.37980   0.89520   0.80320   0.01267  Uiso   1.00
H82    H     0.36400   0.25490   0.33650   0.01267  Uiso   1.00
H83    H     0.10690   0.29940   0.72070   0.01267  Uiso   1.00
H84    H     0.87900   0.72680   0.06320   0.01267  Uiso   1.00
H85    H     0.84780   0.66360   0.72680   0.01267  Uiso   1.00
H86    H     0.80320   0.90800   0.42340   0.01267  Uiso   1.00
H87    H     0.33650   0.08160   0.97250   0.01267  Uiso   1.00
H88    H     0.10480   0.19680   0.62020   0.01267  Uiso   1.00
H89    H     0.18420   0.84780   0.12100   0.01267  Uiso   1.00
H90    H     0.63600   0.97250   0.89090   0.01267  Uiso   1.00
H91    H     0.27320   0.93680   0.12100   0.01267  Uiso   1.00
H92    H     0.90800   0.10480   0.48460   0.01267  Uiso   1.00
H93    H     0.36400   0.02750   0.10910   0.01267  Uiso   1.00
H94    H     0.27320   0.15220   0.33640   0.01267  Uiso   1.00
H95    H     0.19250   0.89310   0.61380   0.01267  Uiso   1.00
H96    H     0.38620   0.80750   0.10690   0.01267  Uiso   1.00
C1     C     0.54103   0.74611   0.85866   0.01267  Uiso   1.00
C2     C     0.10524   0.19340   0.66530   0.01267  Uiso   1.00
C3     C     0.61433   0.63128   0.74045   0.01267  Uiso   1.00
C4     C     0.25389   0.79492   0.11255   0.01267  Uiso   1.00
C5     C     0.45897   0.25389   0.14134   0.01267  Uiso   1.00
C6     C     0.74407   0.27315   0.89188   0.01267  Uiso   1.00
C7     C     0.87388   0.25955   0.89083   0.01267  Uiso   1.00
C8     C     0.19915   0.38564   0.31423   0.01267  Uiso   1.00
C9     C     0.74407   0.85219   0.47092   0.01267  Uiso   1.00
C10    C     0.74045   0.10917   0.12612   0.01267  Uiso   1.00
C11    C     0.47092   0.74407   0.85219   0.01267  Uiso   1.00
C12    C     0.10812   0.25593   0.72685   0.01267  Uiso   1.00
C13    C     0.18649   0.07141   0.38564   0.01267  Uiso   1.00
C14    C     0.27315   0.89188   0.74407   0.01267  Uiso   1.00
C15    C     0.66530   0.10524   0.19340   0.01267  Uiso   1.00
C16    C     0.19340   0.08816   0.52810   0.01267  Uiso   1.00
C17    C     0.14134   0.45897   0.25389   0.01267  Uiso   1.00
C18    C     0.25389   0.14134   0.45897   0.01267  Uiso   1.00
C19    C     0.61436   0.68577   0.80085   0.01267  Uiso   1.00
C20    C     0.33470   0.52810   0.43994   0.01267  Uiso   1.00
C21    C     0.92859   0.11508   0.31423   0.01267  Uiso   1.00
C22    C     0.08816   0.52810   0.19340   0.01267  Uiso   1.00
C23    C     0.88492   0.81351   0.19915   0.01267  Uiso   1.00
C24    C     0.11255   0.31763   0.85866   0.01267  Uiso   1.00
C25    C     0.52908   0.25593   0.14781   0.01267  Uiso   1.00
C26    C     0.63128   0.01695   0.89083   0.01267  Uiso   1.00
C27    C     0.38567   0.36872   0.25955   0.01267  Uiso   1.00
C28    C     0.25955   0.89083   0.87388   0.01267  Uiso   1.00
C29    C     0.47190   0.56006   0.66530   0.01267  Uiso   1.00
C30    C     0.98305   0.61433   0.87388   0.01267  Uiso   1.00
C31    C     0.12612   0.01695   0.38567   0.01267  Uiso   1.00
C32    C     0.72685   0.47092   0.61873   0.01267  Uiso   1.00
C33    C     0.31423   0.92859   0.11508   0.01267  Uiso   1.00
C34    C     0.61433   0.87388   0.98305   0.01267  Uiso   1.00
C35    C     0.88492   0.68577   0.07141   0.01267  Uiso   1.00
C36    C     0.07141   0.38564   0.18649   0.01267  Uiso   1.00
C37    C     0.80660   0.91184   0.47190   0.01267  Uiso   1.00
C38    C     0.74611   0.85866   0.54103   0.01267  Uiso   1.00
C39    C     0.19340   0.66530   0.10524   0.01267  Uiso   1.00
C40    C     0.85219   0.10812   0.38127   0.01267  Uiso   1.00
C41    C     0.80660   0.33470   0.89476   0.01267  Uiso   1.00
C42    C     0.81351   0.92859   0.61436   0.01267  Uiso   1.00
C43    C     0.25593   0.72685   0.10812   0.01267  Uiso   1.00
C44    C     0.72685   0.10812   0.25593   0.01267  Uiso   1.00
C45    C     0.47092   0.61873   0.72685   0.01267  Uiso   1.00
C46    C     0.11508   0.18649   0.80085   0.01267  Uiso   1.00
C47    C     0.31423   0.19915   0.38564   0.01267  Uiso   1.00
C48    C     0.25955   0.38567   0.36872   0.01267  Uiso   1.00
C49    C     0.80085   0.61436   0.68577   0.01267  Uiso   1.00
C50    C     0.20508   0.88745   0.74611   0.01267  Uiso   1.00
C51    C     0.74045   0.61433   0.63128   0.01267  Uiso   1.00
C52    C     0.52810   0.19340   0.08816   0.01267  Uiso   1.00
C53    C     0.33470   0.89476   0.80660   0.01267  Uiso   1.00
C54    C     0.81351   0.19915   0.88492   0.01267  Uiso   1.00
C55    C     0.63128   0.74045   0.61433   0.01267  Uiso   1.00
C56    C     0.43994   0.91184   0.10524   0.01267  Uiso   1.00
C57    C     0.61873   0.14781   0.89188   0.01267  Uiso   1.00
C58    C     0.88745   0.74611   0.20508   0.01267  Uiso   1.00
C59    C     0.61436   0.81351   0.92859   0.01267  Uiso   1.00
C60    C     0.68237   0.79492   0.54103   0.01267  Uiso   1.00
C61    C     0.85866   0.11255   0.31763   0.01267  Uiso   1.00
C62    C     0.25593   0.14781   0.52908   0.01267  Uiso   1.00
C63    C     0.89083   0.63128   0.01695   0.01267  Uiso   1.00
C64    C     0.31763   0.20508   0.45897   0.01267  Uiso   1.00
C65    C     0.14134   0.88745   0.68237   0.01267  Uiso   1.00
C66    C     0.79492   0.11255   0.25389   0.01267  Uiso   1.00
C67    C     0.91184   0.10524   0.43994   0.01267  Uiso   1.00
C68    C     0.89476   0.56006   0.08816   0.01267  Uiso   1.00
C69    C     0.38567   0.12612   0.01695   0.01267  Uiso   1.00
C70    C     0.01695   0.89083   0.63128   0.01267  Uiso   1.00
C71    C     0.85866   0.54103   0.74611   0.01267  Uiso   1.00
C72    C     0.74611   0.20508   0.88745   0.01267  Uiso   1.00
C73    C     0.20508   0.45897   0.31763   0.01267  Uiso   1.00
C74    C     0.36872   0.25955   0.38567   0.01267  Uiso   1.00
C75    C     0.38564   0.31423   0.19915   0.01267  Uiso   1.00
C76    C     0.18649   0.80085   0.11508   0.01267  Uiso   1.00
C77    C     0.14781   0.89188   0.61873   0.01267  Uiso   1.00
C78    C     0.12612   0.74045   0.10917   0.01267  Uiso   1.00
C79    C     0.38564   0.18649   0.07141   0.01267  Uiso   1.00
C80    C     0.47190   0.80660   0.91184   0.01267  Uiso   1.00
C81    C     0.11508   0.31423   0.92859   0.01267  Uiso   1.00
C82    C     0.89188   0.74407   0.27315   0.01267  Uiso   1.00
C83    C     0.89188   0.61873   0.14781   0.01267  Uiso   1.00
C84    C     0.10917   0.12612   0.74045   0.01267  Uiso   1.00
C85    C     0.80085   0.11508   0.18649   0.01267  Uiso   1.00
C86    C     0.19915   0.88492   0.81351   0.01267  Uiso   1.00
C87    C     0.10812   0.38127   0.85219   0.01267  Uiso   1.00
C88    C     0.38127   0.27315   0.52908   0.01267  Uiso   1.00
C89    C     0.68577   0.80085   0.61436   0.01267  Uiso   1.00
C90    C     0.87388   0.98305   0.61433   0.01267  Uiso   1.00
C91    C     0.88745   0.68237   0.14134   0.01267  Uiso   1.00
C92    C     0.36872   0.98305   0.10917   0.01267  Uiso   1.00
C93    C     0.56006   0.08816   0.89476   0.01267  Uiso   1.00
C94    C     0.61873   0.72685   0.47092   0.01267  Uiso   1.00
C95    C     0.68577   0.07141   0.88492   0.01267  Uiso   1.00
C96    C     0.66530   0.47190   0.56006   0.01267  Uiso   1.00
C97    C     0.68237   0.14134   0.88745   0.01267  Uiso   1.00
C98    C     0.85219   0.47092   0.74407   0.01267  Uiso   1.00
C99    C     0.56006   0.66530   0.47190   0.01267  Uiso   1.00
C100   C     0.98305   0.10917   0.36872   0.01267  Uiso   1.00
C101   C     0.52810   0.43994   0.33470   0.01267  Uiso   1.00
C102   C     0.79492   0.54103   0.68237   0.01267  Uiso   1.00
C103   C     0.52908   0.38127   0.27315   0.01267  Uiso   1.00
C104   C     0.91184   0.47190   0.80660   0.01267  Uiso   1.00
C105   C     0.89083   0.87388   0.25955   0.01267  Uiso   1.00
C106   C     0.38127   0.85219   0.10812   0.01267  Uiso   1.00
C107   C     0.27315   0.52908   0.38127   0.01267  Uiso   1.00
C108   C     0.92859   0.61436   0.81351   0.01267  Uiso   1.00
C109   C     0.08816   0.89476   0.56006   0.01267  Uiso   1.00
C110   C     0.10917   0.36872   0.98305   0.01267  Uiso   1.00
C111   C     0.11255   0.25389   0.79492   0.01267  Uiso   1.00
C112   C     0.89476   0.80660   0.33470   0.01267  Uiso   1.00
C113   C     0.07141   0.88492   0.68577   0.01267  Uiso   1.00
C114   C     0.43994   0.33470   0.52810   0.01267  Uiso   1.00
C115   C     0.45897   0.31763   0.20508   0.01267  Uiso   1.00
C116   C     0.01695   0.38567   0.12612   0.01267  Uiso   1.00
C117   C     0.14781   0.52908   0.25593   0.01267  Uiso   1.00
C118   C     0.31763   0.85866   0.11255   0.01267  Uiso   1.00
C119   C     0.10524   0.43994   0.91184   0.01267  Uiso   1.00
C120   C     0.54103   0.68237   0.79492   0.01267  Uiso   1.00
N1     N     0.97412   0.54335   0.87091   0.01267  Uiso   1.00
N2     N     0.02588   0.89679   0.56923   0.01267  Uiso   1.00
N3     N     0.43077   0.97412   0.10321   0.01267  Uiso   1.00
N4     N     0.89679   0.56923   0.02588   0.01267  Uiso   1.00
N5     N     0.32756   0.45665   0.43077   0.01267  Uiso   1.00
N6     N     0.43077   0.32756   0.45665   0.01267  Uiso   1.00
N7     N     0.45665   0.43077   0.32756   0.01267  Uiso   1.00
N8     N     0.56923   0.02588   0.89679   0.01267  Uiso   1.00
N9     N     0.89679   0.87091   0.32756   0.01267  Uiso   1.00
N10    N     0.67244   0.10321   0.12909   0.01267  Uiso   1.00
N11    N     0.12909   0.67244   0.10321   0.01267  Uiso   1.00
N12    N     0.12909   0.02588   0.45665   0.01267  Uiso   1.00
N13    N     0.54335   0.87091   0.97412   0.01267  Uiso   1.00
N14    N     0.87091   0.32756   0.89679   0.01267  Uiso   1.00
N15    N     0.56923   0.67244   0.54335   0.01267  Uiso   1.00
N16    N     0.10321   0.12909   0.67244   0.01267  Uiso   1.00
N17    N     0.54335   0.56923   0.67244   0.01267  Uiso   1.00
N18    N     0.97412   0.10321   0.43077   0.01267  Uiso   1.00
N19    N     0.87091   0.97412   0.54335   0.01267  Uiso   1.00
N20    N     0.10321   0.43077   0.97412   0.01267  Uiso   1.00
N21    N     0.45665   0.12909   0.02588   0.01267  Uiso   1.00
N22    N     0.67244   0.54335   0.56923   0.01267  Uiso   1.00
N23    N     0.02588   0.45665   0.12909   0.01267  Uiso   1.00
N24    N     0.32756   0.89679   0.87091   0.01267  Uiso   1.00
O1     O     0.06738   0.96733   0.45227   0.01267  Uiso   1.00
O2     O     0.89995   0.93262   0.38489   0.01267  Uiso   1.00
O3     O     0.51506   0.61511   0.54773   0.01267  Uiso   1.00
O4     O     0.48494   0.38489   0.45227   0.01267  Uiso   1.00
O5     O     0.45227   0.06738   0.96733   0.01267  Uiso   1.00
O6     O     0.61511   0.54773   0.51506   0.01267  Uiso   1.00
O7     O     0.38489   0.89995   0.93262   0.01267  Uiso   1.00
O8     O     0.45227   0.48494   0.38489   0.01267  Uiso   1.00
O9     O     0.03267   0.10005   0.48494   0.01267  Uiso   1.00
O10    O     0.61511   0.10005   0.06738   0.01267  Uiso   1.00
O11    O     0.03267   0.54773   0.93262   0.01267  Uiso   1.00
O12    O     0.06738   0.61511   0.10005   0.01267  Uiso   1.00
O13    O     0.96733   0.89995   0.51506   0.01267  Uiso   1.00
O14    O     0.54773   0.51506   0.61511   0.01267  Uiso   1.00
O15    O     0.54773   0.93262   0.03267   0.01267  Uiso   1.00
O16    O     0.10005   0.48494   0.03267   0.01267  Uiso   1.00
O17    O     0.93262   0.03267   0.54773   0.01267  Uiso   1.00
O18    O     0.48494   0.03267   0.10005   0.01267  Uiso   1.00
O19    O     0.89995   0.51506   0.96733   0.01267  Uiso   1.00
O20    O     0.93262   0.38489   0.89995   0.01267  Uiso   1.00
O21    O     0.10005   0.06738   0.61511   0.01267  Uiso   1.00
O22    O     0.38489   0.45227   0.48494   0.01267  Uiso   1.00
O23    O     0.51506   0.96733   0.89995   0.01267  Uiso   1.00
O24    O     0.96733   0.45227   0.06738   0.01267  Uiso   1.00
