data_ja907023c_si_001_clean
_audit_creation_date              2015-08-19
_audit_creation_method            'Materials Studio'
_symmetry_space_group_name_H-M    'P1'
_symmetry_Int_Tables_number       1
_symmetry_cell_setting            triclinic
loop_
_symmetry_equiv_pos_as_xyz
  x,y,z
_cell_length_a                    20.0576
_cell_length_b                    20.0574
_cell_length_c                    20.0574
_cell_angle_alpha                 109.4710
_cell_angle_beta                  109.4710
_cell_angle_gamma                 109.4710
loop_
_atom_site_label
_atom_site_type_symbol
_atom_site_fract_x
_atom_site_fract_y
_atom_site_fract_z
_atom_site_U_iso_or_equiv
_atom_site_adp_type
_atom_site_occupancy
Co1    Co    0.50000  -0.00000   0.00000   0.01267  Uiso   1.00
Co2    Co    0.00000   0.50000   0.00000   0.01267  Uiso   1.00
Co3    Co    0.50000   0.50000   0.50000   0.01267  Uiso   1.00
Co4    Co    0.00000   0.00000   0.50000   0.01267  Uiso   1.00
H1     H     0.73050   0.84850   0.66540   0.01267  Uiso   1.00
H2     H     0.66550   0.92000   0.03210   0.01267  Uiso   1.00
H3     H     0.18970   0.89220   0.61330   0.01267  Uiso   1.00
H4     H     0.88200   0.81690   0.15150   0.01267  Uiso   1.00
H5     H     0.61330   0.18970   0.89220   0.01267  Uiso   1.00
H6     H     0.89220   0.61330   0.18970   0.01267  Uiso   1.00
H7     H     0.03210   0.11210   0.36660   0.01267  Uiso   1.00
H8     H     0.93490   0.66540   0.81690   0.01267  Uiso   1.00
H9     H     0.89830   0.80510   0.38120   0.01267  Uiso   1.00
H10    H     0.57640   0.29750   0.18970   0.01267  Uiso   1.00
H11    H     0.70250   0.81030   0.42360   0.01267  Uiso   1.00
H12    H     0.88200   0.73050   0.06510   0.01267  Uiso   1.00
H13    H     0.61330   0.72110   0.42360   0.01267  Uiso   1.00
H14    H     0.25450   0.33450   0.36660   0.01267  Uiso   1.00
H15    H     0.48290   0.38120   0.57610   0.01267  Uiso   1.00
H16    H     0.33460   0.18310   0.06510   0.01267  Uiso   1.00
H17    H     0.84850   0.66540   0.73050   0.01267  Uiso   1.00
H18    H     0.89220   0.70250   0.27890   0.01267  Uiso   1.00
H19    H     0.18310   0.84850   0.11800   0.01267  Uiso   1.00
H20    H     0.11800   0.26950   0.93490   0.01267  Uiso   1.00
H21    H     0.63340   0.96790   0.88790   0.01267  Uiso   1.00
H22    H     0.81030   0.10780   0.38670   0.01267  Uiso   1.00
H23    H     0.33460   0.26950   0.15150   0.01267  Uiso   1.00
H24    H     0.66540   0.81690   0.93490   0.01267  Uiso   1.00
H25    H     0.10780   0.38670   0.81030   0.01267  Uiso   1.00
H26    H     0.09320   0.57610   0.19490   0.01267  Uiso   1.00
H27    H     0.38120   0.89830   0.80510   0.01267  Uiso   1.00
H28    H     0.61880   0.42390   0.51710   0.01267  Uiso   1.00
H29    H     0.81690   0.93490   0.66540   0.01267  Uiso   1.00
H30    H     0.38120   0.57610   0.48290   0.01267  Uiso   1.00
H31    H     0.10170   0.48290   0.90680   0.01267  Uiso   1.00
H32    H     0.42390   0.51710   0.61880   0.01267  Uiso   1.00
H33    H     0.81690   0.15150   0.88200   0.01267  Uiso   1.00
H34    H     0.29750   0.18970   0.57640   0.01267  Uiso   1.00
H35    H     0.92000   0.03210   0.66550   0.01267  Uiso   1.00
H36    H     0.51710   0.09320   0.89830   0.01267  Uiso   1.00
H37    H     0.57640   0.38670   0.27890   0.01267  Uiso   1.00
H38    H     0.57610   0.19490   0.09320   0.01267  Uiso   1.00
H39    H     0.63340   0.74550   0.66550   0.01267  Uiso   1.00
H40    H     0.18970   0.57640   0.29750   0.01267  Uiso   1.00
H41    H     0.26950   0.15150   0.33460   0.01267  Uiso   1.00
H42    H     0.72110   0.42360   0.61330   0.01267  Uiso   1.00
H43    H     0.36660   0.25450   0.33450   0.01267  Uiso   1.00
H44    H     0.03210   0.66550   0.92000   0.01267  Uiso   1.00
H45    H     0.74550   0.11210   0.08000   0.01267  Uiso   1.00
H46    H     0.89830   0.51710   0.09320   0.01267  Uiso   1.00
H47    H     0.38670   0.81030   0.10780   0.01267  Uiso   1.00
H48    H     0.06510   0.33460   0.18310   0.01267  Uiso   1.00
H49    H     0.57610   0.48290   0.38120   0.01267  Uiso   1.00
H50    H     0.08000   0.96790   0.33450   0.01267  Uiso   1.00
H51    H     0.33450   0.36660   0.25450   0.01267  Uiso   1.00
H52    H     0.81030   0.42360   0.70250   0.01267  Uiso   1.00
H53    H     0.90680   0.42390   0.80510   0.01267  Uiso   1.00
H54    H     0.29750   0.72110   0.10780   0.01267  Uiso   1.00
H55    H     0.42360   0.70250   0.81030   0.01267  Uiso   1.00
H56    H     0.10780   0.29750   0.72110   0.01267  Uiso   1.00
H57    H     0.93490   0.11800   0.26950   0.01267  Uiso   1.00
H58    H     0.70250   0.27890   0.89220   0.01267  Uiso   1.00
H59    H     0.08000   0.74550   0.11210   0.01267  Uiso   1.00
H60    H     0.10170   0.19490   0.61880   0.01267  Uiso   1.00
H61    H     0.11210   0.36660   0.03210   0.01267  Uiso   1.00
H62    H     0.96790   0.33450   0.08000   0.01267  Uiso   1.00
H63    H     0.74550   0.66550   0.63340   0.01267  Uiso   1.00
H64    H     0.11210   0.08000   0.74550   0.01267  Uiso   1.00
H65    H     0.80510   0.90680   0.42390   0.01267  Uiso   1.00
H66    H     0.15150   0.88200   0.81690   0.01267  Uiso   1.00
H67    H     0.88790   0.63340   0.96790   0.01267  Uiso   1.00
H68    H     0.19490   0.61880   0.10170   0.01267  Uiso   1.00
H69    H     0.51710   0.61880   0.42390   0.01267  Uiso   1.00
H70    H     0.92000   0.25450   0.88790   0.01267  Uiso   1.00
H71    H     0.73050   0.06510   0.88200   0.01267  Uiso   1.00
H72    H     0.18310   0.06510   0.33460   0.01267  Uiso   1.00
H73    H     0.72110   0.10780   0.29750   0.01267  Uiso   1.00
H74    H     0.27890   0.89220   0.70250   0.01267  Uiso   1.00
H75    H     0.15150   0.33460   0.26950   0.01267  Uiso   1.00
H76    H     0.36660   0.03210   0.11210   0.01267  Uiso   1.00
H77    H     0.90680   0.10170   0.48290   0.01267  Uiso   1.00
H78    H     0.66540   0.73050   0.84850   0.01267  Uiso   1.00
H79    H     0.42360   0.61330   0.72110   0.01267  Uiso   1.00
H80    H     0.38670   0.27890   0.57640   0.01267  Uiso   1.00
H81    H     0.88790   0.92000   0.25450   0.01267  Uiso   1.00
H82    H     0.42390   0.80510   0.90680   0.01267  Uiso   1.00
H83    H     0.33450   0.08000   0.96790   0.01267  Uiso   1.00
H84    H     0.80510   0.38120   0.89830   0.01267  Uiso   1.00
H85    H     0.25450   0.88790   0.92000   0.01267  Uiso   1.00
H86    H     0.96790   0.88790   0.63340   0.01267  Uiso   1.00
H87    H     0.27890   0.57640   0.38670   0.01267  Uiso   1.00
H88    H     0.11800   0.18310   0.84850   0.01267  Uiso   1.00
H89    H     0.48290   0.90680   0.10170   0.01267  Uiso   1.00
H90    H     0.06510   0.88200   0.73050   0.01267  Uiso   1.00
H91    H     0.19490   0.09320   0.57610   0.01267  Uiso   1.00
H92    H     0.09320   0.89830   0.51710   0.01267  Uiso   1.00
H93    H     0.61880   0.10170   0.19490   0.01267  Uiso   1.00
H94    H     0.84850   0.11800   0.18310   0.01267  Uiso   1.00
H95    H     0.66550   0.63340   0.74550   0.01267  Uiso   1.00
H96    H     0.26950   0.93490   0.11800   0.01267  Uiso   1.00
C1     C     0.56100   0.66500   0.47260   0.01267  Uiso   1.00
C2     C     0.89210   0.61830   0.14520   0.01267  Uiso   1.00
C3     C     0.52740   0.43900   0.33500   0.01267  Uiso   1.00
C4     C     0.13830   0.88790   0.68540   0.01267  Uiso   1.00
C5     C     0.80760   0.33500   0.89600   0.01267  Uiso   1.00
C6     C     0.12370   0.01360   0.38350   0.01267  Uiso   1.00
C7     C     0.92750   0.61590   0.81360   0.01267  Uiso   1.00
C8     C     0.25310   0.14520   0.52690   0.01267  Uiso   1.00
C9     C     0.33500   0.89600   0.80760   0.01267  Uiso   1.00
C10    C     0.19240   0.08840   0.52740   0.01267  Uiso   1.00
C11    C     0.14520   0.89210   0.61830   0.01267  Uiso   1.00
C12    C     0.92750   0.11390   0.31160   0.01267  Uiso   1.00
C13    C     0.27380   0.52690   0.38170   0.01267  Uiso   1.00
C14    C     0.54710   0.68540   0.79750   0.01267  Uiso   1.00
C15    C     0.66500   0.47260   0.56100   0.01267  Uiso   1.00
C16    C     0.38410   0.18640   0.07250   0.01267  Uiso   1.00
C17    C     0.68540   0.79750   0.54710   0.01267  Uiso   1.00
C18    C     0.88790   0.68540   0.13830   0.01267  Uiso   1.00
C19    C     0.88990   0.63010   0.01360   0.01267  Uiso   1.00
C20    C     0.11210   0.25040   0.79750   0.01267  Uiso   1.00
C21    C     0.25040   0.79750   0.11210   0.01267  Uiso   1.00
C22    C     0.11010   0.12370   0.74020   0.01267  Uiso   1.00
C23    C     0.79750   0.11210   0.25040   0.01267  Uiso   1.00
C24    C     0.31160   0.19770   0.38410   0.01267  Uiso   1.00
C25    C     0.87630   0.98640   0.61650   0.01267  Uiso   1.00
C26    C     0.86170   0.11210   0.31460   0.01267  Uiso   1.00
C27    C     0.61830   0.14520   0.89210   0.01267  Uiso   1.00
C28    C     0.36990   0.98640   0.11010   0.01267  Uiso   1.00
C29    C     0.52690   0.25310   0.14520   0.01267  Uiso   1.00
C30    C     0.18640   0.07250   0.38410   0.01267  Uiso   1.00
C31    C     0.01360   0.38350   0.12370   0.01267  Uiso   1.00
C32    C     0.12370   0.74020   0.11010   0.01267  Uiso   1.00
C33    C     0.20250   0.88790   0.74960   0.01267  Uiso   1.00
C34    C     0.61590   0.68840   0.80230   0.01267  Uiso   1.00
C35    C     0.08840   0.89600   0.56100   0.01267  Uiso   1.00
C36    C     0.20250   0.45290   0.31460   0.01267  Uiso   1.00
C37    C     0.61650   0.87630   0.98640   0.01267  Uiso   1.00
C38    C     0.72620   0.10790   0.25310   0.01267  Uiso   1.00
C39    C     0.38350   0.36990   0.25980   0.01267  Uiso   1.00
C40    C     0.68840   0.07250   0.88610   0.01267  Uiso   1.00
C41    C     0.74690   0.27380   0.89210   0.01267  Uiso   1.00
C42    C     0.36990   0.25980   0.38350   0.01267  Uiso   1.00
C43    C     0.19770   0.88610   0.81360   0.01267  Uiso   1.00
C44    C     0.56100   0.08840   0.89600   0.01267  Uiso   1.00
C45    C     0.87630   0.25980   0.88990   0.01267  Uiso   1.00
C46    C     0.43900   0.91160   0.10400   0.01267  Uiso   1.00
C47    C     0.45290   0.25040   0.13830   0.01267  Uiso   1.00
C48    C     0.47260   0.56100   0.66500   0.01267  Uiso   1.00
C49    C     0.52690   0.38170   0.27380   0.01267  Uiso   1.00
C50    C     0.61830   0.72620   0.47310   0.01267  Uiso   1.00
C51    C     0.81360   0.19770   0.88610   0.01267  Uiso   1.00
C52    C     0.74960   0.20250   0.88790   0.01267  Uiso   1.00
C53    C     0.10400   0.19240   0.66500   0.01267  Uiso   1.00
C54    C     0.25040   0.13830   0.45290   0.01267  Uiso   1.00
C55    C     0.07250   0.88610   0.68840   0.01267  Uiso   1.00
C56    C     0.88610   0.68840   0.07250   0.01267  Uiso   1.00
C57    C     0.63010   0.01360   0.88990   0.01267  Uiso   1.00
C58    C     0.08840   0.52740   0.19240   0.01267  Uiso   1.00
C59    C     0.80230   0.61590   0.68840   0.01267  Uiso   1.00
C60    C     0.63010   0.74020   0.61650   0.01267  Uiso   1.00
C61    C     0.38170   0.85480   0.10790   0.01267  Uiso   1.00
C62    C     0.10790   0.25310   0.72620   0.01267  Uiso   1.00
C63    C     0.11390   0.18640   0.80230   0.01267  Uiso   1.00
C64    C     0.25310   0.72620   0.10790   0.01267  Uiso   1.00
C65    C     0.89210   0.74690   0.27380   0.01267  Uiso   1.00
C66    C     0.54710   0.74960   0.86170   0.01267  Uiso   1.00
C67    C     0.52740   0.19240   0.08840   0.01267  Uiso   1.00
C68    C     0.11210   0.31460   0.86170   0.01267  Uiso   1.00
C69    C     0.88790   0.74960   0.20250   0.01267  Uiso   1.00
C70    C     0.45290   0.31460   0.20250   0.01267  Uiso   1.00
C71    C     0.89600   0.80760   0.33500   0.01267  Uiso   1.00
C72    C     0.38350   0.12370   0.01360   0.01267  Uiso   1.00
C73    C     0.88990   0.87630   0.25980   0.01267  Uiso   1.00
C74    C     0.79750   0.54710   0.68540   0.01267  Uiso   1.00
C75    C     0.85480   0.10790   0.38170   0.01267  Uiso   1.00
C76    C     0.01360   0.88990   0.63010   0.01267  Uiso   1.00
C77    C     0.31460   0.86170   0.11210   0.01267  Uiso   1.00
C78    C     0.38170   0.27380   0.52690   0.01267  Uiso   1.00
C79    C     0.74690   0.85480   0.47310   0.01267  Uiso   1.00
C80    C     0.80230   0.11390   0.18640   0.01267  Uiso   1.00
C81    C     0.33500   0.52740   0.43900   0.01267  Uiso   1.00
C82    C     0.61650   0.63010   0.74020   0.01267  Uiso   1.00
C83    C     0.07250   0.38410   0.18640   0.01267  Uiso   1.00
C84    C     0.91160   0.47260   0.80760   0.01267  Uiso   1.00
C85    C     0.74960   0.86170   0.54710   0.01267  Uiso   1.00
C86    C     0.18640   0.80230   0.11390   0.01267  Uiso   1.00
C87    C     0.43900   0.33500   0.52740   0.01267  Uiso   1.00
C88    C     0.11010   0.36990   0.98640   0.01267  Uiso   1.00
C89    C     0.47260   0.80760   0.91160   0.01267  Uiso   1.00
C90    C     0.89600   0.56100   0.08840   0.01267  Uiso   1.00
C91    C     0.25980   0.38350   0.36990   0.01267  Uiso   1.00
C92    C     0.98640   0.11010   0.36990   0.01267  Uiso   1.00
C93    C     0.72620   0.47310   0.61830   0.01267  Uiso   1.00
C94    C     0.85480   0.47310   0.74690   0.01267  Uiso   1.00
C95    C     0.10790   0.38170   0.85480   0.01267  Uiso   1.00
C96    C     0.38410   0.31160   0.19770   0.01267  Uiso   1.00
C97    C     0.74020   0.11010   0.12370   0.01267  Uiso   1.00
C98    C     0.66500   0.10400   0.19240   0.01267  Uiso   1.00
C99    C     0.98640   0.61650   0.87630   0.01267  Uiso   1.00
C100   C     0.31460   0.20250   0.45290   0.01267  Uiso   1.00
C101   C     0.47310   0.61830   0.72620   0.01267  Uiso   1.00
C102   C     0.27380   0.89210   0.74690   0.01267  Uiso   1.00
C103   C     0.74020   0.61650   0.63010   0.01267  Uiso   1.00
C104   C     0.13830   0.45290   0.25040   0.01267  Uiso   1.00
C105   C     0.91160   0.10400   0.43900   0.01267  Uiso   1.00
C106   C     0.68840   0.80230   0.61590   0.01267  Uiso   1.00
C107   C     0.68540   0.13830   0.88790   0.01267  Uiso   1.00
C108   C     0.11390   0.31160   0.92750   0.01267  Uiso   1.00
C109   C     0.81360   0.92750   0.61590   0.01267  Uiso   1.00
C110   C     0.47310   0.74690   0.85480   0.01267  Uiso   1.00
C111   C     0.80760   0.91160   0.47260   0.01267  Uiso   1.00
C112   C     0.14520   0.52690   0.25310   0.01267  Uiso   1.00
C113   C     0.10400   0.43900   0.91160   0.01267  Uiso   1.00
C114   C     0.61590   0.81360   0.92750   0.01267  Uiso   1.00
C115   C     0.25980   0.88990   0.87630   0.01267  Uiso   1.00
C116   C     0.88610   0.81360   0.19770   0.01267  Uiso   1.00
C117   C     0.31160   0.92750   0.11390   0.01267  Uiso   1.00
C118   C     0.19240   0.66500   0.10400   0.01267  Uiso   1.00
C119   C     0.19770   0.38410   0.31160   0.01267  Uiso   1.00
C120   C     0.86170   0.54710   0.74960   0.01267  Uiso   1.00
N1     N     0.87240   0.32540   0.89640   0.01267  Uiso   1.00
N2     N     0.67460   0.10360   0.12760   0.01267  Uiso   1.00
N3     N     0.02400   0.89640   0.57100   0.01267  Uiso   1.00
N4     N     0.54700   0.87240   0.97600   0.01267  Uiso   1.00
N5     N     0.87240   0.97600   0.54700   0.01267  Uiso   1.00
N6     N     0.10360   0.42900   0.97600   0.01267  Uiso   1.00
N7     N     0.45300   0.42900   0.32540   0.01267  Uiso   1.00
N8     N     0.57100   0.67460   0.54700   0.01267  Uiso   1.00
N9     N     0.89640   0.87240   0.32540   0.01267  Uiso   1.00
N10    N     0.02400   0.45300   0.12760   0.01267  Uiso   1.00
N11    N     0.12760   0.02400   0.45300   0.01267  Uiso   1.00
N12    N     0.42900   0.32540   0.45300   0.01267  Uiso   1.00
N13    N     0.89640   0.57100   0.02400   0.01267  Uiso   1.00
N14    N     0.97600   0.10360   0.42900   0.01267  Uiso   1.00
N15    N     0.10360   0.12760   0.67460   0.01267  Uiso   1.00
N16    N     0.97600   0.54700   0.87240   0.01267  Uiso   1.00
N17    N     0.42900   0.97600   0.10360   0.01267  Uiso   1.00
N18    N     0.54700   0.57100   0.67460   0.01267  Uiso   1.00
N19    N     0.57100   0.02400   0.89640   0.01267  Uiso   1.00
N20    N     0.32540   0.89640   0.87240   0.01267  Uiso   1.00
N21    N     0.67460   0.54700   0.57100   0.01267  Uiso   1.00
N22    N     0.12760   0.67460   0.10360   0.01267  Uiso   1.00
N23    N     0.45300   0.12760   0.02400   0.01267  Uiso   1.00
N24    N     0.32540   0.45300   0.42900   0.01267  Uiso   1.00
O1     O     0.96700   0.45170   0.06710   0.01267  Uiso   1.00
O2     O     0.10010   0.48470   0.03300   0.01267  Uiso   1.00
O3     O     0.45170   0.48470   0.38460   0.01267  Uiso   1.00
O4     O     0.51530   0.96700   0.89990   0.01267  Uiso   1.00
O5     O     0.48470   0.38460   0.45170   0.01267  Uiso   1.00
O6     O     0.54830   0.51530   0.61540   0.01267  Uiso   1.00
O7     O     0.10010   0.06710   0.61540   0.01267  Uiso   1.00
O8     O     0.89990   0.51530   0.96700   0.01267  Uiso   1.00
O9     O     0.51530   0.61540   0.54830   0.01267  Uiso   1.00
O10    O     0.61540   0.54830   0.51530   0.01267  Uiso   1.00
O11    O     0.89990   0.93290   0.38460   0.01267  Uiso   1.00
O12    O     0.93290   0.03300   0.54830   0.01267  Uiso   1.00
O13    O     0.48470   0.03300   0.10010   0.01267  Uiso   1.00
O14    O     0.03300   0.10010   0.48470   0.01267  Uiso   1.00
O15    O     0.38460   0.45170   0.48470   0.01267  Uiso   1.00
O16    O     0.38460   0.89990   0.93290   0.01267  Uiso   1.00
O17    O     0.45170   0.06710   0.96700   0.01267  Uiso   1.00
O18    O     0.54830   0.93290   0.03300   0.01267  Uiso   1.00
O19    O     0.96700   0.89990   0.51530   0.01267  Uiso   1.00
O20    O     0.06710   0.96700   0.45170   0.01267  Uiso   1.00
O21    O     0.03300   0.54830   0.93290   0.01267  Uiso   1.00
O22    O     0.93290   0.38460   0.89990   0.01267  Uiso   1.00
O23    O     0.61540   0.10010   0.06710   0.01267  Uiso   1.00
O24    O     0.06710   0.61540   0.10010   0.01267  Uiso   1.00
