data_ja903726m_si_002_clean
_audit_creation_date              2015-10-29
_audit_creation_method            'Materials Studio'
_symmetry_space_group_name_H-M    'P1'
_symmetry_Int_Tables_number       1
_symmetry_cell_setting            triclinic
loop_
_symmetry_equiv_pos_as_xyz
  x,y,z
_cell_length_a                    16.0096
_cell_length_b                    16.0093
_cell_length_c                    16.0093
_cell_angle_alpha                 108.7310
_cell_angle_beta                  108.7320
_cell_angle_gamma                 110.9620
loop_
_atom_site_label
_atom_site_type_symbol
_atom_site_fract_x
_atom_site_fract_y
_atom_site_fract_z
_atom_site_U_iso_or_equiv
_atom_site_adp_type
_atom_site_occupancy
Ti1    Ti    0.28907   0.57933   0.87045   0.01267  Uiso   1.00
Ti2    Ti    0.57626   0.70969   0.28285   0.01267  Uiso   1.00
Ti3    Ti    0.42210   0.29618   0.71754   0.01267  Uiso   1.00
Ti4    Ti    0.57361   0.29122   0.87121   0.01267  Uiso   1.00
Ti5    Ti    0.70455   0.57864   0.28246   0.01267  Uiso   1.00
Ti6    Ti    0.41863   0.70889   0.12955   0.01267  Uiso   1.00
Ti7    Ti    0.29341   0.42684   0.71715   0.01267  Uiso   1.00
Ti8    Ti    0.70240   0.42001   0.12879   0.01267  Uiso   1.00
C9     C     0.95932   0.43570   0.39715   0.01267  Uiso   1.00
C10    C     0.49496  -0.00655   0.90862   0.01267  Uiso   1.00
C11    C     0.90375   0.42512   0.90839   0.01267  Uiso   1.00
C12    C     0.80523   0.80847   0.39478   0.01267  Uiso   1.00
C13    C     0.19356   0.19749   0.60238   0.01267  Uiso   1.00
C14    C     0.56217   0.03855   0.60285   0.01267  Uiso   1.00
C15    C     0.08986   0.54290   0.00000   0.01267  Uiso   1.00
C16    C     0.45853   0.89907   0.90863   0.01267  Uiso   1.00
C17    C     0.49705   0.84437   0.34376   0.01267  Uiso   1.00
C18    C     0.55820   0.08827  -0.00000   0.01267  Uiso   1.00
C19    C     0.09360   0.09746   0.54480   0.01267  Uiso   1.00
C20    C     0.49696   0.92418   0.42415   0.01267  Uiso   1.00
C21    C    -0.00007   0.09519   0.52203   0.01267  Uiso   1.00
C22    C     0.90514   0.90839   0.45120   0.01267  Uiso   1.00
C23    C     0.59117   0.59511   0.39761   0.01267  Uiso   1.00
C24    C     0.57162   0.48377   0.48015   0.01267  Uiso   1.00
C25    C     0.09147   0.00362   0.51985   0.01267  Uiso   1.00
C26    C     0.58638   0.08482   0.09137   0.01267  Uiso   1.00
C27    C     0.15329   0.50061   0.65625   0.01267  Uiso   1.00
C28    C     0.54995   0.99044   0.09136   0.01267  Uiso   1.00
C29    C     0.43174   0.96256   0.39821   0.01267  Uiso   1.00
C30    C     0.43186   0.03793   0.47344   0.01267  Uiso   1.00
C31    C     0.48314   0.89564  -0.00000   0.01267  Uiso   1.00
C32    C     0.59101   0.18948  -0.00000   0.01267  Uiso   1.00
C33    C     0.56218   0.96330   0.52760   0.01267  Uiso   1.00
C34    C     0.43130   0.52626   0.52405   0.01267  Uiso   1.00
C35    C     0.99536   0.51673   0.09161   0.01267  Uiso   1.00
C36    C     0.07281   0.50003   0.57586   0.01267  Uiso   1.00
C37    C     0.52503   0.43688   0.52625   0.01267  Uiso   1.00
C38    C     0.90177   0.44670   0.00000   0.01267  Uiso   1.00
C39    C     0.03352   0.56435   0.60179   0.01267  Uiso   1.00
C40    C     0.84013   0.50011   0.34281   0.01267  Uiso   1.00
C41    C     0.95842   0.56449   0.52656   0.01267  Uiso   1.00
C42    C     0.43493   0.79281  -0.00000   0.01267  Uiso   1.00
C43    C     0.90725   1.00221   0.47595   0.01267  Uiso   1.00
C44    C     0.99878   0.91063   0.47375   0.01267  Uiso   1.00
C45    C     0.54879   0.55266   0.45520   0.01267  Uiso   1.00
C46    C     0.45395   0.45720   0.54881   0.01267  Uiso   1.00
C47    C    -0.00365   0.47244   0.90839   0.01267  Uiso   1.00
C48    C     0.18937   0.58774  -0.00000   0.01267  Uiso   1.00
C49    C     0.03458   0.43570   0.47240   0.01267  Uiso   1.00
C50    C     0.47790   0.57315   0.47797   0.01267  Uiso   1.00
C51    C     0.49709   0.07708   0.57689   0.01267  Uiso   1.00
C52    C     0.92019   0.50018   0.42311   0.01267  Uiso   1.00
C53    C     0.80205   0.40442   0.00000   0.01267  Uiso   1.00
C54    C     0.41045   0.41370   0.60523   0.01267  Uiso   1.00
C55    C     0.49732   0.15730   0.65719   0.01267  Uiso   1.00
C56    C     0.08796   0.56406   0.09161   0.01267  Uiso   1.00
O57    O     0.35150   0.43928   0.62889   0.01267  Uiso   1.00
O58    O     0.64574   0.27284   0.08437   0.01267  Uiso   1.00
O59    O     0.18436   0.55789   0.74855   0.01267  Uiso   1.00
O60    O     0.37971   0.57811   0.81016   0.01267  Uiso   1.00
O61    O     0.56137   0.18847   0.91563   0.01267  Uiso   1.00
O62    O     0.75948   0.57037   0.18776   0.01267  Uiso   1.00
O63    O     0.33691   0.72704   0.91630   0.01267  Uiso   1.00
O64    O     0.43581   0.80935   0.25145   0.01267  Uiso   1.00
O65    O     0.80342   0.43108   0.08410   0.01267  Uiso   1.00
O66    O     0.80538   0.43929   0.25046   0.01267  Uiso   1.00
O67    O     0.59704   0.39569   0.00000   0.01267  Uiso   1.00
O68    O     0.72261   0.81039   0.37112   0.01267  Uiso   1.00
O69    O     0.18979   0.44425   0.63152   0.01267  Uiso   1.00
O70    O     0.27618   0.19596   0.62692   0.01267  Uiso   1.00
O71    O     0.39609   0.60540   0.00000   0.01267  Uiso   1.00
O72    O     0.44008   0.19289   0.63227   0.01267  Uiso   1.00
O73    O     0.55492   0.18883   0.74955   0.01267  Uiso   1.00
O74    O     0.42372   0.23676   0.80917   0.01267  Uiso   1.00
O75    O     0.27214   0.64674   0.08450   0.01267  Uiso   1.00
O76    O     0.71933   0.34698   0.91591   0.01267  Uiso   1.00
O77    O     0.56418   0.65215   0.37169   0.01267  Uiso   1.00
O78    O     0.61455   0.42759   0.19083   0.01267  Uiso   1.00
O79    O     0.55827   0.81273   0.36848   0.01267  Uiso   1.00
O80    O     0.56955   0.76795   0.18984   0.01267  Uiso   1.00
O81    O     0.80780   0.56062   0.36773   0.01267  Uiso   1.00
O82    O     0.64926   0.56904   0.37308   0.01267  Uiso   1.00
O83    O     0.42063   0.81075   0.08371   0.01267  Uiso   1.00
O84    O     0.23690   0.43014   0.81009   0.01267  Uiso   1.00
O85    O     0.80637   0.72533   0.36926   0.01267  Uiso   1.00
O86    O     0.19249   0.28046   0.62831   0.01267  Uiso   1.00
O87    O     0.18763   0.56223   0.91550   0.01267  Uiso   1.00
O88    O     0.43711   0.35607   0.63074   0.01267  Uiso   1.00
O89    O     0.57172   0.38261   0.81224   0.01267  Uiso   1.00
O90    O     0.39886   0.40274   0.79915   0.01267  Uiso   1.00
O91    O     0.42680   0.62005   0.18991   0.01267  Uiso   1.00
O92    O     0.59970   0.60358   0.20085   0.01267  Uiso   1.00
H93    H     0.93188   0.38509   0.31839   0.00000  Uiso   1.00
H94    H     0.47186  -0.00805   0.83649   0.00000  Uiso   1.00
H95    H     0.83336   0.37246   0.83629   0.00000  Uiso   1.00
H96    H     0.61349   0.06669   0.68161   0.00000  Uiso   1.00
H97    H     0.40894   0.82844   0.83651   0.00000  Uiso   1.00
H98    H    -0.00181   0.16562   0.54082   0.00000  Uiso   1.00
H99    H     0.62494   0.46506   0.46311   0.00000  Uiso   1.00
H100   H     0.16183   0.00196   0.53689   0.00000  Uiso   1.00
H101   H     0.63544   0.15546   0.16351   0.00000  Uiso   1.00
H102   H     0.57250   0.99192   0.16348   0.00000  Uiso   1.00
H103   H     0.38045   0.93448   0.31946   0.00000  Uiso   1.00
H104   H     0.38064   0.06550   0.45040   0.00000  Uiso   1.00
H105   H     0.61343   0.93575   0.55063   0.00000  Uiso   1.00
H106   H     0.37788   0.54487   0.54095   0.00000  Uiso   1.00
H107   H     0.99708   0.53618   0.16372   0.00000  Uiso   1.00
H108   H     0.54544   0.38512   0.54491   0.00000  Uiso   1.00
H109   H     0.06098   0.61501   0.68054   0.00000  Uiso   1.00
H110   H     0.93024   0.61510   0.54960   0.00000  Uiso   1.00
H111   H     0.83693   1.00392   0.45906   0.00000  Uiso   1.00
H112   H     1.00054   0.84021   0.45509   0.00000  Uiso   1.00
H113   H    -0.00544   0.45326   0.83628   0.00000  Uiso   1.00
H114   H     0.06281   0.38513   0.44937   0.00000  Uiso   1.00
H115   H     0.45737   0.62480   0.45918   0.00000  Uiso   1.00
H116   H     0.15829   0.61699   0.16372   0.00000  Uiso   1.00
loop_
_geom_bond_atom_site_label_1
_geom_bond_atom_site_label_2
_geom_bond_distance
_geom_bond_site_symmetry_2
_ccdc_geom_bond_type
Ti1    O59     1.948   .     S
Ti1    O60     1.986   .     S
Ti1    O63     1.986   .     S
Ti1    O71     2.015   1_556 S
Ti1    O84     1.977   .     S
Ti1    O87     1.948   .     S
Ti2    O68     1.948   .     S
Ti2    O77     1.949   .     S
Ti2    O79     1.956   .     S
Ti2    O80     1.990   .     S
Ti2    O91     1.971   .     S
Ti2    O92     2.022   .     S
Ti3    O70     1.945   .     S
Ti3    O72     1.955   .     S
Ti3    O74     1.987   .     S
Ti3    O88     1.953   .     S
Ti3    O89     1.975   .     S
Ti3    O90     2.022   .     S
Ti4    O61     1.965   .     S
Ti4    O67     2.007   1_556 S
Ti4    O73     1.948   .     S
Ti4    O74     1.980   .     S
Ti4    O76     1.944   .     S
Ti4    O89     1.983   .     S
Ti5    O62     1.975   .     S
Ti5    O78     1.987   .     S
Ti5    O81     1.955   .     S
Ti5    O82     1.945   .     S
Ti5    O85     1.953   .     S
Ti5    O92     2.022   .     S
Ti6    O64     1.948   .     S
Ti6    O71     2.015   .     S
Ti6    O75     1.948   .     S
Ti6    O80     1.986   .     S
Ti6    O83     1.986   .     S
Ti6    O91     1.977   .     S
Ti7    O57     1.948   .     S
Ti7    O60     1.990   .     S
Ti7    O69     1.956   .     S
Ti7    O84     1.971   .     S
Ti7    O86     1.949   .     S
Ti7    O90     2.022   .     S
Ti8    O58     1.965   .     S
Ti8    O62     1.983   .     S
Ti8    O65     1.944   .     S
Ti8    O66     1.948   .     S
Ti8    O67     2.007   .     S
Ti8    O78     1.980   .     S
C9     C49     1.404   1_655 A
C9     C52     1.409   .     A
C9     H93     1.083   .     S
C10    C16     1.412   1_545 A
C10    C18     1.411   1_556 A
C10    H94     1.083   .     S
C11    C38     1.408   1_556 A
C11    C47     1.403   1_655 A
C11    H95     1.083   .     S
C12    C22     1.499   .     S
C12    O68     1.268   .     A
C12    O85     1.270   .     A
C13    C19     1.499   .     S
C13    O70     1.265   .     A
C13    O86     1.266   .     A
C14    C33     1.404   1_545 A
C14    C51     1.409   .     A
C14    H96     1.083   .     S
C15    C47     1.408   1_554 A
C15    C48     1.495   .     S
C15    C56     1.408   .     A
C16    C10     1.412   1_565 A
C16    C31     1.412   1_556 A
C16    H97     1.083   .     S
C17    C20     1.495   .     S
C17    O64     1.266   .     A
C17    O79     1.268   .     A
C18    C10     1.411   1_554 A
C18    C26     1.411   .     A
C18    C32     1.514   .     S
C19    C21     1.409   .     A
C19    C25     1.410   .     A
C20    C29     1.409   .     A
C20    C33     1.407   .     A
C21    C43     1.405   1_445 A
C21    H98     1.083   .     S
C22    C43     1.410   .     A
C22    C44     1.409   .     A
C23    C45     1.499   .     S
C23    O77     1.266   .     A
C23    O82     1.265   .     A
C24    C37     1.405   .     A
C24    C45     1.410   .     A
C24    H99     1.083   .     S
C25    C44     1.405   1_445 A
C25    H100    1.083   .     S
C26    C28     1.412   1_545 A
C26    H101    1.083   .     S
C27    C36     1.495   .     S
C27    O59     1.266   .     A
C27    O69     1.268   .     A
C28    C26     1.412   1_565 A
C28    C31     1.412   .     A
C28    H102    1.083   .     S
C29    C30     1.404   1_565 A
C29    H103    1.083   .     S
C30    C29     1.404   1_545 A
C30    C51     1.407   .     A
C30    H104    1.083   .     S
C31    C16     1.412   1_554 A
C31    C42     1.548   .     S
C32    O58     1.272   .     A
C32    O61     1.272   1_554 A
C33    C14     1.404   1_565 A
C33    H105    1.083   .     S
C34    C46     1.410   .     A
C34    C50     1.405   .     A
C34    H106    1.083   .     S
C35    C38     1.408   .     A
C35    C56     1.403   1_655 A
C35    H107    1.083   .     S
C36    C39     1.409   .     A
C36    C49     1.407   .     A
C37    C46     1.409   .     A
C37    H108    1.083   .     S
C38    C11     1.408   1_554 A
C38    C53     1.495   .     S
C39    C41     1.404   1_455 A
C39    H109    1.083   .     S
C40    C52     1.495   .     S
C40    O66     1.266   .     A
C40    O81     1.268   .     A
C41    C39     1.404   1_655 A
C41    C52     1.407   .     A
C41    H110    1.083   .     S
C42    O63     1.388   1_554 S
C42    O83     1.388   .     S
C43    C21     1.405   1_665 A
C43    H111    1.083   .     S
C44    C25     1.405   1_665 A
C44    H112    1.083   .     S
C45    C50     1.409   .     A
C46    C54     1.499   .     S
C47    C15     1.408   1_556 A
C47    C11     1.403   1_455 A
C47    H113    1.083   .     S
C48    O75     1.269   .     A
C48    O87     1.269   1_554 A
C49    C9      1.404   1_455 A
C49    H114    1.083   .     S
C50    H115    1.083   .     S
C51    C55     1.495   .     S
C53    O65     1.265   .     A
C53    O76     1.265   1_554 A
C54    O57     1.268   .     A
C54    O88     1.270   .     A
C55    O72     1.268   .     A
C55    O73     1.266   .     A
C56    C35     1.403   1_455 A
C56    H116    1.083   .     S
O61    C32     1.272   1_556 A
O63    C42     1.388   1_556 S
O67    Ti4     2.007   1_554 S
O71    Ti1     2.015   1_554 S
O76    C53     1.265   1_556 A
O87    C48     1.269   1_556 A
