data_image0
_cell_length_a       17.3514
_cell_length_b       9.5075
_cell_length_c       9.8065
_cell_angle_alpha    90
_cell_angle_beta     102.682
_cell_angle_gamma    90

_symmetry_space_group_name_H-M    "P 1"
_symmetry_int_tables_number       1

loop_
  _symmetry_equiv_pos_as_xyz
  'x, y, z'

loop_
  _atom_site_label
  _atom_site_occupancy
  _atom_site_fract_x
  _atom_site_fract_y
  _atom_site_fract_z
  _atom_site_thermal_displace_type
  _atom_site_B_iso_or_equiv
  _atom_site_type_symbol
  Zn1      1.0000 0.17892  0.07950  0.37523  Biso   1.000  Zn
  P1       1.0000 0.31043  0.32213  0.31876  Biso   1.000  P
  O1       1.0000 0.25060  0.20870  0.31930  Biso   1.000  O
  O2       1.0000 0.31310  0.43810  0.42650  Biso   1.000  O
  O3       1.0000 0.29700  0.38580  0.17180  Biso   1.000  O
  O4       1.0000 0.07412  0.13510  0.26530  Biso   1.000  O
  O5       1.0000 0.39360  0.24510  0.34990  Biso   1.000  O
  H1       1.0000 0.42870  0.30310  0.35080  Biso   1.000  H
  O6       1.0000 0.99110  0.94570  0.12040  Biso   1.000  O
  H2       1.0000 0.03070  0.89680  0.12830  Biso   1.000  H
  Zn2      1.0000 0.67892  0.57950  0.37523  Biso   1.000  Zn
  P2       1.0000 0.81043  0.82213  0.31876  Biso   1.000  P
  O7       1.0000 0.75060  0.70870  0.31930  Biso   1.000  O
  O8       1.0000 0.81310  0.93810  0.42650  Biso   1.000  O
  O9       1.0000 0.79700  0.88580  0.17180  Biso   1.000  O
  O10      1.0000 0.57412  0.63510  0.26530  Biso   1.000  O
  O11      1.0000 0.89360  0.74510  0.34990  Biso   1.000  O
  H3       1.0000 0.92870  0.80310  0.35080  Biso   1.000  H
  O12      1.0000 0.49110  0.44570  0.12040  Biso   1.000  O
  H4       1.0000 0.53070  0.39680  0.12830  Biso   1.000  H
  Zn3      1.0000 0.82108  0.07950  0.12477  Biso   1.000  Zn
  P3       1.0000 0.68957  0.32213  0.18124  Biso   1.000  P
  O13      1.0000 0.74940  0.20870  0.18070  Biso   1.000  O
  O14      1.0000 0.68690  0.43810  0.07350  Biso   1.000  O
  O15      1.0000 0.70300  0.38580  0.32820  Biso   1.000  O
  O16      1.0000 0.92588  0.13510  0.23470  Biso   1.000  O
  O17      1.0000 0.60640  0.24510  0.15010  Biso   1.000  O
  H5       1.0000 0.57130  0.30310  0.14920  Biso   1.000  H
  O18      1.0000 0.00890  0.94570  0.37960  Biso   1.000  O
  H6       1.0000 0.96930  0.89680  0.37170  Biso   1.000  H
  Zn4      1.0000 0.32108  0.57950  0.12477  Biso   1.000  Zn
  P4       1.0000 0.18957  0.82213  0.18124  Biso   1.000  P
  O19      1.0000 0.24940  0.70870  0.18070  Biso   1.000  O
  O20      1.0000 0.18690  0.93810  0.07350  Biso   1.000  O
  O21      1.0000 0.20300  0.88580  0.32820  Biso   1.000  O
  O22      1.0000 0.42588  0.63510  0.23470  Biso   1.000  O
  O23      1.0000 0.10640  0.74510  0.15010  Biso   1.000  O
  H7       1.0000 0.07130  0.80310  0.14920  Biso   1.000  H
  O24      1.0000 0.50890  0.44570  0.37960  Biso   1.000  O
  H8       1.0000 0.46930  0.39680  0.37170  Biso   1.000  H
  Zn5      1.0000 0.82108  0.92050  0.62477  Biso   1.000  Zn
  P5       1.0000 0.68957  0.67787  0.68124  Biso   1.000  P
  O25      1.0000 0.74940  0.79130  0.68070  Biso   1.000  O
  O26      1.0000 0.68690  0.56190  0.57350  Biso   1.000  O
  O27      1.0000 0.70300  0.61420  0.82820  Biso   1.000  O
  O28      1.0000 0.92588  0.86490  0.73470  Biso   1.000  O
  O29      1.0000 0.60640  0.75490  0.65010  Biso   1.000  O
  H9       1.0000 0.57130  0.69690  0.64920  Biso   1.000  H
  O30      1.0000 0.00890  0.05430  0.87960  Biso   1.000  O
  H10      1.0000 0.96930  0.10320  0.87170  Biso   1.000  H
  Zn6      1.0000 0.32108  0.42050  0.62477  Biso   1.000  Zn
  P6       1.0000 0.18957  0.17787  0.68124  Biso   1.000  P
  O31      1.0000 0.24940  0.29130  0.68070  Biso   1.000  O
  O32      1.0000 0.18690  0.06190  0.57350  Biso   1.000  O
  O33      1.0000 0.20300  0.11420  0.82820  Biso   1.000  O
  O34      1.0000 0.42588  0.36490  0.73470  Biso   1.000  O
  O35      1.0000 0.10640  0.25490  0.65010  Biso   1.000  O
  H11      1.0000 0.07130  0.19690  0.64920  Biso   1.000  H
  O36      1.0000 0.50890  0.55430  0.87960  Biso   1.000  O
  H12      1.0000 0.46930  0.60320  0.87170  Biso   1.000  H
  Zn7      1.0000 0.17892  0.92050  0.87523  Biso   1.000  Zn
  P7       1.0000 0.31043  0.67787  0.81876  Biso   1.000  P
  O37      1.0000 0.25060  0.79130  0.81930  Biso   1.000  O
  O38      1.0000 0.31310  0.56190  0.92650  Biso   1.000  O
  O39      1.0000 0.29700  0.61420  0.67180  Biso   1.000  O
  O40      1.0000 0.07412  0.86490  0.76530  Biso   1.000  O
  O41      1.0000 0.39360  0.75490  0.84990  Biso   1.000  O
  H13      1.0000 0.42870  0.69690  0.85080  Biso   1.000  H
  O42      1.0000 0.99110  0.05430  0.62040  Biso   1.000  O
  H14      1.0000 0.03070  0.10320  0.62830  Biso   1.000  H
  Zn8      1.0000 0.67892  0.42050  0.87523  Biso   1.000  Zn
  P8       1.0000 0.81043  0.17787  0.81876  Biso   1.000  P
  O43      1.0000 0.75060  0.29130  0.81930  Biso   1.000  O
  O44      1.0000 0.81310  0.06190  0.92650  Biso   1.000  O
  O45      1.0000 0.79700  0.11420  0.67180  Biso   1.000  O
  O46      1.0000 0.57412  0.36490  0.76530  Biso   1.000  O
  O47      1.0000 0.89360  0.25490  0.84990  Biso   1.000  O
  H15      1.0000 0.92870  0.19690  0.85080  Biso   1.000  H
  O48      1.0000 0.49110  0.55430  0.62040  Biso   1.000  O
  H16      1.0000 0.53070  0.60320  0.62830  Biso   1.000  H
  P9       1.0000 0.00000  0.04456  0.25000  Biso   1.000  P
  P10      1.0000 0.50000  0.54456  0.25000  Biso   1.000  P
  P11      1.0000 0.00000  0.95544  0.75000  Biso   1.000  P
  P12      1.0000 0.50000  0.45544  0.75000  Biso   1.000  P
