data_image0
_cell_length_a       31.963
_cell_length_b       31.963
_cell_length_c       16.7135
_cell_angle_alpha    90
_cell_angle_beta     90
_cell_angle_gamma    120

_symmetry_space_group_name_H-M    "P 1"
_symmetry_int_tables_number       1

loop_
  _symmetry_equiv_pos_as_xyz
  'x, y, z'

loop_
  _atom_site_label
  _atom_site_occupancy
  _atom_site_fract_x
  _atom_site_fract_y
  _atom_site_fract_z
  _atom_site_thermal_displace_type
  _atom_site_B_iso_or_equiv
  _atom_site_type_symbol
  O1       1.0000 0.25000  0.66030  0.41270  Biso   1.000  O
  C1       1.0000 0.14400  0.53430  0.23810  Biso   1.000  C
  H1       1.0000 0.13230  0.50320  0.21840  Biso   1.000  H
  C2       1.0000 0.17840  0.55120  0.29560  Biso   1.000  C
  H2       1.0000 0.19010  0.53180  0.31540  Biso   1.000  H
  O2       1.0000 0.33970  0.58970  0.41270  Biso   1.000  O
  C3       1.0000 0.46570  0.60970  0.23810  Biso   1.000  C
  H3       1.0000 0.49680  0.62910  0.21840  Biso   1.000  H
  C4       1.0000 0.44880  0.62720  0.29560  Biso   1.000  C
  H4       1.0000 0.46820  0.65830  0.31540  Biso   1.000  H
  O3       1.0000 0.41030  0.75000  0.41270  Biso   1.000  O
  C5       1.0000 0.39030  0.85600  0.23810  Biso   1.000  C
  H5       1.0000 0.37090  0.86770  0.21840  Biso   1.000  H
  C6       1.0000 0.37280  0.82160  0.29560  Biso   1.000  C
  H6       1.0000 0.34170  0.80990  0.31540  Biso   1.000  H
  O4       1.0000 0.75000  0.33970  0.41270  Biso   1.000  O
  C7       1.0000 0.85600  0.46570  0.23810  Biso   1.000  C
  H7       1.0000 0.86770  0.49680  0.21840  Biso   1.000  H
  C8       1.0000 0.82160  0.44880  0.29560  Biso   1.000  C
  H8       1.0000 0.80990  0.46820  0.31540  Biso   1.000  H
  O5       1.0000 0.66030  0.41030  0.41270  Biso   1.000  O
  C9       1.0000 0.53430  0.39030  0.23810  Biso   1.000  C
  H9       1.0000 0.50320  0.37090  0.21840  Biso   1.000  H
  C10      1.0000 0.55120  0.37280  0.29560  Biso   1.000  C
  H10      1.0000 0.53180  0.34170  0.31540  Biso   1.000  H
  O6       1.0000 0.58970  0.25000  0.41270  Biso   1.000  O
  C11      1.0000 0.60970  0.14400  0.23810  Biso   1.000  C
  H11      1.0000 0.62910  0.13230  0.21840  Biso   1.000  H
  C12      1.0000 0.62720  0.17840  0.29560  Biso   1.000  C
  H12      1.0000 0.65830  0.19010  0.31540  Biso   1.000  H
  O7       1.0000 0.66030  0.25000  0.58730  Biso   1.000  O
  C13      1.0000 0.53430  0.14400  0.76190  Biso   1.000  C
  H13      1.0000 0.50320  0.13230  0.78160  Biso   1.000  H
  C14      1.0000 0.55120  0.17840  0.70440  Biso   1.000  C
  H14      1.0000 0.53180  0.19010  0.68460  Biso   1.000  H
  O8       1.0000 0.58970  0.33970  0.58730  Biso   1.000  O
  C15      1.0000 0.60970  0.46570  0.76190  Biso   1.000  C
  H15      1.0000 0.62910  0.49680  0.78160  Biso   1.000  H
  C16      1.0000 0.62720  0.44880  0.70440  Biso   1.000  C
  H16      1.0000 0.65830  0.46820  0.68460  Biso   1.000  H
  O9       1.0000 0.75000  0.41030  0.58730  Biso   1.000  O
  C17      1.0000 0.85600  0.39030  0.76190  Biso   1.000  C
  H17      1.0000 0.86770  0.37090  0.78160  Biso   1.000  H
  C18      1.0000 0.82160  0.37280  0.70440  Biso   1.000  C
  H18      1.0000 0.80990  0.34170  0.68460  Biso   1.000  H
  O10      1.0000 0.33970  0.75000  0.58730  Biso   1.000  O
  C19      1.0000 0.46570  0.85600  0.76190  Biso   1.000  C
  H19      1.0000 0.49680  0.86770  0.78160  Biso   1.000  H
  C20      1.0000 0.44880  0.82160  0.70440  Biso   1.000  C
  H20      1.0000 0.46820  0.80990  0.68460  Biso   1.000  H
  O11      1.0000 0.41030  0.66030  0.58730  Biso   1.000  O
  C21      1.0000 0.39030  0.53430  0.76190  Biso   1.000  C
  H21      1.0000 0.37090  0.50320  0.78160  Biso   1.000  H
  C22      1.0000 0.37280  0.55120  0.70440  Biso   1.000  C
  H22      1.0000 0.34170  0.53180  0.68460  Biso   1.000  H
  O12      1.0000 0.25000  0.58970  0.58730  Biso   1.000  O
  C23      1.0000 0.14400  0.60970  0.76190  Biso   1.000  C
  H23      1.0000 0.13230  0.62910  0.78160  Biso   1.000  H
  C24      1.0000 0.17840  0.62720  0.70440  Biso   1.000  C
  H24      1.0000 0.19010  0.65830  0.68460  Biso   1.000  H
  O13      1.0000 0.75000  0.33970  0.58730  Biso   1.000  O
  C25      1.0000 0.85600  0.46570  0.76190  Biso   1.000  C
  H25      1.0000 0.86770  0.49680  0.78160  Biso   1.000  H
  C26      1.0000 0.82160  0.44880  0.70440  Biso   1.000  C
  H26      1.0000 0.80990  0.46820  0.68460  Biso   1.000  H
  O14      1.0000 0.66030  0.41030  0.58730  Biso   1.000  O
  C27      1.0000 0.53430  0.39030  0.76190  Biso   1.000  C
  H27      1.0000 0.50320  0.37090  0.78160  Biso   1.000  H
  C28      1.0000 0.55120  0.37280  0.70440  Biso   1.000  C
  H28      1.0000 0.53180  0.34170  0.68460  Biso   1.000  H
  O15      1.0000 0.58970  0.25000  0.58730  Biso   1.000  O
  C29      1.0000 0.60970  0.14400  0.76190  Biso   1.000  C
  H29      1.0000 0.62910  0.13230  0.78160  Biso   1.000  H
  C30      1.0000 0.62720  0.17840  0.70440  Biso   1.000  C
  H30      1.0000 0.65830  0.19010  0.68460  Biso   1.000  H
  O16      1.0000 0.25000  0.66030  0.58730  Biso   1.000  O
  C31      1.0000 0.14400  0.53430  0.76190  Biso   1.000  C
  H31      1.0000 0.13230  0.50320  0.78160  Biso   1.000  H
  C32      1.0000 0.17840  0.55120  0.70440  Biso   1.000  C
  H32      1.0000 0.19010  0.53180  0.68460  Biso   1.000  H
  O17      1.0000 0.33970  0.58970  0.58730  Biso   1.000  O
  C33      1.0000 0.46570  0.60970  0.76190  Biso   1.000  C
  H33      1.0000 0.49680  0.62910  0.78160  Biso   1.000  H
  C34      1.0000 0.44880  0.62720  0.70440  Biso   1.000  C
  H34      1.0000 0.46820  0.65830  0.68460  Biso   1.000  H
  O18      1.0000 0.41030  0.75000  0.58730  Biso   1.000  O
  C35      1.0000 0.39030  0.85600  0.76190  Biso   1.000  C
  H35      1.0000 0.37090  0.86770  0.78160  Biso   1.000  H
  C36      1.0000 0.37280  0.82160  0.70440  Biso   1.000  C
  H36      1.0000 0.34170  0.80990  0.68460  Biso   1.000  H
  O19      1.0000 0.33970  0.75000  0.41270  Biso   1.000  O
  C37      1.0000 0.46570  0.85600  0.23810  Biso   1.000  C
  H37      1.0000 0.49680  0.86770  0.21840  Biso   1.000  H
  C38      1.0000 0.44880  0.82160  0.29560  Biso   1.000  C
  H38      1.0000 0.46820  0.80990  0.31540  Biso   1.000  H
  O20      1.0000 0.41030  0.66030  0.41270  Biso   1.000  O
  C39      1.0000 0.39030  0.53430  0.23810  Biso   1.000  C
  H39      1.0000 0.37090  0.50320  0.21840  Biso   1.000  H
  C40      1.0000 0.37280  0.55120  0.29560  Biso   1.000  C
  H40      1.0000 0.34170  0.53180  0.31540  Biso   1.000  H
  O21      1.0000 0.25000  0.58970  0.41270  Biso   1.000  O
  C41      1.0000 0.14400  0.60970  0.23810  Biso   1.000  C
  H41      1.0000 0.13230  0.62910  0.21840  Biso   1.000  H
  C42      1.0000 0.17840  0.62720  0.29560  Biso   1.000  C
  H42      1.0000 0.19010  0.65830  0.31540  Biso   1.000  H
  O22      1.0000 0.66030  0.25000  0.41270  Biso   1.000  O
  C43      1.0000 0.53430  0.14400  0.23810  Biso   1.000  C
  H43      1.0000 0.50320  0.13230  0.21840  Biso   1.000  H
  C44      1.0000 0.55120  0.17840  0.29560  Biso   1.000  C
  H44      1.0000 0.53180  0.19010  0.31540  Biso   1.000  H
  O23      1.0000 0.58970  0.33970  0.41270  Biso   1.000  O
  C45      1.0000 0.60970  0.46570  0.23810  Biso   1.000  C
  H45      1.0000 0.62910  0.49680  0.21840  Biso   1.000  H
  C46      1.0000 0.62720  0.44880  0.29560  Biso   1.000  C
  H46      1.0000 0.65830  0.46820  0.31540  Biso   1.000  H
  O24      1.0000 0.75000  0.41030  0.41270  Biso   1.000  O
  C47      1.0000 0.85600  0.39030  0.23810  Biso   1.000  C
  H47      1.0000 0.86770  0.37090  0.21840  Biso   1.000  H
  C48      1.0000 0.82160  0.37280  0.29560  Biso   1.000  C
  H48      1.0000 0.80990  0.34170  0.31540  Biso   1.000  H
  Ni1      1.0000 0.29720  0.70280  0.50000  Biso   1.000  Ni
  Ni2      1.0000 0.29720  0.59440  0.50000  Biso   1.000  Ni
  Ni3      1.0000 0.40560  0.70280  0.50000  Biso   1.000  Ni
  Ni4      1.0000 0.70280  0.29720  0.50000  Biso   1.000  Ni
  Ni5      1.0000 0.70280  0.40560  0.50000  Biso   1.000  Ni
  Ni6      1.0000 0.59440  0.29720  0.50000  Biso   1.000  Ni
  C49      1.0000 0.10260  0.55130  0.06670  Biso   1.000  C
  C50      1.0000 0.03900  0.51950  0.16730  Biso   1.000  C
  C51      1.0000 0.08750  0.54375  0.14420  Biso   1.000  C
  C52      1.0000 0.02470  0.51235  0.24640  Biso   1.000  C
  H49      1.0000 0.04470  0.52235  0.29100  Biso   1.000  H
  C53      1.0000 0.14970  0.57485  0.04230  Biso   1.000  C
  H50      1.0000 0.17680  0.58840  0.07530  Biso   1.000  H
  C54      1.0000 0.12540  0.56270  0.20750  Biso   1.000  C
  C55      1.0000 0.19640  0.59820  0.32500  Biso   1.000  C
  C56      1.0000 0.23710  0.61855  0.38990  Biso   1.000  C
  C57      1.0000 0.44870  0.55130  0.06670  Biso   1.000  C
  C58      1.0000 0.48050  0.51950  0.16730  Biso   1.000  C
  C59      1.0000 0.45625  0.54375  0.14420  Biso   1.000  C
  C60      1.0000 0.48765  0.51235  0.24640  Biso   1.000  C
  H51      1.0000 0.47765  0.52235  0.29100  Biso   1.000  H
  C61      1.0000 0.42515  0.57485  0.04230  Biso   1.000  C
  H52      1.0000 0.41160  0.58840  0.07530  Biso   1.000  H
  C62      1.0000 0.43730  0.56270  0.20750  Biso   1.000  C
  C63      1.0000 0.40180  0.59820  0.32500  Biso   1.000  C
  C64      1.0000 0.38145  0.61855  0.38990  Biso   1.000  C
  C65      1.0000 0.44870  0.89740  0.06670  Biso   1.000  C
  C66      1.0000 0.48050  0.96100  0.16730  Biso   1.000  C
  C67      1.0000 0.45625  0.91250  0.14420  Biso   1.000  C
  C68      1.0000 0.48765  0.97530  0.24640  Biso   1.000  C
  H53      1.0000 0.47765  0.95530  0.29100  Biso   1.000  H
  C69      1.0000 0.42515  0.85030  0.04230  Biso   1.000  C
  H54      1.0000 0.41160  0.82320  0.07530  Biso   1.000  H
  C70      1.0000 0.43730  0.87460  0.20750  Biso   1.000  C
  C71      1.0000 0.40180  0.80360  0.32500  Biso   1.000  C
  C72      1.0000 0.38145  0.76290  0.38990  Biso   1.000  C
  C73      1.0000 0.89740  0.44870  0.06670  Biso   1.000  C
  C74      1.0000 0.96100  0.48050  0.16730  Biso   1.000  C
  C75      1.0000 0.91250  0.45625  0.14420  Biso   1.000  C
  C76      1.0000 0.97530  0.48765  0.24640  Biso   1.000  C
  H55      1.0000 0.95530  0.47765  0.29100  Biso   1.000  H
  C77      1.0000 0.85030  0.42515  0.04230  Biso   1.000  C
  H56      1.0000 0.82320  0.41160  0.07530  Biso   1.000  H
  C78      1.0000 0.87460  0.43730  0.20750  Biso   1.000  C
  C79      1.0000 0.80360  0.40180  0.32500  Biso   1.000  C
  C80      1.0000 0.76290  0.38145  0.38990  Biso   1.000  C
  C81      1.0000 0.55130  0.44870  0.06670  Biso   1.000  C
  C82      1.0000 0.51950  0.48050  0.16730  Biso   1.000  C
  C83      1.0000 0.54375  0.45625  0.14420  Biso   1.000  C
  C84      1.0000 0.51235  0.48765  0.24640  Biso   1.000  C
  H57      1.0000 0.52235  0.47765  0.29100  Biso   1.000  H
  C85      1.0000 0.57485  0.42515  0.04230  Biso   1.000  C
  H58      1.0000 0.58840  0.41160  0.07530  Biso   1.000  H
  C86      1.0000 0.56270  0.43730  0.20750  Biso   1.000  C
  C87      1.0000 0.59820  0.40180  0.32500  Biso   1.000  C
  C88      1.0000 0.61855  0.38145  0.38990  Biso   1.000  C
  C89      1.0000 0.55130  0.10260  0.06670  Biso   1.000  C
  C90      1.0000 0.51950  0.03900  0.16730  Biso   1.000  C
  C91      1.0000 0.54375  0.08750  0.14420  Biso   1.000  C
  C92      1.0000 0.51235  0.02470  0.24640  Biso   1.000  C
  H59      1.0000 0.52235  0.04470  0.29100  Biso   1.000  H
  C93      1.0000 0.57485  0.14970  0.04230  Biso   1.000  C
  H60      1.0000 0.58840  0.17680  0.07530  Biso   1.000  H
  C94      1.0000 0.56270  0.12540  0.20750  Biso   1.000  C
  C95      1.0000 0.59820  0.19640  0.32500  Biso   1.000  C
  C96      1.0000 0.61855  0.23710  0.38990  Biso   1.000  C
  C97      1.0000 0.55130  0.10260  0.93330  Biso   1.000  C
  C98      1.0000 0.51950  0.03900  0.83270  Biso   1.000  C
  C99      1.0000 0.54375  0.08750  0.85580  Biso   1.000  C
  C100     1.0000 0.51235  0.02470  0.75360  Biso   1.000  C
  H61      1.0000 0.52235  0.04470  0.70900  Biso   1.000  H
  C101     1.0000 0.57485  0.14970  0.95770  Biso   1.000  C
  H62      1.0000 0.58840  0.17680  0.92470  Biso   1.000  H
  C102     1.0000 0.56270  0.12540  0.79250  Biso   1.000  C
  C103     1.0000 0.59820  0.19640  0.67500  Biso   1.000  C
  C104     1.0000 0.61855  0.23710  0.61010  Biso   1.000  C
  C105     1.0000 0.55130  0.44870  0.93330  Biso   1.000  C
  C106     1.0000 0.51950  0.48050  0.83270  Biso   1.000  C
  C107     1.0000 0.54375  0.45625  0.85580  Biso   1.000  C
  C108     1.0000 0.51235  0.48765  0.75360  Biso   1.000  C
  H63      1.0000 0.52235  0.47765  0.70900  Biso   1.000  H
  C109     1.0000 0.57485  0.42515  0.95770  Biso   1.000  C
  H64      1.0000 0.58840  0.41160  0.92470  Biso   1.000  H
  C110     1.0000 0.56270  0.43730  0.79250  Biso   1.000  C
  C111     1.0000 0.59820  0.40180  0.67500  Biso   1.000  C
  C112     1.0000 0.61855  0.38145  0.61010  Biso   1.000  C
  C113     1.0000 0.89740  0.44870  0.93330  Biso   1.000  C
  C114     1.0000 0.96100  0.48050  0.83270  Biso   1.000  C
  C115     1.0000 0.91250  0.45625  0.85580  Biso   1.000  C
  C116     1.0000 0.97530  0.48765  0.75360  Biso   1.000  C
  H65      1.0000 0.95530  0.47765  0.70900  Biso   1.000  H
  C117     1.0000 0.85030  0.42515  0.95770  Biso   1.000  C
  H66      1.0000 0.82320  0.41160  0.92470  Biso   1.000  H
  C118     1.0000 0.87460  0.43730  0.79250  Biso   1.000  C
  C119     1.0000 0.80360  0.40180  0.67500  Biso   1.000  C
  C120     1.0000 0.76290  0.38145  0.61010  Biso   1.000  C
  C121     1.0000 0.44870  0.89740  0.93330  Biso   1.000  C
  C122     1.0000 0.48050  0.96100  0.83270  Biso   1.000  C
  C123     1.0000 0.45625  0.91250  0.85580  Biso   1.000  C
  C124     1.0000 0.48765  0.97530  0.75360  Biso   1.000  C
  H67      1.0000 0.47765  0.95530  0.70900  Biso   1.000  H
  C125     1.0000 0.42515  0.85030  0.95770  Biso   1.000  C
  H68      1.0000 0.41160  0.82320  0.92470  Biso   1.000  H
  C126     1.0000 0.43730  0.87460  0.79250  Biso   1.000  C
  C127     1.0000 0.40180  0.80360  0.67500  Biso   1.000  C
  C128     1.0000 0.38145  0.76290  0.61010  Biso   1.000  C
  C129     1.0000 0.44870  0.55130  0.93330  Biso   1.000  C
  C130     1.0000 0.48050  0.51950  0.83270  Biso   1.000  C
  C131     1.0000 0.45625  0.54375  0.85580  Biso   1.000  C
  C132     1.0000 0.48765  0.51235  0.75360  Biso   1.000  C
  H69      1.0000 0.47765  0.52235  0.70900  Biso   1.000  H
  C133     1.0000 0.42515  0.57485  0.95770  Biso   1.000  C
  H70      1.0000 0.41160  0.58840  0.92470  Biso   1.000  H
  C134     1.0000 0.43730  0.56270  0.79250  Biso   1.000  C
  C135     1.0000 0.40180  0.59820  0.67500  Biso   1.000  C
  C136     1.0000 0.38145  0.61855  0.61010  Biso   1.000  C
  C137     1.0000 0.10260  0.55130  0.93330  Biso   1.000  C
  C138     1.0000 0.03900  0.51950  0.83270  Biso   1.000  C
  C139     1.0000 0.08750  0.54375  0.85580  Biso   1.000  C
  C140     1.0000 0.02470  0.51235  0.75360  Biso   1.000  C
  H71      1.0000 0.04470  0.52235  0.70900  Biso   1.000  H
  C141     1.0000 0.14970  0.57485  0.95770  Biso   1.000  C
  H72      1.0000 0.17680  0.58840  0.92470  Biso   1.000  H
  C142     1.0000 0.12540  0.56270  0.79250  Biso   1.000  C
  C143     1.0000 0.19640  0.59820  0.67500  Biso   1.000  C
  C144     1.0000 0.23710  0.61855  0.61010  Biso   1.000  C
  N1       1.0000 0.07160  0.53580  0.00000  Biso   1.000  N
  N2       1.0000 0.46420  0.53580  0.00000  Biso   1.000  N
  N3       1.0000 0.46420  0.92840  0.00000  Biso   1.000  N
  N4       1.0000 0.92840  0.46420  0.00000  Biso   1.000  N
  N5       1.0000 0.53580  0.46420  0.00000  Biso   1.000  N
  N6       1.0000 0.53580  0.07160  0.00000  Biso   1.000  N
  Co1      1.0000 0.00000  0.50000  0.00000  Biso   1.000  Co
  Co2      1.0000 0.50000  0.50000  0.00000  Biso   1.000  Co
  Co3      1.0000 0.50000  0.00000  0.00000  Biso   1.000  Co
  O25      1.0000 0.33333  0.66667  0.50000  Biso   1.000  O
  O26      1.0000 0.66667  0.33333  0.50000  Biso   1.000  O
  N7       1.0000 0.00000  0.50000  0.11550  Biso   1.000  N
  N8       1.0000 0.50000  0.50000  0.11550  Biso   1.000  N
  N9       1.0000 0.50000  0.00000  0.11550  Biso   1.000  N
  N10      1.0000 0.50000  0.00000  0.88450  Biso   1.000  N
  N11      1.0000 0.50000  0.50000  0.88450  Biso   1.000  N
  N12      1.0000 0.00000  0.50000  0.88450  Biso   1.000  N
