data_image0
_cell_length_a       22.0354
_cell_length_b       22.0354
_cell_length_c       22.0354
_cell_angle_alpha    90
_cell_angle_beta     90
_cell_angle_gamma    90

_symmetry_space_group_name_H-M    "P 1"
_symmetry_int_tables_number       1

loop_
  _symmetry_equiv_pos_as_xyz
  'x, y, z'

loop_
  _atom_site_label
  _atom_site_occupancy
  _atom_site_fract_x
  _atom_site_fract_y
  _atom_site_fract_z
  _atom_site_thermal_displace_type
  _atom_site_B_iso_or_equiv
  _atom_site_type_symbol
  Mg1      1.0000 0.17839  0.23958  0.30571  Biso   1.000  Mg
  C1       1.0000 0.98200  0.29410  0.07800  Biso   1.000  C
  C2       1.0000 0.93060  0.29580  0.11250  Biso   1.000  C
  H1       1.0000 0.89320  0.29950  0.09340  Biso   1.000  H
  C3       1.0000 0.93270  0.29200  0.17490  Biso   1.000  C
  C4       1.0000 0.98860  0.28520  0.20170  Biso   1.000  C
  H2       1.0000 0.99100  0.27960  0.24350  Biso   1.000  H
  C5       1.0000 0.04210  0.28660  0.16720  Biso   1.000  C
  C6       1.0000 0.04020  0.28830  0.10650  Biso   1.000  C
  H3       1.0000 0.07550  0.28580  0.08360  Biso   1.000  H
  C7       1.0000 0.87330  0.29180  0.20790  Biso   1.000  C
  C8       1.0000 0.10310  0.27790  0.19750  Biso   1.000  C
  O1       1.0000 0.82760  0.30990  0.17790  Biso   1.000  O
  O2       1.0000 0.87390  0.27850  0.26330  Biso   1.000  O
  O3       1.0000 0.14890  0.29230  0.16610  Biso   1.000  O
  O4       1.0000 0.10520  0.25860  0.25170  Biso   1.000  O
  N1       1.0000 0.97650  0.29590  0.01420  Biso   1.000  N
  Mg2      1.0000 0.82161  0.76042  0.30571  Biso   1.000  Mg
  C9       1.0000 0.01800  0.70590  0.07800  Biso   1.000  C
  C10      1.0000 0.06940  0.70420  0.11250  Biso   1.000  C
  H4       1.0000 0.10680  0.70050  0.09340  Biso   1.000  H
  C11      1.0000 0.06730  0.70800  0.17490  Biso   1.000  C
  C12      1.0000 0.01140  0.71480  0.20170  Biso   1.000  C
  H5       1.0000 0.00900  0.72040  0.24350  Biso   1.000  H
  C13      1.0000 0.95790  0.71340  0.16720  Biso   1.000  C
  C14      1.0000 0.95980  0.71170  0.10650  Biso   1.000  C
  H6       1.0000 0.92450  0.71420  0.08360  Biso   1.000  H
  C15      1.0000 0.12670  0.70820  0.20790  Biso   1.000  C
  C16      1.0000 0.89690  0.72210  0.19750  Biso   1.000  C
  O5       1.0000 0.17240  0.69010  0.17790  Biso   1.000  O
  O6       1.0000 0.12610  0.72150  0.26330  Biso   1.000  O
  O7       1.0000 0.85110  0.70770  0.16610  Biso   1.000  O
  O8       1.0000 0.89480  0.74140  0.25170  Biso   1.000  O
  N2       1.0000 0.02350  0.70410  0.01420  Biso   1.000  N
  Mg3      1.0000 0.82161  0.23958  0.69429  Biso   1.000  Mg
  C17      1.0000 0.01800  0.29410  0.92200  Biso   1.000  C
  C18      1.0000 0.06940  0.29580  0.88750  Biso   1.000  C
  H7       1.0000 0.10680  0.29950  0.90660  Biso   1.000  H
  C19      1.0000 0.06730  0.29200  0.82510  Biso   1.000  C
  C20      1.0000 0.01140  0.28520  0.79830  Biso   1.000  C
  H8       1.0000 0.00900  0.27960  0.75650  Biso   1.000  H
  C21      1.0000 0.95790  0.28660  0.83280  Biso   1.000  C
  C22      1.0000 0.95980  0.28830  0.89350  Biso   1.000  C
  H9       1.0000 0.92450  0.28580  0.91640  Biso   1.000  H
  C23      1.0000 0.12670  0.29180  0.79210  Biso   1.000  C
  C24      1.0000 0.89690  0.27790  0.80250  Biso   1.000  C
  O9       1.0000 0.17240  0.30990  0.82210  Biso   1.000  O
  O10      1.0000 0.12610  0.27850  0.73670  Biso   1.000  O
  O11      1.0000 0.85110  0.29230  0.83390  Biso   1.000  O
  O12      1.0000 0.89480  0.25860  0.74830  Biso   1.000  O
  N3       1.0000 0.02350  0.29590  0.98580  Biso   1.000  N
  Mg4      1.0000 0.17839  0.76042  0.69429  Biso   1.000  Mg
  C25      1.0000 0.98200  0.70590  0.92200  Biso   1.000  C
  C26      1.0000 0.93060  0.70420  0.88750  Biso   1.000  C
  H10      1.0000 0.89320  0.70050  0.90660  Biso   1.000  H
  C27      1.0000 0.93270  0.70800  0.82510  Biso   1.000  C
  C28      1.0000 0.98860  0.71480  0.79830  Biso   1.000  C
  H11      1.0000 0.99100  0.72040  0.75650  Biso   1.000  H
  C29      1.0000 0.04210  0.71340  0.83280  Biso   1.000  C
  C30      1.0000 0.04020  0.71170  0.89350  Biso   1.000  C
  H12      1.0000 0.07550  0.71420  0.91640  Biso   1.000  H
  C31      1.0000 0.87330  0.70820  0.79210  Biso   1.000  C
  C32      1.0000 0.10310  0.72210  0.80250  Biso   1.000  C
  O13      1.0000 0.82760  0.69010  0.82210  Biso   1.000  O
  O14      1.0000 0.87390  0.72150  0.73670  Biso   1.000  O
  O15      1.0000 0.14890  0.70770  0.83390  Biso   1.000  O
  O16      1.0000 0.10520  0.74140  0.74830  Biso   1.000  O
  N4       1.0000 0.97650  0.70410  0.98580  Biso   1.000  N
  Mg5      1.0000 0.30571  0.17839  0.23958  Biso   1.000  Mg
  C33      1.0000 0.07800  0.98200  0.29410  Biso   1.000  C
  C34      1.0000 0.11250  0.93060  0.29580  Biso   1.000  C
  H13      1.0000 0.09340  0.89320  0.29950  Biso   1.000  H
  C35      1.0000 0.17490  0.93270  0.29200  Biso   1.000  C
  C36      1.0000 0.20170  0.98860  0.28520  Biso   1.000  C
  H14      1.0000 0.24350  0.99100  0.27960  Biso   1.000  H
  C37      1.0000 0.16720  0.04210  0.28660  Biso   1.000  C
  C38      1.0000 0.10650  0.04020  0.28830  Biso   1.000  C
  H15      1.0000 0.08360  0.07550  0.28580  Biso   1.000  H
  C39      1.0000 0.20790  0.87330  0.29180  Biso   1.000  C
  C40      1.0000 0.19750  0.10310  0.27790  Biso   1.000  C
  O17      1.0000 0.17790  0.82760  0.30990  Biso   1.000  O
  O18      1.0000 0.26330  0.87390  0.27850  Biso   1.000  O
  O19      1.0000 0.16610  0.14890  0.29230  Biso   1.000  O
  O20      1.0000 0.25170  0.10520  0.25860  Biso   1.000  O
  N5       1.0000 0.01420  0.97650  0.29590  Biso   1.000  N
  Mg6      1.0000 0.30571  0.82161  0.76042  Biso   1.000  Mg
  C41      1.0000 0.07800  0.01800  0.70590  Biso   1.000  C
  C42      1.0000 0.11250  0.06940  0.70420  Biso   1.000  C
  H16      1.0000 0.09340  0.10680  0.70050  Biso   1.000  H
  C43      1.0000 0.17490  0.06730  0.70800  Biso   1.000  C
  C44      1.0000 0.20170  0.01140  0.71480  Biso   1.000  C
  H17      1.0000 0.24350  0.00900  0.72040  Biso   1.000  H
  C45      1.0000 0.16720  0.95790  0.71340  Biso   1.000  C
  C46      1.0000 0.10650  0.95980  0.71170  Biso   1.000  C
  H18      1.0000 0.08360  0.92450  0.71420  Biso   1.000  H
  C47      1.0000 0.20790  0.12670  0.70820  Biso   1.000  C
  C48      1.0000 0.19750  0.89690  0.72210  Biso   1.000  C
  O21      1.0000 0.17790  0.17240  0.69010  Biso   1.000  O
  O22      1.0000 0.26330  0.12610  0.72150  Biso   1.000  O
  O23      1.0000 0.16610  0.85110  0.70770  Biso   1.000  O
  O24      1.0000 0.25170  0.89480  0.74140  Biso   1.000  O
  N6       1.0000 0.01420  0.02350  0.70410  Biso   1.000  N
  Mg7      1.0000 0.69429  0.82161  0.23958  Biso   1.000  Mg
  C49      1.0000 0.92200  0.01800  0.29410  Biso   1.000  C
  C50      1.0000 0.88750  0.06940  0.29580  Biso   1.000  C
  H19      1.0000 0.90660  0.10680  0.29950  Biso   1.000  H
  C51      1.0000 0.82510  0.06730  0.29200  Biso   1.000  C
  C52      1.0000 0.79830  0.01140  0.28520  Biso   1.000  C
  H20      1.0000 0.75650  0.00900  0.27960  Biso   1.000  H
  C53      1.0000 0.83280  0.95790  0.28660  Biso   1.000  C
  C54      1.0000 0.89350  0.95980  0.28830  Biso   1.000  C
  H21      1.0000 0.91640  0.92450  0.28580  Biso   1.000  H
  C55      1.0000 0.79210  0.12670  0.29180  Biso   1.000  C
  C56      1.0000 0.80250  0.89690  0.27790  Biso   1.000  C
  O25      1.0000 0.82210  0.17240  0.30990  Biso   1.000  O
  O26      1.0000 0.73670  0.12610  0.27850  Biso   1.000  O
  O27      1.0000 0.83390  0.85110  0.29230  Biso   1.000  O
  O28      1.0000 0.74830  0.89480  0.25860  Biso   1.000  O
  N7       1.0000 0.98580  0.02350  0.29590  Biso   1.000  N
  Mg8      1.0000 0.69429  0.17839  0.76042  Biso   1.000  Mg
  C57      1.0000 0.92200  0.98200  0.70590  Biso   1.000  C
  C58      1.0000 0.88750  0.93060  0.70420  Biso   1.000  C
  H22      1.0000 0.90660  0.89320  0.70050  Biso   1.000  H
  C59      1.0000 0.82510  0.93270  0.70800  Biso   1.000  C
  C60      1.0000 0.79830  0.98860  0.71480  Biso   1.000  C
  H23      1.0000 0.75650  0.99100  0.72040  Biso   1.000  H
  C61      1.0000 0.83280  0.04210  0.71340  Biso   1.000  C
  C62      1.0000 0.89350  0.04020  0.71170  Biso   1.000  C
  H24      1.0000 0.91640  0.07550  0.71420  Biso   1.000  H
  C63      1.0000 0.79210  0.87330  0.70820  Biso   1.000  C
  C64      1.0000 0.80250  0.10310  0.72210  Biso   1.000  C
  O29      1.0000 0.82210  0.82760  0.69010  Biso   1.000  O
  O30      1.0000 0.73670  0.87390  0.72150  Biso   1.000  O
  O31      1.0000 0.83390  0.14890  0.70770  Biso   1.000  O
  O32      1.0000 0.74830  0.10520  0.74140  Biso   1.000  O
  N8       1.0000 0.98580  0.97650  0.70410  Biso   1.000  N
  Mg9      1.0000 0.23958  0.30571  0.17839  Biso   1.000  Mg
  C65      1.0000 0.29410  0.07800  0.98200  Biso   1.000  C
  C66      1.0000 0.29580  0.11250  0.93060  Biso   1.000  C
  H25      1.0000 0.29950  0.09340  0.89320  Biso   1.000  H
  C67      1.0000 0.29200  0.17490  0.93270  Biso   1.000  C
  C68      1.0000 0.28520  0.20170  0.98860  Biso   1.000  C
  H26      1.0000 0.27960  0.24350  0.99100  Biso   1.000  H
  C69      1.0000 0.28660  0.16720  0.04210  Biso   1.000  C
  C70      1.0000 0.28830  0.10650  0.04020  Biso   1.000  C
  H27      1.0000 0.28580  0.08360  0.07550  Biso   1.000  H
  C71      1.0000 0.29180  0.20790  0.87330  Biso   1.000  C
  C72      1.0000 0.27790  0.19750  0.10310  Biso   1.000  C
  O33      1.0000 0.30990  0.17790  0.82760  Biso   1.000  O
  O34      1.0000 0.27850  0.26330  0.87390  Biso   1.000  O
  O35      1.0000 0.29230  0.16610  0.14890  Biso   1.000  O
  O36      1.0000 0.25860  0.25170  0.10520  Biso   1.000  O
  N9       1.0000 0.29590  0.01420  0.97650  Biso   1.000  N
  Mg10     1.0000 0.76042  0.30571  0.82161  Biso   1.000  Mg
  C73      1.0000 0.70590  0.07800  0.01800  Biso   1.000  C
  C74      1.0000 0.70420  0.11250  0.06940  Biso   1.000  C
  H28      1.0000 0.70050  0.09340  0.10680  Biso   1.000  H
  C75      1.0000 0.70800  0.17490  0.06730  Biso   1.000  C
  C76      1.0000 0.71480  0.20170  0.01140  Biso   1.000  C
  H29      1.0000 0.72040  0.24350  0.00900  Biso   1.000  H
  C77      1.0000 0.71340  0.16720  0.95790  Biso   1.000  C
  C78      1.0000 0.71170  0.10650  0.95980  Biso   1.000  C
  H30      1.0000 0.71420  0.08360  0.92450  Biso   1.000  H
  C79      1.0000 0.70820  0.20790  0.12670  Biso   1.000  C
  C80      1.0000 0.72210  0.19750  0.89690  Biso   1.000  C
  O37      1.0000 0.69010  0.17790  0.17240  Biso   1.000  O
  O38      1.0000 0.72150  0.26330  0.12610  Biso   1.000  O
  O39      1.0000 0.70770  0.16610  0.85110  Biso   1.000  O
  O40      1.0000 0.74140  0.25170  0.89480  Biso   1.000  O
  N10      1.0000 0.70410  0.01420  0.02350  Biso   1.000  N
  Mg11     1.0000 0.23958  0.69429  0.82161  Biso   1.000  Mg
  C81      1.0000 0.29410  0.92200  0.01800  Biso   1.000  C
  C82      1.0000 0.29580  0.88750  0.06940  Biso   1.000  C
  H31      1.0000 0.29950  0.90660  0.10680  Biso   1.000  H
  C83      1.0000 0.29200  0.82510  0.06730  Biso   1.000  C
  C84      1.0000 0.28520  0.79830  0.01140  Biso   1.000  C
  H32      1.0000 0.27960  0.75650  0.00900  Biso   1.000  H
  C85      1.0000 0.28660  0.83280  0.95790  Biso   1.000  C
  C86      1.0000 0.28830  0.89350  0.95980  Biso   1.000  C
  H33      1.0000 0.28580  0.91640  0.92450  Biso   1.000  H
  C87      1.0000 0.29180  0.79210  0.12670  Biso   1.000  C
  C88      1.0000 0.27790  0.80250  0.89690  Biso   1.000  C
  O41      1.0000 0.30990  0.82210  0.17240  Biso   1.000  O
  O42      1.0000 0.27850  0.73670  0.12610  Biso   1.000  O
  O43      1.0000 0.29230  0.83390  0.85110  Biso   1.000  O
  O44      1.0000 0.25860  0.74830  0.89480  Biso   1.000  O
  N11      1.0000 0.29590  0.98580  0.02350  Biso   1.000  N
  Mg12     1.0000 0.76042  0.69429  0.17839  Biso   1.000  Mg
  C89      1.0000 0.70590  0.92200  0.98200  Biso   1.000  C
  C90      1.0000 0.70420  0.88750  0.93060  Biso   1.000  C
  H34      1.0000 0.70050  0.90660  0.89320  Biso   1.000  H
  C91      1.0000 0.70800  0.82510  0.93270  Biso   1.000  C
  C92      1.0000 0.71480  0.79830  0.98860  Biso   1.000  C
  H35      1.0000 0.72040  0.75650  0.99100  Biso   1.000  H
  C93      1.0000 0.71340  0.83280  0.04210  Biso   1.000  C
  C94      1.0000 0.71170  0.89350  0.04020  Biso   1.000  C
  H36      1.0000 0.71420  0.91640  0.07550  Biso   1.000  H
  C95      1.0000 0.70820  0.79210  0.87330  Biso   1.000  C
  C96      1.0000 0.72210  0.80250  0.10310  Biso   1.000  C
  O45      1.0000 0.69010  0.82210  0.82760  Biso   1.000  O
  O46      1.0000 0.72150  0.73670  0.87390  Biso   1.000  O
  O47      1.0000 0.70770  0.83390  0.14890  Biso   1.000  O
  O48      1.0000 0.74140  0.74830  0.10520  Biso   1.000  O
  N12      1.0000 0.70410  0.98580  0.97650  Biso   1.000  N
  Mg13     1.0000 0.73958  0.67839  0.80571  Biso   1.000  Mg
  C97      1.0000 0.79410  0.48200  0.57800  Biso   1.000  C
  C98      1.0000 0.79580  0.43060  0.61250  Biso   1.000  C
  H37      1.0000 0.79950  0.39320  0.59340  Biso   1.000  H
  C99      1.0000 0.79200  0.43270  0.67490  Biso   1.000  C
  C100     1.0000 0.78520  0.48860  0.70170  Biso   1.000  C
  H38      1.0000 0.77960  0.49100  0.74350  Biso   1.000  H
  C101     1.0000 0.78660  0.54210  0.66720  Biso   1.000  C
  C102     1.0000 0.78830  0.54020  0.60650  Biso   1.000  C
  H39      1.0000 0.78580  0.57550  0.58360  Biso   1.000  H
  C103     1.0000 0.79180  0.37330  0.70790  Biso   1.000  C
  C104     1.0000 0.77790  0.60310  0.69750  Biso   1.000  C
  O49      1.0000 0.80990  0.32760  0.67790  Biso   1.000  O
  O50      1.0000 0.77850  0.37390  0.76330  Biso   1.000  O
  O51      1.0000 0.79230  0.64890  0.66610  Biso   1.000  O
  O52      1.0000 0.75860  0.60520  0.75170  Biso   1.000  O
  N13      1.0000 0.79590  0.47650  0.51420  Biso   1.000  N
  Mg14     1.0000 0.26042  0.32161  0.80571  Biso   1.000  Mg
  C105     1.0000 0.20590  0.51800  0.57800  Biso   1.000  C
  C106     1.0000 0.20420  0.56940  0.61250  Biso   1.000  C
  H40      1.0000 0.20050  0.60680  0.59340  Biso   1.000  H
  C107     1.0000 0.20800  0.56730  0.67490  Biso   1.000  C
  C108     1.0000 0.21480  0.51140  0.70170  Biso   1.000  C
  H41      1.0000 0.22040  0.50900  0.74350  Biso   1.000  H
  C109     1.0000 0.21340  0.45790  0.66720  Biso   1.000  C
  C110     1.0000 0.21170  0.45980  0.60650  Biso   1.000  C
  H42      1.0000 0.21420  0.42450  0.58360  Biso   1.000  H
  C111     1.0000 0.20820  0.62670  0.70790  Biso   1.000  C
  C112     1.0000 0.22210  0.39690  0.69750  Biso   1.000  C
  O53      1.0000 0.19010  0.67240  0.67790  Biso   1.000  O
  O54      1.0000 0.22150  0.62610  0.76330  Biso   1.000  O
  O55      1.0000 0.20770  0.35110  0.66610  Biso   1.000  O
  O56      1.0000 0.24140  0.39480  0.75170  Biso   1.000  O
  N14      1.0000 0.20410  0.52350  0.51420  Biso   1.000  N
  Mg15     1.0000 0.73958  0.32161  0.19429  Biso   1.000  Mg
  C113     1.0000 0.79410  0.51800  0.42200  Biso   1.000  C
  C114     1.0000 0.79580  0.56940  0.38750  Biso   1.000  C
  H43      1.0000 0.79950  0.60680  0.40660  Biso   1.000  H
  C115     1.0000 0.79200  0.56730  0.32510  Biso   1.000  C
  C116     1.0000 0.78520  0.51140  0.29830  Biso   1.000  C
  H44      1.0000 0.77960  0.50900  0.25650  Biso   1.000  H
  C117     1.0000 0.78660  0.45790  0.33280  Biso   1.000  C
  C118     1.0000 0.78830  0.45980  0.39350  Biso   1.000  C
  H45      1.0000 0.78580  0.42450  0.41640  Biso   1.000  H
  C119     1.0000 0.79180  0.62670  0.29210  Biso   1.000  C
  C120     1.0000 0.77790  0.39690  0.30250  Biso   1.000  C
  O57      1.0000 0.80990  0.67240  0.32210  Biso   1.000  O
  O58      1.0000 0.77850  0.62610  0.23670  Biso   1.000  O
  O59      1.0000 0.79230  0.35110  0.33390  Biso   1.000  O
  O60      1.0000 0.75860  0.39480  0.24830  Biso   1.000  O
  N15      1.0000 0.79590  0.52350  0.48580  Biso   1.000  N
  Mg16     1.0000 0.26042  0.67839  0.19429  Biso   1.000  Mg
  C121     1.0000 0.20590  0.48200  0.42200  Biso   1.000  C
  C122     1.0000 0.20420  0.43060  0.38750  Biso   1.000  C
  H46      1.0000 0.20050  0.39320  0.40660  Biso   1.000  H
  C123     1.0000 0.20800  0.43270  0.32510  Biso   1.000  C
  C124     1.0000 0.21480  0.48860  0.29830  Biso   1.000  C
  H47      1.0000 0.22040  0.49100  0.25650  Biso   1.000  H
  C125     1.0000 0.21340  0.54210  0.33280  Biso   1.000  C
  C126     1.0000 0.21170  0.54020  0.39350  Biso   1.000  C
  H48      1.0000 0.21420  0.57550  0.41640  Biso   1.000  H
  C127     1.0000 0.20820  0.37330  0.29210  Biso   1.000  C
  C128     1.0000 0.22210  0.60310  0.30250  Biso   1.000  C
  O61      1.0000 0.19010  0.32760  0.32210  Biso   1.000  O
  O62      1.0000 0.22150  0.37390  0.23670  Biso   1.000  O
  O63      1.0000 0.20770  0.64890  0.33390  Biso   1.000  O
  O64      1.0000 0.24140  0.60520  0.24830  Biso   1.000  O
  N16      1.0000 0.20410  0.47650  0.48580  Biso   1.000  N
  Mg17     1.0000 0.67839  0.80571  0.73958  Biso   1.000  Mg
  C129     1.0000 0.48200  0.57800  0.79410  Biso   1.000  C
  C130     1.0000 0.43060  0.61250  0.79580  Biso   1.000  C
  H49      1.0000 0.39320  0.59340  0.79950  Biso   1.000  H
  C131     1.0000 0.43270  0.67490  0.79200  Biso   1.000  C
  C132     1.0000 0.48860  0.70170  0.78520  Biso   1.000  C
  H50      1.0000 0.49100  0.74350  0.77960  Biso   1.000  H
  C133     1.0000 0.54210  0.66720  0.78660  Biso   1.000  C
  C134     1.0000 0.54020  0.60650  0.78830  Biso   1.000  C
  H51      1.0000 0.57550  0.58360  0.78580  Biso   1.000  H
  C135     1.0000 0.37330  0.70790  0.79180  Biso   1.000  C
  C136     1.0000 0.60310  0.69750  0.77790  Biso   1.000  C
  O65      1.0000 0.32760  0.67790  0.80990  Biso   1.000  O
  O66      1.0000 0.37390  0.76330  0.77850  Biso   1.000  O
  O67      1.0000 0.64890  0.66610  0.79230  Biso   1.000  O
  O68      1.0000 0.60520  0.75170  0.75860  Biso   1.000  O
  N17      1.0000 0.47650  0.51420  0.79590  Biso   1.000  N
  Mg18     1.0000 0.32161  0.80571  0.26042  Biso   1.000  Mg
  C137     1.0000 0.51800  0.57800  0.20590  Biso   1.000  C
  C138     1.0000 0.56940  0.61250  0.20420  Biso   1.000  C
  H52      1.0000 0.60680  0.59340  0.20050  Biso   1.000  H
  C139     1.0000 0.56730  0.67490  0.20800  Biso   1.000  C
  C140     1.0000 0.51140  0.70170  0.21480  Biso   1.000  C
  H53      1.0000 0.50900  0.74350  0.22040  Biso   1.000  H
  C141     1.0000 0.45790  0.66720  0.21340  Biso   1.000  C
  C142     1.0000 0.45980  0.60650  0.21170  Biso   1.000  C
  H54      1.0000 0.42450  0.58360  0.21420  Biso   1.000  H
  C143     1.0000 0.62670  0.70790  0.20820  Biso   1.000  C
  C144     1.0000 0.39690  0.69750  0.22210  Biso   1.000  C
  O69      1.0000 0.67240  0.67790  0.19010  Biso   1.000  O
  O70      1.0000 0.62610  0.76330  0.22150  Biso   1.000  O
  O71      1.0000 0.35110  0.66610  0.20770  Biso   1.000  O
  O72      1.0000 0.39480  0.75170  0.24140  Biso   1.000  O
  N18      1.0000 0.52350  0.51420  0.20410  Biso   1.000  N
  Mg19     1.0000 0.32161  0.19429  0.73958  Biso   1.000  Mg
  C145     1.0000 0.51800  0.42200  0.79410  Biso   1.000  C
  C146     1.0000 0.56940  0.38750  0.79580  Biso   1.000  C
  H55      1.0000 0.60680  0.40660  0.79950  Biso   1.000  H
  C147     1.0000 0.56730  0.32510  0.79200  Biso   1.000  C
  C148     1.0000 0.51140  0.29830  0.78520  Biso   1.000  C
  H56      1.0000 0.50900  0.25650  0.77960  Biso   1.000  H
  C149     1.0000 0.45790  0.33280  0.78660  Biso   1.000  C
  C150     1.0000 0.45980  0.39350  0.78830  Biso   1.000  C
  H57      1.0000 0.42450  0.41640  0.78580  Biso   1.000  H
  C151     1.0000 0.62670  0.29210  0.79180  Biso   1.000  C
  C152     1.0000 0.39690  0.30250  0.77790  Biso   1.000  C
  O73      1.0000 0.67240  0.32210  0.80990  Biso   1.000  O
  O74      1.0000 0.62610  0.23670  0.77850  Biso   1.000  O
  O75      1.0000 0.35110  0.33390  0.79230  Biso   1.000  O
  O76      1.0000 0.39480  0.24830  0.75860  Biso   1.000  O
  N19      1.0000 0.52350  0.48580  0.79590  Biso   1.000  N
  Mg20     1.0000 0.67839  0.19429  0.26042  Biso   1.000  Mg
  C153     1.0000 0.48200  0.42200  0.20590  Biso   1.000  C
  C154     1.0000 0.43060  0.38750  0.20420  Biso   1.000  C
  H58      1.0000 0.39320  0.40660  0.20050  Biso   1.000  H
  C155     1.0000 0.43270  0.32510  0.20800  Biso   1.000  C
  C156     1.0000 0.48860  0.29830  0.21480  Biso   1.000  C
  H59      1.0000 0.49100  0.25650  0.22040  Biso   1.000  H
  C157     1.0000 0.54210  0.33280  0.21340  Biso   1.000  C
  C158     1.0000 0.54020  0.39350  0.21170  Biso   1.000  C
  H60      1.0000 0.57550  0.41640  0.21420  Biso   1.000  H
  C159     1.0000 0.37330  0.29210  0.20820  Biso   1.000  C
  C160     1.0000 0.60310  0.30250  0.22210  Biso   1.000  C
  O77      1.0000 0.32760  0.32210  0.19010  Biso   1.000  O
  O78      1.0000 0.37390  0.23670  0.22150  Biso   1.000  O
  O79      1.0000 0.64890  0.33390  0.20770  Biso   1.000  O
  O80      1.0000 0.60520  0.24830  0.24140  Biso   1.000  O
  N20      1.0000 0.47650  0.48580  0.20410  Biso   1.000  N
  Mg21     1.0000 0.80571  0.73958  0.67839  Biso   1.000  Mg
  C161     1.0000 0.57800  0.79410  0.48200  Biso   1.000  C
  C162     1.0000 0.61250  0.79580  0.43060  Biso   1.000  C
  H61      1.0000 0.59340  0.79950  0.39320  Biso   1.000  H
  C163     1.0000 0.67490  0.79200  0.43270  Biso   1.000  C
  C164     1.0000 0.70170  0.78520  0.48860  Biso   1.000  C
  H62      1.0000 0.74350  0.77960  0.49100  Biso   1.000  H
  C165     1.0000 0.66720  0.78660  0.54210  Biso   1.000  C
  C166     1.0000 0.60650  0.78830  0.54020  Biso   1.000  C
  H63      1.0000 0.58360  0.78580  0.57550  Biso   1.000  H
  C167     1.0000 0.70790  0.79180  0.37330  Biso   1.000  C
  C168     1.0000 0.69750  0.77790  0.60310  Biso   1.000  C
  O81      1.0000 0.67790  0.80990  0.32760  Biso   1.000  O
  O82      1.0000 0.76330  0.77850  0.37390  Biso   1.000  O
  O83      1.0000 0.66610  0.79230  0.64890  Biso   1.000  O
  O84      1.0000 0.75170  0.75860  0.60520  Biso   1.000  O
  N21      1.0000 0.51420  0.79590  0.47650  Biso   1.000  N
  Mg22     1.0000 0.80571  0.26042  0.32161  Biso   1.000  Mg
  C169     1.0000 0.57800  0.20590  0.51800  Biso   1.000  C
  C170     1.0000 0.61250  0.20420  0.56940  Biso   1.000  C
  H64      1.0000 0.59340  0.20050  0.60680  Biso   1.000  H
  C171     1.0000 0.67490  0.20800  0.56730  Biso   1.000  C
  C172     1.0000 0.70170  0.21480  0.51140  Biso   1.000  C
  H65      1.0000 0.74350  0.22040  0.50900  Biso   1.000  H
  C173     1.0000 0.66720  0.21340  0.45790  Biso   1.000  C
  C174     1.0000 0.60650  0.21170  0.45980  Biso   1.000  C
  H66      1.0000 0.58360  0.21420  0.42450  Biso   1.000  H
  C175     1.0000 0.70790  0.20820  0.62670  Biso   1.000  C
  C176     1.0000 0.69750  0.22210  0.39690  Biso   1.000  C
  O85      1.0000 0.67790  0.19010  0.67240  Biso   1.000  O
  O86      1.0000 0.76330  0.22150  0.62610  Biso   1.000  O
  O87      1.0000 0.66610  0.20770  0.35110  Biso   1.000  O
  O88      1.0000 0.75170  0.24140  0.39480  Biso   1.000  O
  N22      1.0000 0.51420  0.20410  0.52350  Biso   1.000  N
  Mg23     1.0000 0.19429  0.73958  0.32161  Biso   1.000  Mg
  C177     1.0000 0.42200  0.79410  0.51800  Biso   1.000  C
  C178     1.0000 0.38750  0.79580  0.56940  Biso   1.000  C
  H67      1.0000 0.40660  0.79950  0.60680  Biso   1.000  H
  C179     1.0000 0.32510  0.79200  0.56730  Biso   1.000  C
  C180     1.0000 0.29830  0.78520  0.51140  Biso   1.000  C
  H68      1.0000 0.25650  0.77960  0.50900  Biso   1.000  H
  C181     1.0000 0.33280  0.78660  0.45790  Biso   1.000  C
  C182     1.0000 0.39350  0.78830  0.45980  Biso   1.000  C
  H69      1.0000 0.41640  0.78580  0.42450  Biso   1.000  H
  C183     1.0000 0.29210  0.79180  0.62670  Biso   1.000  C
  C184     1.0000 0.30250  0.77790  0.39690  Biso   1.000  C
  O89      1.0000 0.32210  0.80990  0.67240  Biso   1.000  O
  O90      1.0000 0.23670  0.77850  0.62610  Biso   1.000  O
  O91      1.0000 0.33390  0.79230  0.35110  Biso   1.000  O
  O92      1.0000 0.24830  0.75860  0.39480  Biso   1.000  O
  N23      1.0000 0.48580  0.79590  0.52350  Biso   1.000  N
  Mg24     1.0000 0.19429  0.26042  0.67839  Biso   1.000  Mg
  C185     1.0000 0.42200  0.20590  0.48200  Biso   1.000  C
  C186     1.0000 0.38750  0.20420  0.43060  Biso   1.000  C
  H70      1.0000 0.40660  0.20050  0.39320  Biso   1.000  H
  C187     1.0000 0.32510  0.20800  0.43270  Biso   1.000  C
  C188     1.0000 0.29830  0.21480  0.48860  Biso   1.000  C
  H71      1.0000 0.25650  0.22040  0.49100  Biso   1.000  H
  C189     1.0000 0.33280  0.21340  0.54210  Biso   1.000  C
  C190     1.0000 0.39350  0.21170  0.54020  Biso   1.000  C
  H72      1.0000 0.41640  0.21420  0.57550  Biso   1.000  H
  C191     1.0000 0.29210  0.20820  0.37330  Biso   1.000  C
  C192     1.0000 0.30250  0.22210  0.60310  Biso   1.000  C
  O93      1.0000 0.32210  0.19010  0.32760  Biso   1.000  O
  O94      1.0000 0.23670  0.22150  0.37390  Biso   1.000  O
  O95      1.0000 0.33390  0.20770  0.64890  Biso   1.000  O
  O96      1.0000 0.24830  0.24140  0.60520  Biso   1.000  O
  N24      1.0000 0.48580  0.20410  0.47650  Biso   1.000  N
  O97      1.0000 0.24150  0.24150  0.24150  Biso   1.000  O
  O98      1.0000 0.75850  0.75850  0.24150  Biso   1.000  O
  O99      1.0000 0.75850  0.24150  0.75850  Biso   1.000  O
  O100     1.0000 0.24150  0.75850  0.75850  Biso   1.000  O
  O101     1.0000 0.74150  0.74150  0.74150  Biso   1.000  O
  O102     1.0000 0.25850  0.25850  0.74150  Biso   1.000  O
  O103     1.0000 0.74150  0.25850  0.25850  Biso   1.000  O
  O104     1.0000 0.25850  0.74150  0.25850  Biso   1.000  O
