data_image0
_cell_length_a       22.92
_cell_length_b       22.92
_cell_length_c       22.27
_cell_angle_alpha    90
_cell_angle_beta     90
_cell_angle_gamma    120

_symmetry_space_group_name_H-M    "P 1"
_symmetry_int_tables_number       1

loop_
  _symmetry_equiv_pos_as_xyz
  'x, y, z'

loop_
  _atom_site_label
  _atom_site_occupancy
  _atom_site_fract_x
  _atom_site_fract_y
  _atom_site_fract_z
  _atom_site_thermal_displace_type
  _atom_site_B_iso_or_equiv
  _atom_site_type_symbol
  I1       1.0000 0.84675  0.60946  0.83789  Biso   1.000  I
  I2       1.0000 0.81050  0.44476  0.70891  Biso   1.000  I
  Cu1      1.0000 0.84154  0.57577  0.72245  Biso   1.000  Cu
  Cu2      1.0000 0.76475  0.48131  0.80428  Biso   1.000  Cu
  N1       1.0000 0.93800  0.62660  0.68860  Biso   1.000  N
  N2       1.0000 0.76520  0.42060  0.87330  Biso   1.000  N
  C1       1.0000 0.94170  0.60150  0.62990  Biso   1.000  C
  H1       1.0000 0.91420  0.60990  0.60200  Biso   1.000  H
  H2       1.0000 0.92310  0.55310  0.63230  Biso   1.000  H
  C2       1.0000 0.98610  0.62000  0.72820  Biso   1.000  C
  H3       1.0000 0.97290  0.57280  0.73170  Biso   1.000  H
  H4       1.0000 0.98460  0.63650  0.76790  Biso   1.000  H
  C3       1.0000 0.96390  0.70090  0.68360  Biso   1.000  C
  H5       1.0000 0.96870  0.72010  0.72340  Biso   1.000  H
  H6       1.0000 0.93200  0.70850  0.66120  Biso   1.000  H
  C4       1.0000 0.73260  0.43020  0.92700  Biso   1.000  C
  H7       1.0000 0.68760  0.42110  0.91720  Biso   1.000  H
  H8       1.0000 0.75860  0.47620  0.94140  Biso   1.000  H
  C5       1.0000 0.83220  0.43640  0.88900  Biso   1.000  C
  H9       1.0000 0.85920  0.48420  0.89760  Biso   1.000  H
  H10      1.0000 0.85260  0.42650  0.85530  Biso   1.000  H
  C6       1.0000 0.72950  0.35100  0.85580  Biso   1.000  C
  H11      1.0000 0.74860  0.34560  0.81880  Biso   1.000  H
  H12      1.0000 0.68270  0.33750  0.84820  Biso   1.000  H
  I3       1.0000 0.39054  0.23729  0.50456  Biso   1.000  I
  I4       1.0000 0.55524  0.36574  0.37558  Biso   1.000  I
  Cu3      1.0000 0.42423  0.26577  0.38912  Biso   1.000  Cu
  Cu4      1.0000 0.51869  0.28344  0.47095  Biso   1.000  Cu
  N3       1.0000 0.37340  0.31140  0.35527  Biso   1.000  N
  N4       1.0000 0.57940  0.34460  0.53997  Biso   1.000  N
  C7       1.0000 0.39850  0.34020  0.29657  Biso   1.000  C
  H13      1.0000 0.39010  0.30430  0.26867  Biso   1.000  H
  H14      1.0000 0.44690  0.37000  0.29897  Biso   1.000  H
  C8       1.0000 0.38000  0.36610  0.39487  Biso   1.000  C
  H15      1.0000 0.42720  0.40010  0.39837  Biso   1.000  H
  H16      1.0000 0.36350  0.34810  0.43457  Biso   1.000  H
  C9       1.0000 0.29910  0.26300  0.35027  Biso   1.000  C
  H17      1.0000 0.27990  0.24860  0.39007  Biso   1.000  H
  H18      1.0000 0.29150  0.22350  0.32787  Biso   1.000  H
  C10      1.0000 0.56980  0.30240  0.59367  Biso   1.000  C
  H19      1.0000 0.57890  0.26650  0.58387  Biso   1.000  H
  H20      1.0000 0.52380  0.28240  0.60807  Biso   1.000  H
  C11      1.0000 0.56360  0.39580  0.55567  Biso   1.000  C
  H21      1.0000 0.51580  0.37500  0.56427  Biso   1.000  H
  H22      1.0000 0.57350  0.42610  0.52197  Biso   1.000  H
  C12      1.0000 0.64900  0.37850  0.52247  Biso   1.000  C
  H23      1.0000 0.65440  0.40300  0.48547  Biso   1.000  H
  H24      1.0000 0.66250  0.34520  0.51487  Biso   1.000  H
  I5       1.0000 0.76271  0.15325  0.17122  Biso   1.000  I
  I6       1.0000 0.63426  0.18950  0.04224  Biso   1.000  I
  Cu5      1.0000 0.73423  0.15846  0.05578  Biso   1.000  Cu
  Cu6      1.0000 0.71656  0.23525  0.13761  Biso   1.000  Cu
  N5       1.0000 0.68860  0.06200  0.02193  Biso   1.000  N
  N6       1.0000 0.65540  0.23480  0.20663  Biso   1.000  N
  C13      1.0000 0.65980  0.05830  0.96323  Biso   1.000  C
  H25      1.0000 0.69570  0.08580  0.93533  Biso   1.000  H
  H26      1.0000 0.63000  0.07690  0.96563  Biso   1.000  H
  C14      1.0000 0.63390  0.01390  0.06153  Biso   1.000  C
  H27      1.0000 0.59990  0.02710  0.06503  Biso   1.000  H
  H28      1.0000 0.65190  0.01540  0.10123  Biso   1.000  H
  C15      1.0000 0.73700  0.03610  0.01693  Biso   1.000  C
  H29      1.0000 0.75140  0.03130  0.05673  Biso   1.000  H
  H30      1.0000 0.77650  0.06800  0.99453  Biso   1.000  H
  C16      1.0000 0.69760  0.26740  0.26033  Biso   1.000  C
  H31      1.0000 0.73350  0.31240  0.25053  Biso   1.000  H
  H32      1.0000 0.71760  0.24140  0.27473  Biso   1.000  H
  C17      1.0000 0.60420  0.16780  0.22233  Biso   1.000  C
  H33      1.0000 0.62500  0.14080  0.23093  Biso   1.000  H
  H34      1.0000 0.57390  0.14740  0.18863  Biso   1.000  H
  C18      1.0000 0.62150  0.27050  0.18913  Biso   1.000  C
  H35      1.0000 0.59700  0.25140  0.15213  Biso   1.000  H
  H36      1.0000 0.65480  0.31730  0.18153  Biso   1.000  H
  I7       1.0000 0.15325  0.39054  0.33789  Biso   1.000  I
  I8       1.0000 0.18950  0.55524  0.20891  Biso   1.000  I
  Cu7      1.0000 0.15846  0.42423  0.22245  Biso   1.000  Cu
  Cu8      1.0000 0.23525  0.51869  0.30428  Biso   1.000  Cu
  N7       1.0000 0.06200  0.37340  0.18860  Biso   1.000  N
  N8       1.0000 0.23480  0.57940  0.37330  Biso   1.000  N
  C19      1.0000 0.05830  0.39850  0.12990  Biso   1.000  C
  H37      1.0000 0.08580  0.39010  0.10200  Biso   1.000  H
  H38      1.0000 0.07690  0.44690  0.13230  Biso   1.000  H
  C20      1.0000 0.01390  0.38000  0.22820  Biso   1.000  C
  H39      1.0000 0.02710  0.42720  0.23170  Biso   1.000  H
  H40      1.0000 0.01540  0.36350  0.26790  Biso   1.000  H
  C21      1.0000 0.03610  0.29910  0.18360  Biso   1.000  C
  H41      1.0000 0.03130  0.27990  0.22340  Biso   1.000  H
  H42      1.0000 0.06800  0.29150  0.16120  Biso   1.000  H
  C22      1.0000 0.26740  0.56980  0.42700  Biso   1.000  C
  H43      1.0000 0.31240  0.57890  0.41720  Biso   1.000  H
  H44      1.0000 0.24140  0.52380  0.44140  Biso   1.000  H
  C23      1.0000 0.16780  0.56360  0.38900  Biso   1.000  C
  H45      1.0000 0.14080  0.51580  0.39760  Biso   1.000  H
  H46      1.0000 0.14740  0.57350  0.35530  Biso   1.000  H
  C24      1.0000 0.27050  0.64900  0.35580  Biso   1.000  C
  H47      1.0000 0.25140  0.65440  0.31880  Biso   1.000  H
  H48      1.0000 0.31730  0.66250  0.34820  Biso   1.000  H
  I9       1.0000 0.60946  0.76271  0.00456  Biso   1.000  I
  I10      1.0000 0.44476  0.63426  0.87558  Biso   1.000  I
  Cu9      1.0000 0.57577  0.73423  0.88912  Biso   1.000  Cu
  Cu10     1.0000 0.48131  0.71656  0.97095  Biso   1.000  Cu
  N9       1.0000 0.62660  0.68860  0.85527  Biso   1.000  N
  N10      1.0000 0.42060  0.65540  0.03997  Biso   1.000  N
  C25      1.0000 0.60150  0.65980  0.79657  Biso   1.000  C
  H49      1.0000 0.60990  0.69570  0.76867  Biso   1.000  H
  H50      1.0000 0.55310  0.63000  0.79897  Biso   1.000  H
  C26      1.0000 0.62000  0.63390  0.89487  Biso   1.000  C
  H51      1.0000 0.57280  0.59990  0.89837  Biso   1.000  H
  H52      1.0000 0.63650  0.65190  0.93457  Biso   1.000  H
  C27      1.0000 0.70090  0.73700  0.85027  Biso   1.000  C
  H53      1.0000 0.72010  0.75140  0.89007  Biso   1.000  H
  H54      1.0000 0.70850  0.77650  0.82787  Biso   1.000  H
  C28      1.0000 0.43020  0.69760  0.09367  Biso   1.000  C
  H55      1.0000 0.42110  0.73350  0.08387  Biso   1.000  H
  H56      1.0000 0.47620  0.71760  0.10807  Biso   1.000  H
  C29      1.0000 0.43640  0.60420  0.05567  Biso   1.000  C
  H57      1.0000 0.48420  0.62500  0.06427  Biso   1.000  H
  H58      1.0000 0.42650  0.57390  0.02197  Biso   1.000  H
  C30      1.0000 0.35100  0.62150  0.02247  Biso   1.000  C
  H59      1.0000 0.34560  0.59700  0.98547  Biso   1.000  H
  H60      1.0000 0.33750  0.65480  0.01487  Biso   1.000  H
  I11      1.0000 0.23729  0.84675  0.67122  Biso   1.000  I
  I12      1.0000 0.36574  0.81050  0.54224  Biso   1.000  I
  Cu11     1.0000 0.26577  0.84154  0.55578  Biso   1.000  Cu
  Cu12     1.0000 0.28344  0.76475  0.63761  Biso   1.000  Cu
  N11      1.0000 0.31140  0.93800  0.52193  Biso   1.000  N
  N12      1.0000 0.34460  0.76520  0.70663  Biso   1.000  N
  C31      1.0000 0.34020  0.94170  0.46323  Biso   1.000  C
  H61      1.0000 0.30430  0.91420  0.43533  Biso   1.000  H
  H62      1.0000 0.37000  0.92310  0.46563  Biso   1.000  H
  C32      1.0000 0.36610  0.98610  0.56153  Biso   1.000  C
  H63      1.0000 0.40010  0.97290  0.56503  Biso   1.000  H
  H64      1.0000 0.34810  0.98460  0.60123  Biso   1.000  H
  C33      1.0000 0.26300  0.96390  0.51693  Biso   1.000  C
  H65      1.0000 0.24860  0.96870  0.55673  Biso   1.000  H
  H66      1.0000 0.22350  0.93200  0.49453  Biso   1.000  H
  C34      1.0000 0.30240  0.73260  0.76033  Biso   1.000  C
  H67      1.0000 0.26650  0.68760  0.75053  Biso   1.000  H
  H68      1.0000 0.28240  0.75860  0.77473  Biso   1.000  H
  C35      1.0000 0.39580  0.83220  0.72233  Biso   1.000  C
  H69      1.0000 0.37500  0.85920  0.73093  Biso   1.000  H
  H70      1.0000 0.42610  0.85260  0.68863  Biso   1.000  H
  C36      1.0000 0.37850  0.72950  0.68913  Biso   1.000  C
  H71      1.0000 0.40300  0.74860  0.65213  Biso   1.000  H
  H72      1.0000 0.34520  0.68270  0.68153  Biso   1.000  H
  I13      1.0000 0.60946  0.84675  0.82878  Biso   1.000  I
  I14      1.0000 0.44476  0.81050  0.95776  Biso   1.000  I
  Cu13     1.0000 0.57577  0.84154  0.94422  Biso   1.000  Cu
  Cu14     1.0000 0.48131  0.76475  0.86239  Biso   1.000  Cu
  N13      1.0000 0.62660  0.93800  0.97807  Biso   1.000  N
  N14      1.0000 0.42060  0.76520  0.79337  Biso   1.000  N
  C37      1.0000 0.60150  0.94170  0.03677  Biso   1.000  C
  H73      1.0000 0.60990  0.91420  0.06467  Biso   1.000  H
  H74      1.0000 0.55310  0.92310  0.03437  Biso   1.000  H
  C38      1.0000 0.62000  0.98610  0.93847  Biso   1.000  C
  H75      1.0000 0.57280  0.97290  0.93497  Biso   1.000  H
  H76      1.0000 0.63650  0.98460  0.89877  Biso   1.000  H
  C39      1.0000 0.70090  0.96390  0.98307  Biso   1.000  C
  H77      1.0000 0.72010  0.96870  0.94327  Biso   1.000  H
  H78      1.0000 0.70850  0.93200  0.00547  Biso   1.000  H
  C40      1.0000 0.43020  0.73260  0.73967  Biso   1.000  C
  H79      1.0000 0.42110  0.68760  0.74947  Biso   1.000  H
  H80      1.0000 0.47620  0.75860  0.72527  Biso   1.000  H
  C41      1.0000 0.43640  0.83220  0.77767  Biso   1.000  C
  H81      1.0000 0.48420  0.85920  0.76907  Biso   1.000  H
  H82      1.0000 0.42650  0.85260  0.81137  Biso   1.000  H
  C42      1.0000 0.35100  0.72950  0.81087  Biso   1.000  C
  H83      1.0000 0.34560  0.74860  0.84787  Biso   1.000  H
  H84      1.0000 0.33750  0.68270  0.81847  Biso   1.000  H
  I15      1.0000 0.23729  0.39054  0.16211  Biso   1.000  I
  I16      1.0000 0.36574  0.55524  0.29109  Biso   1.000  I
  Cu15     1.0000 0.26577  0.42423  0.27755  Biso   1.000  Cu
  Cu16     1.0000 0.28344  0.51869  0.19572  Biso   1.000  Cu
  N15      1.0000 0.31140  0.37340  0.31140  Biso   1.000  N
  N16      1.0000 0.34460  0.57940  0.12670  Biso   1.000  N
  C43      1.0000 0.34020  0.39850  0.37010  Biso   1.000  C
  H85      1.0000 0.30430  0.39010  0.39800  Biso   1.000  H
  H86      1.0000 0.37000  0.44690  0.36770  Biso   1.000  H
  C44      1.0000 0.36610  0.38000  0.27180  Biso   1.000  C
  H87      1.0000 0.40010  0.42720  0.26830  Biso   1.000  H
  H88      1.0000 0.34810  0.36350  0.23210  Biso   1.000  H
  C45      1.0000 0.26300  0.29910  0.31640  Biso   1.000  C
  H89      1.0000 0.24860  0.27990  0.27660  Biso   1.000  H
  H90      1.0000 0.22350  0.29150  0.33880  Biso   1.000  H
  C46      1.0000 0.30240  0.56980  0.07300  Biso   1.000  C
  H91      1.0000 0.26650  0.57890  0.08280  Biso   1.000  H
  H92      1.0000 0.28240  0.52380  0.05860  Biso   1.000  H
  C47      1.0000 0.39580  0.56360  0.11100  Biso   1.000  C
  H93      1.0000 0.37500  0.51580  0.10240  Biso   1.000  H
  H94      1.0000 0.42610  0.57350  0.14470  Biso   1.000  H
  C48      1.0000 0.37850  0.64900  0.14420  Biso   1.000  C
  H95      1.0000 0.40300  0.65440  0.18120  Biso   1.000  H
  H96      1.0000 0.34520  0.66250  0.15180  Biso   1.000  H
  I17      1.0000 0.15325  0.76271  0.49544  Biso   1.000  I
  I18      1.0000 0.18950  0.63426  0.62442  Biso   1.000  I
  Cu17     1.0000 0.15846  0.73423  0.61088  Biso   1.000  Cu
  Cu18     1.0000 0.23525  0.71656  0.52905  Biso   1.000  Cu
  N17      1.0000 0.06200  0.68860  0.64473  Biso   1.000  N
  N18      1.0000 0.23480  0.65540  0.46003  Biso   1.000  N
  C49      1.0000 0.05830  0.65980  0.70343  Biso   1.000  C
  H97      1.0000 0.08580  0.69570  0.73133  Biso   1.000  H
  H98      1.0000 0.07690  0.63000  0.70103  Biso   1.000  H
  C50      1.0000 0.01390  0.63390  0.60513  Biso   1.000  C
  H99      1.0000 0.02710  0.59990  0.60163  Biso   1.000  H
  H100     1.0000 0.01540  0.65190  0.56543  Biso   1.000  H
  C51      1.0000 0.03610  0.73700  0.64973  Biso   1.000  C
  H101     1.0000 0.03130  0.75140  0.60993  Biso   1.000  H
  H102     1.0000 0.06800  0.77650  0.67213  Biso   1.000  H
  C52      1.0000 0.26740  0.69760  0.40633  Biso   1.000  C
  H103     1.0000 0.31240  0.73350  0.41613  Biso   1.000  H
  H104     1.0000 0.24140  0.71760  0.39193  Biso   1.000  H
  C53      1.0000 0.16780  0.60420  0.44433  Biso   1.000  C
  H105     1.0000 0.14080  0.62500  0.43573  Biso   1.000  H
  H106     1.0000 0.14740  0.57390  0.47803  Biso   1.000  H
  C54      1.0000 0.27050  0.62150  0.47753  Biso   1.000  C
  H107     1.0000 0.25140  0.59700  0.51453  Biso   1.000  H
  H108     1.0000 0.31730  0.65480  0.48513  Biso   1.000  H
  I19      1.0000 0.39054  0.15325  0.32878  Biso   1.000  I
  I20      1.0000 0.55524  0.18950  0.45776  Biso   1.000  I
  Cu19     1.0000 0.42423  0.15846  0.44422  Biso   1.000  Cu
  Cu20     1.0000 0.51869  0.23525  0.36239  Biso   1.000  Cu
  N19      1.0000 0.37340  0.06200  0.47807  Biso   1.000  N
  N20      1.0000 0.57940  0.23480  0.29337  Biso   1.000  N
  C55      1.0000 0.39850  0.05830  0.53677  Biso   1.000  C
  H109     1.0000 0.39010  0.08580  0.56467  Biso   1.000  H
  H110     1.0000 0.44690  0.07690  0.53437  Biso   1.000  H
  C56      1.0000 0.38000  0.01390  0.43847  Biso   1.000  C
  H111     1.0000 0.42720  0.02710  0.43497  Biso   1.000  H
  H112     1.0000 0.36350  0.01540  0.39877  Biso   1.000  H
  C57      1.0000 0.29910  0.03610  0.48307  Biso   1.000  C
  H113     1.0000 0.27990  0.03130  0.44327  Biso   1.000  H
  H114     1.0000 0.29150  0.06800  0.50547  Biso   1.000  H
  C58      1.0000 0.56980  0.26740  0.23967  Biso   1.000  C
  H115     1.0000 0.57890  0.31240  0.24947  Biso   1.000  H
  H116     1.0000 0.52380  0.24140  0.22527  Biso   1.000  H
  C59      1.0000 0.56360  0.16780  0.27767  Biso   1.000  C
  H117     1.0000 0.51580  0.14080  0.26907  Biso   1.000  H
  H118     1.0000 0.57350  0.14740  0.31137  Biso   1.000  H
  C60      1.0000 0.64900  0.27050  0.31087  Biso   1.000  C
  H119     1.0000 0.65440  0.25140  0.34787  Biso   1.000  H
  H120     1.0000 0.66250  0.31730  0.31847  Biso   1.000  H
  I21      1.0000 0.76271  0.60946  0.66211  Biso   1.000  I
  I22      1.0000 0.63426  0.44476  0.79109  Biso   1.000  I
  Cu21     1.0000 0.73423  0.57577  0.77755  Biso   1.000  Cu
  Cu22     1.0000 0.71656  0.48131  0.69572  Biso   1.000  Cu
  N21      1.0000 0.68860  0.62660  0.81140  Biso   1.000  N
  N22      1.0000 0.65540  0.42060  0.62670  Biso   1.000  N
  C61      1.0000 0.65980  0.60150  0.87010  Biso   1.000  C
  H121     1.0000 0.69570  0.60990  0.89800  Biso   1.000  H
  H122     1.0000 0.63000  0.55310  0.86770  Biso   1.000  H
  C62      1.0000 0.63390  0.62000  0.77180  Biso   1.000  C
  H123     1.0000 0.59990  0.57280  0.76830  Biso   1.000  H
  H124     1.0000 0.65190  0.63650  0.73210  Biso   1.000  H
  C63      1.0000 0.73700  0.70090  0.81640  Biso   1.000  C
  H125     1.0000 0.75140  0.72010  0.77660  Biso   1.000  H
  H126     1.0000 0.77650  0.70850  0.83880  Biso   1.000  H
  C64      1.0000 0.69760  0.43020  0.57300  Biso   1.000  C
  H127     1.0000 0.73350  0.42110  0.58280  Biso   1.000  H
  H128     1.0000 0.71760  0.47620  0.55860  Biso   1.000  H
  C65      1.0000 0.60420  0.43640  0.61100  Biso   1.000  C
  H129     1.0000 0.62500  0.48420  0.60240  Biso   1.000  H
  H130     1.0000 0.57390  0.42650  0.64470  Biso   1.000  H
  C66      1.0000 0.62150  0.35100  0.64420  Biso   1.000  C
  H131     1.0000 0.59700  0.34560  0.68120  Biso   1.000  H
  H132     1.0000 0.65480  0.33750  0.65180  Biso   1.000  H
  I23      1.0000 0.84675  0.23729  0.99544  Biso   1.000  I
  I24      1.0000 0.81050  0.36574  0.12442  Biso   1.000  I
  Cu23     1.0000 0.84154  0.26577  0.11088  Biso   1.000  Cu
  Cu24     1.0000 0.76475  0.28344  0.02905  Biso   1.000  Cu
  N23      1.0000 0.93800  0.31140  0.14473  Biso   1.000  N
  N24      1.0000 0.76520  0.34460  0.96003  Biso   1.000  N
  C67      1.0000 0.94170  0.34020  0.20343  Biso   1.000  C
  H133     1.0000 0.91420  0.30430  0.23133  Biso   1.000  H
  H134     1.0000 0.92310  0.37000  0.20103  Biso   1.000  H
  C68      1.0000 0.98610  0.36610  0.10513  Biso   1.000  C
  H135     1.0000 0.97290  0.40010  0.10163  Biso   1.000  H
  H136     1.0000 0.98460  0.34810  0.06543  Biso   1.000  H
  C69      1.0000 0.96390  0.26300  0.14973  Biso   1.000  C
  H137     1.0000 0.96870  0.24860  0.10993  Biso   1.000  H
  H138     1.0000 0.93200  0.22350  0.17213  Biso   1.000  H
  C70      1.0000 0.73260  0.30240  0.90633  Biso   1.000  C
  H139     1.0000 0.68760  0.26650  0.91613  Biso   1.000  H
  H140     1.0000 0.75860  0.28240  0.89193  Biso   1.000  H
  C71      1.0000 0.83220  0.39580  0.94433  Biso   1.000  C
  H141     1.0000 0.85920  0.37500  0.93573  Biso   1.000  H
  H142     1.0000 0.85260  0.42610  0.97803  Biso   1.000  H
  C72      1.0000 0.72950  0.37850  0.97753  Biso   1.000  C
  H143     1.0000 0.74860  0.40300  0.01453  Biso   1.000  H
  H144     1.0000 0.68270  0.34520  0.98513  Biso   1.000  H
  Cu25     1.0000 0.08317  0.21976  0.39233  Biso   1.000  Cu
  N25      1.0000 0.14690  0.22530  0.45020  Biso   1.000  N
  N26      1.0000 0.20340  0.19350  0.51030  Biso   1.000  N
  C73      1.0000 0.12180  0.10630  0.44040  Biso   1.000  C
  C74      1.0000 0.05050  0.07050  0.43690  Biso   1.000  C
  H145     1.0000 0.02660  0.09140  0.44930  Biso   1.000  H
  C75      1.0000 0.15760  0.17600  0.46570  Biso   1.000  C
  C76      1.0000 0.22290  0.25770  0.52270  Biso   1.000  C
  C77      1.0000 0.18840  0.27870  0.48530  Biso   1.000  C
  C78      1.0000 0.20120  0.34460  0.48830  Biso   1.000  C
  H146     1.0000 0.17820  0.35870  0.46330  Biso   1.000  H
  C79      1.0000 0.24850  0.38960  0.52880  Biso   1.000  C
  H147     1.0000 0.25710  0.43370  0.53080  Biso   1.000  H
  C80      1.0000 0.28300  0.36860  0.56620  Biso   1.000  C
  H148     1.0000 0.31470  0.39860  0.59330  Biso   1.000  H
  C81      1.0000 0.27020  0.30260  0.56320  Biso   1.000  C
  H149     1.0000 0.29330  0.28850  0.58820  Biso   1.000  H
  Cu26     1.0000 0.78024  0.86341  0.05900  Biso   1.000  Cu
  N27      1.0000 0.77470  0.92160  0.11687  Biso   1.000  N
  N28      1.0000 0.80650  0.00990  0.17697  Biso   1.000  N
  C82      1.0000 0.89370  0.01550  0.10707  Biso   1.000  C
  C83      1.0000 0.92950  0.98000  0.10357  Biso   1.000  C
  H150     1.0000 0.90860  0.93520  0.11597  Biso   1.000  H
  C84      1.0000 0.82400  0.98160  0.13237  Biso   1.000  C
  C85      1.0000 0.74230  0.96520  0.18937  Biso   1.000  C
  C86      1.0000 0.72130  0.90970  0.15197  Biso   1.000  C
  C87      1.0000 0.65540  0.85660  0.15497  Biso   1.000  C
  H151     1.0000 0.64130  0.81950  0.12997  Biso   1.000  H
  C88      1.0000 0.61040  0.85890  0.19547  Biso   1.000  C
  H152     1.0000 0.56630  0.82340  0.19747  Biso   1.000  H
  C89      1.0000 0.63140  0.91440  0.23287  Biso   1.000  C
  H153     1.0000 0.60140  0.91610  0.25997  Biso   1.000  H
  C90      1.0000 0.69740  0.96760  0.22987  Biso   1.000  C
  H154     1.0000 0.71150  0.00480  0.25487  Biso   1.000  H
  Cu27     1.0000 0.13659  0.91683  0.72566  Biso   1.000  Cu
  N29      1.0000 0.07840  0.85310  0.78353  Biso   1.000  N
  N30      1.0000 0.99010  0.79660  0.84363  Biso   1.000  N
  C91      1.0000 0.98450  0.87820  0.77373  Biso   1.000  C
  C92      1.0000 0.02000  0.94950  0.77023  Biso   1.000  C
  H155     1.0000 0.06480  0.97340  0.78263  Biso   1.000  H
  C93      1.0000 0.01840  0.84240  0.79903  Biso   1.000  C
  C94      1.0000 0.03480  0.77710  0.85603  Biso   1.000  C
  C95      1.0000 0.09030  0.81160  0.81863  Biso   1.000  C
  C96      1.0000 0.14340  0.79880  0.82163  Biso   1.000  C
  H156     1.0000 0.18050  0.82180  0.79663  Biso   1.000  H
  C97      1.0000 0.14110  0.75150  0.86213  Biso   1.000  C
  H157     1.0000 0.17660  0.74290  0.86413  Biso   1.000  H
  C98      1.0000 0.08560  0.71700  0.89953  Biso   1.000  C
  H158     1.0000 0.08390  0.68530  0.92663  Biso   1.000  H
  C99      1.0000 0.03240  0.72980  0.89653  Biso   1.000  C
  H159     1.0000 0.99520  0.70670  0.92153  Biso   1.000  H
  Cu28     1.0000 0.91683  0.78024  0.89233  Biso   1.000  Cu
  N31      1.0000 0.85310  0.77470  0.95020  Biso   1.000  N
  N32      1.0000 0.79660  0.80650  0.01030  Biso   1.000  N
  C100     1.0000 0.87820  0.89370  0.94040  Biso   1.000  C
  C101     1.0000 0.94950  0.92950  0.93690  Biso   1.000  C
  H160     1.0000 0.97340  0.90860  0.94930  Biso   1.000  H
  C102     1.0000 0.84240  0.82400  0.96570  Biso   1.000  C
  C103     1.0000 0.77710  0.74230  0.02270  Biso   1.000  C
  C104     1.0000 0.81160  0.72130  0.98530  Biso   1.000  C
  C105     1.0000 0.79880  0.65540  0.98830  Biso   1.000  C
  H161     1.0000 0.82180  0.64130  0.96330  Biso   1.000  H
  C106     1.0000 0.75150  0.61040  0.02880  Biso   1.000  C
  H162     1.0000 0.74290  0.56630  0.03080  Biso   1.000  H
  C107     1.0000 0.71700  0.63140  0.06620  Biso   1.000  C
  H163     1.0000 0.68530  0.60140  0.09330  Biso   1.000  H
  C108     1.0000 0.72980  0.69740  0.06320  Biso   1.000  C
  H164     1.0000 0.70670  0.71150  0.08820  Biso   1.000  H
  Cu29     1.0000 0.21976  0.13659  0.55900  Biso   1.000  Cu
  N33      1.0000 0.22530  0.07840  0.61687  Biso   1.000  N
  N34      1.0000 0.19350  0.99010  0.67697  Biso   1.000  N
  C109     1.0000 0.10630  0.98450  0.60707  Biso   1.000  C
  C110     1.0000 0.07050  0.02000  0.60357  Biso   1.000  C
  H165     1.0000 0.09140  0.06480  0.61597  Biso   1.000  H
  C111     1.0000 0.17600  0.01840  0.63237  Biso   1.000  C
  C112     1.0000 0.25770  0.03480  0.68937  Biso   1.000  C
  C113     1.0000 0.27870  0.09030  0.65197  Biso   1.000  C
  C114     1.0000 0.34460  0.14340  0.65497  Biso   1.000  C
  H166     1.0000 0.35870  0.18050  0.62997  Biso   1.000  H
  C115     1.0000 0.38960  0.14110  0.69547  Biso   1.000  C
  H167     1.0000 0.43370  0.17660  0.69747  Biso   1.000  H
  C116     1.0000 0.36860  0.08560  0.73287  Biso   1.000  C
  H168     1.0000 0.39860  0.08390  0.75997  Biso   1.000  H
  C117     1.0000 0.30260  0.03240  0.72987  Biso   1.000  C
  H169     1.0000 0.28850  0.99520  0.75487  Biso   1.000  H
  Cu30     1.0000 0.86341  0.08317  0.22566  Biso   1.000  Cu
  N35      1.0000 0.92160  0.14690  0.28353  Biso   1.000  N
  N36      1.0000 0.00990  0.20340  0.34363  Biso   1.000  N
  C118     1.0000 0.01550  0.12180  0.27373  Biso   1.000  C
  C119     1.0000 0.98000  0.05050  0.27023  Biso   1.000  C
  H170     1.0000 0.93520  0.02660  0.28263  Biso   1.000  H
  C120     1.0000 0.98160  0.15760  0.29903  Biso   1.000  C
  C121     1.0000 0.96520  0.22290  0.35603  Biso   1.000  C
  C122     1.0000 0.90970  0.18840  0.31863  Biso   1.000  C
  C123     1.0000 0.85660  0.20120  0.32163  Biso   1.000  C
  H171     1.0000 0.81950  0.17820  0.29663  Biso   1.000  H
  C124     1.0000 0.85890  0.24850  0.36213  Biso   1.000  C
  H172     1.0000 0.82340  0.25710  0.36413  Biso   1.000  H
  C125     1.0000 0.91440  0.28300  0.39953  Biso   1.000  C
  H173     1.0000 0.91610  0.31470  0.42663  Biso   1.000  H
  C126     1.0000 0.96760  0.27020  0.39653  Biso   1.000  C
  H174     1.0000 0.00480  0.29330  0.42153  Biso   1.000  H
  Cu31     1.0000 0.21976  0.08317  0.27434  Biso   1.000  Cu
  N37      1.0000 0.22530  0.14690  0.21647  Biso   1.000  N
  N38      1.0000 0.19350  0.20340  0.15637  Biso   1.000  N
  C127     1.0000 0.10630  0.12180  0.22627  Biso   1.000  C
  C128     1.0000 0.07050  0.05050  0.22977  Biso   1.000  C
  H175     1.0000 0.09140  0.02660  0.21737  Biso   1.000  H
  C129     1.0000 0.17600  0.15760  0.20097  Biso   1.000  C
  C130     1.0000 0.25770  0.22290  0.14397  Biso   1.000  C
  C131     1.0000 0.27870  0.18840  0.18137  Biso   1.000  C
  C132     1.0000 0.34460  0.20120  0.17837  Biso   1.000  C
  H176     1.0000 0.35870  0.17820  0.20337  Biso   1.000  H
  C133     1.0000 0.38960  0.24850  0.13787  Biso   1.000  C
  H177     1.0000 0.43370  0.25710  0.13587  Biso   1.000  H
  C134     1.0000 0.36860  0.28300  0.10047  Biso   1.000  C
  H178     1.0000 0.39860  0.31470  0.07337  Biso   1.000  H
  C135     1.0000 0.30260  0.27020  0.10347  Biso   1.000  C
  H179     1.0000 0.28850  0.29330  0.07847  Biso   1.000  H
  Cu32     1.0000 0.86341  0.78024  0.60767  Biso   1.000  Cu
  N39      1.0000 0.92160  0.77470  0.54980  Biso   1.000  N
  N40      1.0000 0.00990  0.80650  0.48970  Biso   1.000  N
  C136     1.0000 0.01550  0.89370  0.55960  Biso   1.000  C
  C137     1.0000 0.98000  0.92950  0.56310  Biso   1.000  C
  H180     1.0000 0.93520  0.90860  0.55070  Biso   1.000  H
  C138     1.0000 0.98160  0.82400  0.53430  Biso   1.000  C
  C139     1.0000 0.96520  0.74230  0.47730  Biso   1.000  C
  C140     1.0000 0.90970  0.72130  0.51470  Biso   1.000  C
  C141     1.0000 0.85660  0.65540  0.51170  Biso   1.000  C
  H181     1.0000 0.81950  0.64130  0.53670  Biso   1.000  H
  C142     1.0000 0.85890  0.61040  0.47120  Biso   1.000  C
  H182     1.0000 0.82340  0.56630  0.46920  Biso   1.000  H
  C143     1.0000 0.91440  0.63140  0.43380  Biso   1.000  C
  H183     1.0000 0.91610  0.60140  0.40670  Biso   1.000  H
  C144     1.0000 0.96760  0.69740  0.43680  Biso   1.000  C
  H184     1.0000 0.00480  0.71150  0.41180  Biso   1.000  H
  Cu33     1.0000 0.91683  0.13659  0.94100  Biso   1.000  Cu
  N41      1.0000 0.85310  0.07840  0.88313  Biso   1.000  N
  N42      1.0000 0.79660  0.99010  0.82303  Biso   1.000  N
  C145     1.0000 0.87820  0.98450  0.89293  Biso   1.000  C
  C146     1.0000 0.94950  0.02000  0.89643  Biso   1.000  C
  H185     1.0000 0.97340  0.06480  0.88403  Biso   1.000  H
  C147     1.0000 0.84240  0.01840  0.86763  Biso   1.000  C
  C148     1.0000 0.77710  0.03480  0.81063  Biso   1.000  C
  C149     1.0000 0.81160  0.09030  0.84803  Biso   1.000  C
  C150     1.0000 0.79880  0.14340  0.84503  Biso   1.000  C
  H186     1.0000 0.82180  0.18050  0.87003  Biso   1.000  H
  C151     1.0000 0.75150  0.14110  0.80453  Biso   1.000  C
  H187     1.0000 0.74290  0.17660  0.80253  Biso   1.000  H
  C152     1.0000 0.71700  0.08560  0.76713  Biso   1.000  C
  H188     1.0000 0.68530  0.08390  0.74003  Biso   1.000  H
  C153     1.0000 0.72980  0.03240  0.77013  Biso   1.000  C
  H189     1.0000 0.70670  0.99520  0.74513  Biso   1.000  H
  Cu34     1.0000 0.78024  0.91683  0.77434  Biso   1.000  Cu
  N43      1.0000 0.77470  0.85310  0.71647  Biso   1.000  N
  N44      1.0000 0.80650  0.79660  0.65637  Biso   1.000  N
  C154     1.0000 0.89370  0.87820  0.72627  Biso   1.000  C
  C155     1.0000 0.92950  0.94950  0.72977  Biso   1.000  C
  H190     1.0000 0.90860  0.97340  0.71737  Biso   1.000  H
  C156     1.0000 0.82400  0.84240  0.70097  Biso   1.000  C
  C157     1.0000 0.74230  0.77710  0.64397  Biso   1.000  C
  C158     1.0000 0.72130  0.81160  0.68137  Biso   1.000  C
  C159     1.0000 0.65540  0.79880  0.67837  Biso   1.000  C
  H191     1.0000 0.64130  0.82180  0.70337  Biso   1.000  H
  C160     1.0000 0.61040  0.75150  0.63787  Biso   1.000  C
  H192     1.0000 0.56630  0.74290  0.63587  Biso   1.000  H
  C161     1.0000 0.63140  0.71700  0.60047  Biso   1.000  C
  H193     1.0000 0.60140  0.68530  0.57337  Biso   1.000  H
  C162     1.0000 0.69740  0.72980  0.60347  Biso   1.000  C
  H194     1.0000 0.71150  0.70670  0.57847  Biso   1.000  H
  Cu35     1.0000 0.13659  0.21976  0.10767  Biso   1.000  Cu
  N45      1.0000 0.07840  0.22530  0.04980  Biso   1.000  N
  N46      1.0000 0.99010  0.19350  0.98970  Biso   1.000  N
  C163     1.0000 0.98450  0.10630  0.05960  Biso   1.000  C
  C164     1.0000 0.02000  0.07050  0.06310  Biso   1.000  C
  H195     1.0000 0.06480  0.09140  0.05070  Biso   1.000  H
  C165     1.0000 0.01840  0.17600  0.03430  Biso   1.000  C
  C166     1.0000 0.03480  0.25770  0.97730  Biso   1.000  C
  C167     1.0000 0.09030  0.27870  0.01470  Biso   1.000  C
  C168     1.0000 0.14340  0.34460  0.01170  Biso   1.000  C
  H196     1.0000 0.18050  0.35870  0.03670  Biso   1.000  H
  C169     1.0000 0.14110  0.38960  0.97120  Biso   1.000  C
  H197     1.0000 0.17660  0.43370  0.96920  Biso   1.000  H
  C170     1.0000 0.08560  0.36860  0.93380  Biso   1.000  C
  H198     1.0000 0.08390  0.39860  0.90670  Biso   1.000  H
  C171     1.0000 0.03240  0.30260  0.93680  Biso   1.000  C
  H199     1.0000 0.99520  0.28850  0.91180  Biso   1.000  H
  Cu36     1.0000 0.08317  0.86341  0.44100  Biso   1.000  Cu
  N47      1.0000 0.14690  0.92160  0.38313  Biso   1.000  N
  N48      1.0000 0.20340  0.00990  0.32303  Biso   1.000  N
  C172     1.0000 0.12180  0.01550  0.39293  Biso   1.000  C
  C173     1.0000 0.05050  0.98000  0.39643  Biso   1.000  C
  H200     1.0000 0.02660  0.93520  0.38403  Biso   1.000  H
  C174     1.0000 0.15760  0.98160  0.36763  Biso   1.000  C
  C175     1.0000 0.22290  0.96520  0.31063  Biso   1.000  C
  C176     1.0000 0.18840  0.90970  0.34803  Biso   1.000  C
  C177     1.0000 0.20120  0.85660  0.34503  Biso   1.000  C
  H201     1.0000 0.17820  0.81950  0.37003  Biso   1.000  H
  C178     1.0000 0.24850  0.85890  0.30453  Biso   1.000  C
  H202     1.0000 0.25710  0.82340  0.30253  Biso   1.000  H
  C179     1.0000 0.28300  0.91440  0.26713  Biso   1.000  C
  H203     1.0000 0.31470  0.91610  0.24003  Biso   1.000  H
  C180     1.0000 0.27020  0.96760  0.27013  Biso   1.000  C
  H204     1.0000 0.29330  0.00480  0.24513  Biso   1.000  H
  C181     1.0000 0.15260  0.07630  0.41667  Biso   1.000  C
  H205     1.0000 0.19940  0.09970  0.41667  Biso   1.000  H
  C182     1.0000 0.01780  0.00890  0.41667  Biso   1.000  C
  H206     1.0000 0.97090  0.98545  0.41667  Biso   1.000  H
  C183     1.0000 0.92370  0.07630  0.08333  Biso   1.000  C
  H207     1.0000 0.90030  0.09970  0.08333  Biso   1.000  H
  C184     1.0000 0.99110  0.00890  0.08333  Biso   1.000  C
  H208     1.0000 0.01455  0.98545  0.08333  Biso   1.000  H
  C185     1.0000 0.92370  0.84740  0.75000  Biso   1.000  C
  H209     1.0000 0.90030  0.80060  0.75000  Biso   1.000  H
  C186     1.0000 0.99110  0.98220  0.75000  Biso   1.000  C
  H210     1.0000 0.01455  0.02910  0.75000  Biso   1.000  H
  C187     1.0000 0.84740  0.92370  0.91667  Biso   1.000  C
  H211     1.0000 0.80060  0.90030  0.91667  Biso   1.000  H
  C188     1.0000 0.98220  0.99110  0.91667  Biso   1.000  C
  H212     1.0000 0.02910  0.01455  0.91667  Biso   1.000  H
  C189     1.0000 0.07630  0.92370  0.58333  Biso   1.000  C
  H213     1.0000 0.09970  0.90030  0.58333  Biso   1.000  H
  C190     1.0000 0.00890  0.99110  0.58333  Biso   1.000  C
  H214     1.0000 0.98545  0.01455  0.58333  Biso   1.000  H
  C191     1.0000 0.07630  0.15260  0.25000  Biso   1.000  C
  H215     1.0000 0.09970  0.19940  0.25000  Biso   1.000  H
  C192     1.0000 0.00890  0.01780  0.25000  Biso   1.000  C
  H216     1.0000 0.98545  0.97090  0.25000  Biso   1.000  H
