data_image0
_cell_length_a       32.1397
_cell_length_b       32.1397
_cell_length_c       16.6976
_cell_angle_alpha    90
_cell_angle_beta     90
_cell_angle_gamma    120

_symmetry_space_group_name_H-M    "P 1"
_symmetry_int_tables_number       1

loop_
  _symmetry_equiv_pos_as_xyz
  'x, y, z'

loop_
  _atom_site_label
  _atom_site_occupancy
  _atom_site_fract_x
  _atom_site_fract_y
  _atom_site_fract_z
  _atom_site_thermal_displace_type
  _atom_site_B_iso_or_equiv
  _atom_site_type_symbol
  O1       1.0000 0.24994  0.66000  0.91230  Biso   1.000  O
  C1       1.0000 0.17760  0.55150  0.79680  Biso   1.000  C
  H1       1.0000 0.18840  0.53190  0.81820  Biso   1.000  H
  C2       1.0000 0.14300  0.53430  0.73720  Biso   1.000  C
  H2       1.0000 0.13170  0.50350  0.71700  Biso   1.000  H
  O2       1.0000 0.34000  0.58994  0.91230  Biso   1.000  O
  C3       1.0000 0.44850  0.62610  0.79680  Biso   1.000  C
  H3       1.0000 0.46810  0.65650  0.81820  Biso   1.000  H
  C4       1.0000 0.46570  0.60870  0.73720  Biso   1.000  C
  H4       1.0000 0.49650  0.62820  0.71700  Biso   1.000  H
  O3       1.0000 0.41006  0.75006  0.91230  Biso   1.000  O
  C5       1.0000 0.37390  0.82240  0.79680  Biso   1.000  C
  H5       1.0000 0.34350  0.81160  0.81820  Biso   1.000  H
  C6       1.0000 0.39130  0.85700  0.73720  Biso   1.000  C
  H6       1.0000 0.37180  0.86830  0.71700  Biso   1.000  H
  O4       1.0000 0.75006  0.34000  0.91230  Biso   1.000  O
  C7       1.0000 0.82240  0.44850  0.79680  Biso   1.000  C
  H7       1.0000 0.81160  0.46810  0.81820  Biso   1.000  H
  C8       1.0000 0.85700  0.46570  0.73720  Biso   1.000  C
  H8       1.0000 0.86830  0.49650  0.71700  Biso   1.000  H
  O5       1.0000 0.66000  0.41006  0.91230  Biso   1.000  O
  C9       1.0000 0.55150  0.37390  0.79680  Biso   1.000  C
  H9       1.0000 0.53190  0.34350  0.81820  Biso   1.000  H
  C10      1.0000 0.53430  0.39130  0.73720  Biso   1.000  C
  H10      1.0000 0.50350  0.37180  0.71700  Biso   1.000  H
  O6       1.0000 0.58994  0.24994  0.91230  Biso   1.000  O
  C11      1.0000 0.62610  0.17760  0.79680  Biso   1.000  C
  H11      1.0000 0.65650  0.18840  0.81820  Biso   1.000  H
  C12      1.0000 0.60870  0.14300  0.73720  Biso   1.000  C
  H12      1.0000 0.62820  0.13170  0.71700  Biso   1.000  H
  O7       1.0000 0.66000  0.24994  0.08770  Biso   1.000  O
  C13      1.0000 0.55150  0.17760  0.20320  Biso   1.000  C
  H13      1.0000 0.53190  0.18840  0.18180  Biso   1.000  H
  C14      1.0000 0.53430  0.14300  0.26280  Biso   1.000  C
  H14      1.0000 0.50350  0.13170  0.28300  Biso   1.000  H
  O8       1.0000 0.58994  0.34000  0.08770  Biso   1.000  O
  C15      1.0000 0.62610  0.44850  0.20320  Biso   1.000  C
  H15      1.0000 0.65650  0.46810  0.18180  Biso   1.000  H
  C16      1.0000 0.60870  0.46570  0.26280  Biso   1.000  C
  H16      1.0000 0.62820  0.49650  0.28300  Biso   1.000  H
  O9       1.0000 0.75006  0.41006  0.08770  Biso   1.000  O
  C17      1.0000 0.82240  0.37390  0.20320  Biso   1.000  C
  H17      1.0000 0.81160  0.34350  0.18180  Biso   1.000  H
  C18      1.0000 0.85700  0.39130  0.26280  Biso   1.000  C
  H18      1.0000 0.86830  0.37180  0.28300  Biso   1.000  H
  O10      1.0000 0.34000  0.75006  0.08770  Biso   1.000  O
  C19      1.0000 0.44850  0.82240  0.20320  Biso   1.000  C
  H19      1.0000 0.46810  0.81160  0.18180  Biso   1.000  H
  C20      1.0000 0.46570  0.85700  0.26280  Biso   1.000  C
  H20      1.0000 0.49650  0.86830  0.28300  Biso   1.000  H
  O11      1.0000 0.41006  0.66000  0.08770  Biso   1.000  O
  C21      1.0000 0.37390  0.55150  0.20320  Biso   1.000  C
  H21      1.0000 0.34350  0.53190  0.18180  Biso   1.000  H
  C22      1.0000 0.39130  0.53430  0.26280  Biso   1.000  C
  H22      1.0000 0.37180  0.50350  0.28300  Biso   1.000  H
  O12      1.0000 0.24994  0.58994  0.08770  Biso   1.000  O
  C23      1.0000 0.17760  0.62610  0.20320  Biso   1.000  C
  H23      1.0000 0.18840  0.65650  0.18180  Biso   1.000  H
  C24      1.0000 0.14300  0.60870  0.26280  Biso   1.000  C
  H24      1.0000 0.13170  0.62820  0.28300  Biso   1.000  H
  O13      1.0000 0.75006  0.34000  0.08770  Biso   1.000  O
  C25      1.0000 0.82240  0.44850  0.20320  Biso   1.000  C
  H25      1.0000 0.81160  0.46810  0.18180  Biso   1.000  H
  C26      1.0000 0.85700  0.46570  0.26280  Biso   1.000  C
  H26      1.0000 0.86830  0.49650  0.28300  Biso   1.000  H
  O14      1.0000 0.66000  0.41006  0.08770  Biso   1.000  O
  C27      1.0000 0.55150  0.37390  0.20320  Biso   1.000  C
  H27      1.0000 0.53190  0.34350  0.18180  Biso   1.000  H
  C28      1.0000 0.53430  0.39130  0.26280  Biso   1.000  C
  H28      1.0000 0.50350  0.37180  0.28300  Biso   1.000  H
  O15      1.0000 0.58994  0.24994  0.08770  Biso   1.000  O
  C29      1.0000 0.62610  0.17760  0.20320  Biso   1.000  C
  H29      1.0000 0.65650  0.18840  0.18180  Biso   1.000  H
  C30      1.0000 0.60870  0.14300  0.26280  Biso   1.000  C
  H30      1.0000 0.62820  0.13170  0.28300  Biso   1.000  H
  O16      1.0000 0.24994  0.66000  0.08770  Biso   1.000  O
  C31      1.0000 0.17760  0.55150  0.20320  Biso   1.000  C
  H31      1.0000 0.18840  0.53190  0.18180  Biso   1.000  H
  C32      1.0000 0.14300  0.53430  0.26280  Biso   1.000  C
  H32      1.0000 0.13170  0.50350  0.28300  Biso   1.000  H
  O17      1.0000 0.34000  0.58994  0.08770  Biso   1.000  O
  C33      1.0000 0.44850  0.62610  0.20320  Biso   1.000  C
  H33      1.0000 0.46810  0.65650  0.18180  Biso   1.000  H
  C34      1.0000 0.46570  0.60870  0.26280  Biso   1.000  C
  H34      1.0000 0.49650  0.62820  0.28300  Biso   1.000  H
  O18      1.0000 0.41006  0.75006  0.08770  Biso   1.000  O
  C35      1.0000 0.37390  0.82240  0.20320  Biso   1.000  C
  H35      1.0000 0.34350  0.81160  0.18180  Biso   1.000  H
  C36      1.0000 0.39130  0.85700  0.26280  Biso   1.000  C
  H36      1.0000 0.37180  0.86830  0.28300  Biso   1.000  H
  O19      1.0000 0.34000  0.75006  0.91230  Biso   1.000  O
  C37      1.0000 0.44850  0.82240  0.79680  Biso   1.000  C
  H37      1.0000 0.46810  0.81160  0.81820  Biso   1.000  H
  C38      1.0000 0.46570  0.85700  0.73720  Biso   1.000  C
  H38      1.0000 0.49650  0.86830  0.71700  Biso   1.000  H
  O20      1.0000 0.41006  0.66000  0.91230  Biso   1.000  O
  C39      1.0000 0.37390  0.55150  0.79680  Biso   1.000  C
  H39      1.0000 0.34350  0.53190  0.81820  Biso   1.000  H
  C40      1.0000 0.39130  0.53430  0.73720  Biso   1.000  C
  H40      1.0000 0.37180  0.50350  0.71700  Biso   1.000  H
  O21      1.0000 0.24994  0.58994  0.91230  Biso   1.000  O
  C41      1.0000 0.17760  0.62610  0.79680  Biso   1.000  C
  H41      1.0000 0.18840  0.65650  0.81820  Biso   1.000  H
  C42      1.0000 0.14300  0.60870  0.73720  Biso   1.000  C
  H42      1.0000 0.13170  0.62820  0.71700  Biso   1.000  H
  O22      1.0000 0.66000  0.24994  0.91230  Biso   1.000  O
  C43      1.0000 0.55150  0.17760  0.79680  Biso   1.000  C
  H43      1.0000 0.53190  0.18840  0.81820  Biso   1.000  H
  C44      1.0000 0.53430  0.14300  0.73720  Biso   1.000  C
  H44      1.0000 0.50350  0.13170  0.71700  Biso   1.000  H
  O23      1.0000 0.58994  0.34000  0.91230  Biso   1.000  O
  C45      1.0000 0.62610  0.44850  0.79680  Biso   1.000  C
  H45      1.0000 0.65650  0.46810  0.81820  Biso   1.000  H
  C46      1.0000 0.60870  0.46570  0.73720  Biso   1.000  C
  H46      1.0000 0.62820  0.49650  0.71700  Biso   1.000  H
  O24      1.0000 0.75006  0.41006  0.91230  Biso   1.000  O
  C47      1.0000 0.82240  0.37390  0.79680  Biso   1.000  C
  H47      1.0000 0.81160  0.34350  0.81820  Biso   1.000  H
  C48      1.0000 0.85700  0.39130  0.73720  Biso   1.000  C
  H48      1.0000 0.86830  0.37180  0.71700  Biso   1.000  H
  Co1      1.0000 0.29705  0.70295  0.00000  Biso   1.000  Co
  Co2      1.0000 0.29705  0.59410  0.00000  Biso   1.000  Co
  Co3      1.0000 0.40590  0.70295  0.00000  Biso   1.000  Co
  Co4      1.0000 0.70295  0.29705  0.00000  Biso   1.000  Co
  Co5      1.0000 0.70295  0.40590  0.00000  Biso   1.000  Co
  Co6      1.0000 0.59410  0.29705  0.00000  Biso   1.000  Co
  C49      1.0000 0.10060  0.55030  0.56700  Biso   1.000  C
  C50      1.0000 0.03930  0.51965  0.66900  Biso   1.000  C
  C51      1.0000 0.08700  0.54350  0.64370  Biso   1.000  C
  C52      1.0000 0.15020  0.57510  0.54220  Biso   1.000  C
  H49      1.0000 0.17700  0.58850  0.57540  Biso   1.000  H
  C53      1.0000 0.02340  0.51170  0.74980  Biso   1.000  C
  H50      1.0000 0.04300  0.52150  0.79490  Biso   1.000  H
  C54      1.0000 0.12530  0.56265  0.70740  Biso   1.000  C
  C55      1.0000 0.19590  0.59795  0.82440  Biso   1.000  C
  C56      1.0000 0.23610  0.61805  0.88910  Biso   1.000  C
  C57      1.0000 0.44970  0.55030  0.56700  Biso   1.000  C
  C58      1.0000 0.48035  0.51965  0.66900  Biso   1.000  C
  C59      1.0000 0.45650  0.54350  0.64370  Biso   1.000  C
  C60      1.0000 0.42490  0.57510  0.54220  Biso   1.000  C
  H51      1.0000 0.41150  0.58850  0.57540  Biso   1.000  H
  C61      1.0000 0.48830  0.51170  0.74980  Biso   1.000  C
  H52      1.0000 0.47850  0.52150  0.79490  Biso   1.000  H
  C62      1.0000 0.43735  0.56265  0.70740  Biso   1.000  C
  C63      1.0000 0.40205  0.59795  0.82440  Biso   1.000  C
  C64      1.0000 0.38195  0.61805  0.88910  Biso   1.000  C
  C65      1.0000 0.44970  0.89940  0.56700  Biso   1.000  C
  C66      1.0000 0.48035  0.96070  0.66900  Biso   1.000  C
  C67      1.0000 0.45650  0.91300  0.64370  Biso   1.000  C
  C68      1.0000 0.42490  0.84980  0.54220  Biso   1.000  C
  H53      1.0000 0.41150  0.82300  0.57540  Biso   1.000  H
  C69      1.0000 0.48830  0.97660  0.74980  Biso   1.000  C
  H54      1.0000 0.47850  0.95700  0.79490  Biso   1.000  H
  C70      1.0000 0.43735  0.87470  0.70740  Biso   1.000  C
  C71      1.0000 0.40205  0.80410  0.82440  Biso   1.000  C
  C72      1.0000 0.38195  0.76390  0.88910  Biso   1.000  C
  C73      1.0000 0.89940  0.44970  0.56700  Biso   1.000  C
  C74      1.0000 0.96070  0.48035  0.66900  Biso   1.000  C
  C75      1.0000 0.91300  0.45650  0.64370  Biso   1.000  C
  C76      1.0000 0.84980  0.42490  0.54220  Biso   1.000  C
  H55      1.0000 0.82300  0.41150  0.57540  Biso   1.000  H
  C77      1.0000 0.97660  0.48830  0.74980  Biso   1.000  C
  H56      1.0000 0.95700  0.47850  0.79490  Biso   1.000  H
  C78      1.0000 0.87470  0.43735  0.70740  Biso   1.000  C
  C79      1.0000 0.80410  0.40205  0.82440  Biso   1.000  C
  C80      1.0000 0.76390  0.38195  0.88910  Biso   1.000  C
  C81      1.0000 0.55030  0.44970  0.56700  Biso   1.000  C
  C82      1.0000 0.51965  0.48035  0.66900  Biso   1.000  C
  C83      1.0000 0.54350  0.45650  0.64370  Biso   1.000  C
  C84      1.0000 0.57510  0.42490  0.54220  Biso   1.000  C
  H57      1.0000 0.58850  0.41150  0.57540  Biso   1.000  H
  C85      1.0000 0.51170  0.48830  0.74980  Biso   1.000  C
  H58      1.0000 0.52150  0.47850  0.79490  Biso   1.000  H
  C86      1.0000 0.56265  0.43735  0.70740  Biso   1.000  C
  C87      1.0000 0.59795  0.40205  0.82440  Biso   1.000  C
  C88      1.0000 0.61805  0.38195  0.88910  Biso   1.000  C
  C89      1.0000 0.55030  0.10060  0.56700  Biso   1.000  C
  C90      1.0000 0.51965  0.03930  0.66900  Biso   1.000  C
  C91      1.0000 0.54350  0.08700  0.64370  Biso   1.000  C
  C92      1.0000 0.57510  0.15020  0.54220  Biso   1.000  C
  H59      1.0000 0.58850  0.17700  0.57540  Biso   1.000  H
  C93      1.0000 0.51170  0.02340  0.74980  Biso   1.000  C
  H60      1.0000 0.52150  0.04300  0.79490  Biso   1.000  H
  C94      1.0000 0.56265  0.12530  0.70740  Biso   1.000  C
  C95      1.0000 0.59795  0.19590  0.82440  Biso   1.000  C
  C96      1.0000 0.61805  0.23610  0.88910  Biso   1.000  C
  C97      1.0000 0.55030  0.10060  0.43300  Biso   1.000  C
  C98      1.0000 0.51965  0.03930  0.33100  Biso   1.000  C
  C99      1.0000 0.54350  0.08700  0.35630  Biso   1.000  C
  C100     1.0000 0.57510  0.15020  0.45780  Biso   1.000  C
  H61      1.0000 0.58850  0.17700  0.42460  Biso   1.000  H
  C101     1.0000 0.51170  0.02340  0.25020  Biso   1.000  C
  H62      1.0000 0.52150  0.04300  0.20510  Biso   1.000  H
  C102     1.0000 0.56265  0.12530  0.29260  Biso   1.000  C
  C103     1.0000 0.59795  0.19590  0.17560  Biso   1.000  C
  C104     1.0000 0.61805  0.23610  0.11090  Biso   1.000  C
  C105     1.0000 0.55030  0.44970  0.43300  Biso   1.000  C
  C106     1.0000 0.51965  0.48035  0.33100  Biso   1.000  C
  C107     1.0000 0.54350  0.45650  0.35630  Biso   1.000  C
  C108     1.0000 0.57510  0.42490  0.45780  Biso   1.000  C
  H63      1.0000 0.58850  0.41150  0.42460  Biso   1.000  H
  C109     1.0000 0.51170  0.48830  0.25020  Biso   1.000  C
  H64      1.0000 0.52150  0.47850  0.20510  Biso   1.000  H
  C110     1.0000 0.56265  0.43735  0.29260  Biso   1.000  C
  C111     1.0000 0.59795  0.40205  0.17560  Biso   1.000  C
  C112     1.0000 0.61805  0.38195  0.11090  Biso   1.000  C
  C113     1.0000 0.89940  0.44970  0.43300  Biso   1.000  C
  C114     1.0000 0.96070  0.48035  0.33100  Biso   1.000  C
  C115     1.0000 0.91300  0.45650  0.35630  Biso   1.000  C
  C116     1.0000 0.84980  0.42490  0.45780  Biso   1.000  C
  H65      1.0000 0.82300  0.41150  0.42460  Biso   1.000  H
  C117     1.0000 0.97660  0.48830  0.25020  Biso   1.000  C
  H66      1.0000 0.95700  0.47850  0.20510  Biso   1.000  H
  C118     1.0000 0.87470  0.43735  0.29260  Biso   1.000  C
  C119     1.0000 0.80410  0.40205  0.17560  Biso   1.000  C
  C120     1.0000 0.76390  0.38195  0.11090  Biso   1.000  C
  C121     1.0000 0.44970  0.89940  0.43300  Biso   1.000  C
  C122     1.0000 0.48035  0.96070  0.33100  Biso   1.000  C
  C123     1.0000 0.45650  0.91300  0.35630  Biso   1.000  C
  C124     1.0000 0.42490  0.84980  0.45780  Biso   1.000  C
  H67      1.0000 0.41150  0.82300  0.42460  Biso   1.000  H
  C125     1.0000 0.48830  0.97660  0.25020  Biso   1.000  C
  H68      1.0000 0.47850  0.95700  0.20510  Biso   1.000  H
  C126     1.0000 0.43735  0.87470  0.29260  Biso   1.000  C
  C127     1.0000 0.40205  0.80410  0.17560  Biso   1.000  C
  C128     1.0000 0.38195  0.76390  0.11090  Biso   1.000  C
  C129     1.0000 0.44970  0.55030  0.43300  Biso   1.000  C
  C130     1.0000 0.48035  0.51965  0.33100  Biso   1.000  C
  C131     1.0000 0.45650  0.54350  0.35630  Biso   1.000  C
  C132     1.0000 0.42490  0.57510  0.45780  Biso   1.000  C
  H69      1.0000 0.41150  0.58850  0.42460  Biso   1.000  H
  C133     1.0000 0.48830  0.51170  0.25020  Biso   1.000  C
  H70      1.0000 0.47850  0.52150  0.20510  Biso   1.000  H
  C134     1.0000 0.43735  0.56265  0.29260  Biso   1.000  C
  C135     1.0000 0.40205  0.59795  0.17560  Biso   1.000  C
  C136     1.0000 0.38195  0.61805  0.11090  Biso   1.000  C
  C137     1.0000 0.10060  0.55030  0.43300  Biso   1.000  C
  C138     1.0000 0.03930  0.51965  0.33100  Biso   1.000  C
  C139     1.0000 0.08700  0.54350  0.35630  Biso   1.000  C
  C140     1.0000 0.15020  0.57510  0.45780  Biso   1.000  C
  H71      1.0000 0.17700  0.58850  0.42460  Biso   1.000  H
  C141     1.0000 0.02340  0.51170  0.25020  Biso   1.000  C
  H72      1.0000 0.04300  0.52150  0.20510  Biso   1.000  H
  C142     1.0000 0.12530  0.56265  0.29260  Biso   1.000  C
  C143     1.0000 0.19590  0.59795  0.17560  Biso   1.000  C
  C144     1.0000 0.23610  0.61805  0.11090  Biso   1.000  C
  N1       1.0000 0.07090  0.53545  0.50000  Biso   1.000  N
  N2       1.0000 0.46455  0.53545  0.50000  Biso   1.000  N
  N3       1.0000 0.46455  0.92910  0.50000  Biso   1.000  N
  N4       1.0000 0.92910  0.46455  0.50000  Biso   1.000  N
  N5       1.0000 0.53545  0.46455  0.50000  Biso   1.000  N
  N6       1.0000 0.53545  0.07090  0.50000  Biso   1.000  N
  O25      1.0000 0.33333  0.66667  0.00000  Biso   1.000  O
  O26      1.0000 0.66667  0.33333  0.00000  Biso   1.000  O
  Co7      1.0000 0.00000  0.50000  0.50000  Biso   1.000  Co
  Co8      1.0000 0.50000  0.50000  0.50000  Biso   1.000  Co
  Co9      1.0000 0.50000  0.00000  0.50000  Biso   1.000  Co
  N7       1.0000 0.00000  0.50000  0.61710  Biso   1.000  N
  N8       1.0000 0.50000  0.50000  0.61710  Biso   1.000  N
  N9       1.0000 0.50000  0.00000  0.61710  Biso   1.000  N
  N10      1.0000 0.50000  0.00000  0.38290  Biso   1.000  N
  N11      1.0000 0.50000  0.50000  0.38290  Biso   1.000  N
  N12      1.0000 0.00000  0.50000  0.38290  Biso   1.000  N
