data_image0
_cell_length_a       22.9556
_cell_length_b       22.9556
_cell_length_c       15.883
_cell_angle_alpha    90
_cell_angle_beta     90
_cell_angle_gamma    120

_symmetry_space_group_name_H-M    "P 1"
_symmetry_int_tables_number       1

loop_
  _symmetry_equiv_pos_as_xyz
  'x, y, z'

loop_
  _atom_site_label
  _atom_site_occupancy
  _atom_site_fract_x
  _atom_site_fract_y
  _atom_site_fract_z
  _atom_site_thermal_displace_type
  _atom_site_B_iso_or_equiv
  _atom_site_type_symbol
  O1       1.0000 0.59670  0.63030  0.16230  Biso   1.000  O
  C1       1.0000 0.67500  0.83280  0.92120  Biso   1.000  C
  C2       1.0000 0.68780  0.89240  0.87860  Biso   1.000  C
  C3       1.0000 0.65270  0.77310  0.87610  Biso   1.000  C
  H1       1.0000 0.64270  0.73340  0.90360  Biso   1.000  H
  C4       1.0000 0.57540  0.62480  0.08770  Biso   1.000  C
  O2       1.0000 0.59360  0.67900  0.04500  Biso   1.000  O
  O3       1.0000 0.68350  0.83430  0.00600  Biso   1.000  O
  O4       1.0000 0.26337  0.96363  0.49563  Biso   1.000  O
  C5       1.0000 0.34167  0.16613  0.25453  Biso   1.000  C
  C6       1.0000 0.35447  0.22573  0.21193  Biso   1.000  C
  C7       1.0000 0.31937  0.10643  0.20943  Biso   1.000  C
  H2       1.0000 0.30937  0.06673  0.23693  Biso   1.000  H
  C8       1.0000 0.24207  0.95813  0.42103  Biso   1.000  C
  O5       1.0000 0.26027  0.01233  0.37833  Biso   1.000  O
  O6       1.0000 0.35017  0.16763  0.33933  Biso   1.000  O
  O7       1.0000 0.93003  0.29697  0.82897  Biso   1.000  O
  C9       1.0000 0.00833  0.49947  0.58787  Biso   1.000  C
  C10      1.0000 0.02113  0.55907  0.54527  Biso   1.000  C
  C11      1.0000 0.98603  0.43977  0.54277  Biso   1.000  C
  H3       1.0000 0.97603  0.40007  0.57027  Biso   1.000  H
  C12      1.0000 0.90873  0.29147  0.75437  Biso   1.000  C
  O8       1.0000 0.92693  0.34567  0.71167  Biso   1.000  O
  O9       1.0000 0.01683  0.50097  0.67267  Biso   1.000  O
  O10      1.0000 0.36970  0.96640  0.16230  Biso   1.000  O
  C13      1.0000 0.16720  0.84220  0.92120  Biso   1.000  C
  C14      1.0000 0.10760  0.79540  0.87860  Biso   1.000  C
  C15      1.0000 0.22690  0.87960  0.87610  Biso   1.000  C
  H4       1.0000 0.26660  0.90930  0.90360  Biso   1.000  H
  C16      1.0000 0.37520  0.95060  0.08770  Biso   1.000  C
  O11      1.0000 0.32100  0.91460  0.04500  Biso   1.000  O
  O12      1.0000 0.16570  0.84920  0.00600  Biso   1.000  O
  O13      1.0000 0.03637  0.29973  0.49563  Biso   1.000  O
  C17      1.0000 0.83387  0.17553  0.25453  Biso   1.000  C
  C18      1.0000 0.77427  0.12873  0.21193  Biso   1.000  C
  C19      1.0000 0.89357  0.21293  0.20943  Biso   1.000  C
  H5       1.0000 0.93327  0.24263  0.23693  Biso   1.000  H
  C20      1.0000 0.04187  0.28393  0.42103  Biso   1.000  C
  O14      1.0000 0.98767  0.24793  0.37833  Biso   1.000  O
  O15      1.0000 0.83237  0.18253  0.33933  Biso   1.000  O
  O16      1.0000 0.70303  0.63307  0.82897  Biso   1.000  O
  C21      1.0000 0.50053  0.50887  0.58787  Biso   1.000  C
  C22      1.0000 0.44093  0.46207  0.54527  Biso   1.000  C
  C23      1.0000 0.56023  0.54627  0.54277  Biso   1.000  C
  H6       1.0000 0.59993  0.57597  0.57027  Biso   1.000  H
  C24      1.0000 0.70853  0.61727  0.75437  Biso   1.000  C
  O17      1.0000 0.65433  0.58127  0.71167  Biso   1.000  O
  O18      1.0000 0.49903  0.51587  0.67267  Biso   1.000  O
  O19      1.0000 0.03360  0.40330  0.16230  Biso   1.000  O
  C25      1.0000 0.15780  0.32500  0.92120  Biso   1.000  C
  C26      1.0000 0.20460  0.31220  0.87860  Biso   1.000  C
  C27      1.0000 0.12040  0.34730  0.87610  Biso   1.000  C
  H7       1.0000 0.09070  0.35730  0.90360  Biso   1.000  H
  C28      1.0000 0.04940  0.42460  0.08770  Biso   1.000  C
  O20      1.0000 0.08540  0.40640  0.04500  Biso   1.000  O
  O21      1.0000 0.15080  0.31650  0.00600  Biso   1.000  O
  O22      1.0000 0.70027  0.73663  0.49563  Biso   1.000  O
  C29      1.0000 0.82447  0.65833  0.25453  Biso   1.000  C
  C30      1.0000 0.87127  0.64553  0.21193  Biso   1.000  C
  C31      1.0000 0.78707  0.68063  0.20943  Biso   1.000  C
  H8       1.0000 0.75737  0.69063  0.23693  Biso   1.000  H
  C32      1.0000 0.71607  0.75793  0.42103  Biso   1.000  C
  O23      1.0000 0.75207  0.73973  0.37833  Biso   1.000  O
  O24      1.0000 0.81747  0.64983  0.33933  Biso   1.000  O
  O25      1.0000 0.36693  0.06997  0.82897  Biso   1.000  O
  C33      1.0000 0.49113  0.99167  0.58787  Biso   1.000  C
  C34      1.0000 0.53793  0.97887  0.54527  Biso   1.000  C
  C35      1.0000 0.45373  0.01397  0.54277  Biso   1.000  C
  H9       1.0000 0.42403  0.02397  0.57027  Biso   1.000  H
  C36      1.0000 0.38273  0.09127  0.75437  Biso   1.000  C
  O26      1.0000 0.41873  0.07307  0.71167  Biso   1.000  O
  O27      1.0000 0.48413  0.98317  0.67267  Biso   1.000  O
  O28      1.0000 0.63030  0.59670  0.33770  Biso   1.000  O
  C37      1.0000 0.83280  0.67500  0.57880  Biso   1.000  C
  C38      1.0000 0.89240  0.68780  0.62140  Biso   1.000  C
  C39      1.0000 0.77310  0.65270  0.62390  Biso   1.000  C
  H10      1.0000 0.73340  0.64270  0.59640  Biso   1.000  H
  C40      1.0000 0.62480  0.57540  0.41230  Biso   1.000  C
  O29      1.0000 0.67900  0.59360  0.45500  Biso   1.000  O
  O30      1.0000 0.83430  0.68350  0.49400  Biso   1.000  O
  O31      1.0000 0.29697  0.93003  0.67103  Biso   1.000  O
  C41      1.0000 0.49947  0.00833  0.91213  Biso   1.000  C
  C42      1.0000 0.55907  0.02113  0.95473  Biso   1.000  C
  C43      1.0000 0.43977  0.98603  0.95723  Biso   1.000  C
  H11      1.0000 0.40007  0.97603  0.92973  Biso   1.000  H
  C44      1.0000 0.29147  0.90873  0.74563  Biso   1.000  C
  O32      1.0000 0.34567  0.92693  0.78833  Biso   1.000  O
  O33      1.0000 0.50097  0.01683  0.82733  Biso   1.000  O
  O34      1.0000 0.96363  0.26337  0.00437  Biso   1.000  O
  C45      1.0000 0.16613  0.34167  0.24547  Biso   1.000  C
  C46      1.0000 0.22573  0.35447  0.28807  Biso   1.000  C
  C47      1.0000 0.10643  0.31937  0.29057  Biso   1.000  C
  H12      1.0000 0.06673  0.30937  0.26307  Biso   1.000  H
  C48      1.0000 0.95813  0.24207  0.07897  Biso   1.000  C
  O35      1.0000 0.01233  0.26027  0.12167  Biso   1.000  O
  O36      1.0000 0.16763  0.35017  0.16067  Biso   1.000  O
  O37      1.0000 0.96640  0.36970  0.33770  Biso   1.000  O
  C49      1.0000 0.84220  0.16720  0.57880  Biso   1.000  C
  C50      1.0000 0.79540  0.10760  0.62140  Biso   1.000  C
  C51      1.0000 0.87960  0.22690  0.62390  Biso   1.000  C
  H13      1.0000 0.90930  0.26660  0.59640  Biso   1.000  H
  C52      1.0000 0.95060  0.37520  0.41230  Biso   1.000  C
  O38      1.0000 0.91460  0.32100  0.45500  Biso   1.000  O
  O39      1.0000 0.84920  0.16570  0.49400  Biso   1.000  O
  O40      1.0000 0.63307  0.70303  0.67103  Biso   1.000  O
  C53      1.0000 0.50887  0.50053  0.91213  Biso   1.000  C
  C54      1.0000 0.46207  0.44093  0.95473  Biso   1.000  C
  C55      1.0000 0.54627  0.56023  0.95723  Biso   1.000  C
  H14      1.0000 0.57597  0.59993  0.92973  Biso   1.000  H
  C56      1.0000 0.61727  0.70853  0.74563  Biso   1.000  C
  O41      1.0000 0.58127  0.65433  0.78833  Biso   1.000  O
  O42      1.0000 0.51587  0.49903  0.82733  Biso   1.000  O
  O43      1.0000 0.29973  0.03637  0.00437  Biso   1.000  O
  C57      1.0000 0.17553  0.83387  0.24547  Biso   1.000  C
  C58      1.0000 0.12873  0.77427  0.28807  Biso   1.000  C
  C59      1.0000 0.21293  0.89357  0.29057  Biso   1.000  C
  H15      1.0000 0.24263  0.93327  0.26307  Biso   1.000  H
  C60      1.0000 0.28393  0.04187  0.07897  Biso   1.000  C
  O44      1.0000 0.24793  0.98767  0.12167  Biso   1.000  O
  O45      1.0000 0.18253  0.83237  0.16067  Biso   1.000  O
  O46      1.0000 0.40330  0.03360  0.33770  Biso   1.000  O
  C61      1.0000 0.32500  0.15780  0.57880  Biso   1.000  C
  C62      1.0000 0.31220  0.20460  0.62140  Biso   1.000  C
  C63      1.0000 0.34730  0.12040  0.62390  Biso   1.000  C
  H16      1.0000 0.35730  0.09070  0.59640  Biso   1.000  H
  C64      1.0000 0.42460  0.04940  0.41230  Biso   1.000  C
  O47      1.0000 0.40640  0.08540  0.45500  Biso   1.000  O
  O48      1.0000 0.31650  0.15080  0.49400  Biso   1.000  O
  O49      1.0000 0.06997  0.36693  0.67103  Biso   1.000  O
  C65      1.0000 0.99167  0.49113  0.91213  Biso   1.000  C
  C66      1.0000 0.97887  0.53793  0.95473  Biso   1.000  C
  C67      1.0000 0.01397  0.45373  0.95723  Biso   1.000  C
  H17      1.0000 0.02397  0.42403  0.92973  Biso   1.000  H
  C68      1.0000 0.09127  0.38273  0.74563  Biso   1.000  C
  O50      1.0000 0.07307  0.41873  0.78833  Biso   1.000  O
  O51      1.0000 0.98317  0.48413  0.82733  Biso   1.000  O
  O52      1.0000 0.73663  0.70027  0.00437  Biso   1.000  O
  C69      1.0000 0.65833  0.82447  0.24547  Biso   1.000  C
  C70      1.0000 0.64553  0.87127  0.28807  Biso   1.000  C
  C71      1.0000 0.68063  0.78707  0.29057  Biso   1.000  C
  H18      1.0000 0.69063  0.75737  0.26307  Biso   1.000  H
  C72      1.0000 0.75793  0.71607  0.07897  Biso   1.000  C
  O53      1.0000 0.73973  0.75207  0.12167  Biso   1.000  O
  O54      1.0000 0.64983  0.81747  0.16067  Biso   1.000  O
  O55      1.0000 0.40330  0.36970  0.83770  Biso   1.000  O
  C73      1.0000 0.32500  0.16720  0.07880  Biso   1.000  C
  C74      1.0000 0.31220  0.10760  0.12140  Biso   1.000  C
  C75      1.0000 0.34730  0.22690  0.12390  Biso   1.000  C
  H19      1.0000 0.35730  0.26660  0.09640  Biso   1.000  H
  C76      1.0000 0.42460  0.37520  0.91230  Biso   1.000  C
  O56      1.0000 0.40640  0.32100  0.95500  Biso   1.000  O
  O57      1.0000 0.31650  0.16570  0.99400  Biso   1.000  O
  O58      1.0000 0.06997  0.70303  0.17103  Biso   1.000  O
  C77      1.0000 0.99167  0.50053  0.41213  Biso   1.000  C
  C78      1.0000 0.97887  0.44093  0.45473  Biso   1.000  C
  C79      1.0000 0.01397  0.56023  0.45723  Biso   1.000  C
  H20      1.0000 0.02397  0.59993  0.42973  Biso   1.000  H
  C80      1.0000 0.09127  0.70853  0.24563  Biso   1.000  C
  O59      1.0000 0.07307  0.65433  0.28833  Biso   1.000  O
  O60      1.0000 0.98317  0.49903  0.32733  Biso   1.000  O
  O61      1.0000 0.73663  0.03637  0.50437  Biso   1.000  O
  C81      1.0000 0.65833  0.83387  0.74547  Biso   1.000  C
  C82      1.0000 0.64553  0.77427  0.78807  Biso   1.000  C
  C83      1.0000 0.68063  0.89357  0.79057  Biso   1.000  C
  H21      1.0000 0.69063  0.93327  0.76307  Biso   1.000  H
  C84      1.0000 0.75793  0.04187  0.57897  Biso   1.000  C
  O62      1.0000 0.73973  0.98767  0.62167  Biso   1.000  O
  O63      1.0000 0.64983  0.83237  0.66067  Biso   1.000  O
  O64      1.0000 0.63030  0.03360  0.83770  Biso   1.000  O
  C85      1.0000 0.83280  0.15780  0.07880  Biso   1.000  C
  C86      1.0000 0.89240  0.20460  0.12140  Biso   1.000  C
  C87      1.0000 0.77310  0.12040  0.12390  Biso   1.000  C
  H22      1.0000 0.73340  0.09070  0.09640  Biso   1.000  H
  C88      1.0000 0.62480  0.04940  0.91230  Biso   1.000  C
  O65      1.0000 0.67900  0.08540  0.95500  Biso   1.000  O
  O66      1.0000 0.83430  0.15080  0.99400  Biso   1.000  O
  O67      1.0000 0.29697  0.36693  0.17103  Biso   1.000  O
  C89      1.0000 0.49947  0.49113  0.41213  Biso   1.000  C
  C90      1.0000 0.55907  0.53793  0.45473  Biso   1.000  C
  C91      1.0000 0.43977  0.45373  0.45723  Biso   1.000  C
  H23      1.0000 0.40007  0.42403  0.42973  Biso   1.000  H
  C92      1.0000 0.29147  0.38273  0.24563  Biso   1.000  C
  O68      1.0000 0.34567  0.41873  0.28833  Biso   1.000  O
  O69      1.0000 0.50097  0.48413  0.32733  Biso   1.000  O
  O70      1.0000 0.96363  0.70027  0.50437  Biso   1.000  O
  C93      1.0000 0.16613  0.82447  0.74547  Biso   1.000  C
  C94      1.0000 0.22573  0.87127  0.78807  Biso   1.000  C
  C95      1.0000 0.10643  0.78707  0.79057  Biso   1.000  C
  H24      1.0000 0.06673  0.75737  0.76307  Biso   1.000  H
  C96      1.0000 0.95813  0.71607  0.57897  Biso   1.000  C
  O71      1.0000 0.01233  0.75207  0.62167  Biso   1.000  O
  O72      1.0000 0.16763  0.81747  0.66067  Biso   1.000  O
  O73      1.0000 0.96640  0.59670  0.83770  Biso   1.000  O
  C97      1.0000 0.84220  0.67500  0.07880  Biso   1.000  C
  C98      1.0000 0.79540  0.68780  0.12140  Biso   1.000  C
  C99      1.0000 0.87960  0.65270  0.12390  Biso   1.000  C
  H25      1.0000 0.90930  0.64270  0.09640  Biso   1.000  H
  C100     1.0000 0.95060  0.57540  0.91230  Biso   1.000  C
  O74      1.0000 0.91460  0.59360  0.95500  Biso   1.000  O
  O75      1.0000 0.84920  0.68350  0.99400  Biso   1.000  O
  O76      1.0000 0.63307  0.93003  0.17103  Biso   1.000  O
  C101     1.0000 0.50887  0.00833  0.41213  Biso   1.000  C
  C102     1.0000 0.46207  0.02113  0.45473  Biso   1.000  C
  C103     1.0000 0.54627  0.98603  0.45723  Biso   1.000  C
  H26      1.0000 0.57597  0.97603  0.42973  Biso   1.000  H
  C104     1.0000 0.61727  0.90873  0.24563  Biso   1.000  C
  O77      1.0000 0.58127  0.92693  0.28833  Biso   1.000  O
  O78      1.0000 0.51587  0.01683  0.32733  Biso   1.000  O
  O79      1.0000 0.29973  0.26337  0.50437  Biso   1.000  O
  C105     1.0000 0.17553  0.34167  0.74547  Biso   1.000  C
  C106     1.0000 0.12873  0.35447  0.78807  Biso   1.000  C
  C107     1.0000 0.21293  0.31937  0.79057  Biso   1.000  C
  H27      1.0000 0.24263  0.30937  0.76307  Biso   1.000  H
  C108     1.0000 0.28393  0.24207  0.57897  Biso   1.000  C
  O80      1.0000 0.24793  0.26027  0.62167  Biso   1.000  O
  O81      1.0000 0.18253  0.35017  0.66067  Biso   1.000  O
  O82      1.0000 0.36970  0.40330  0.66230  Biso   1.000  O
  C109     1.0000 0.16720  0.32500  0.42120  Biso   1.000  C
  C110     1.0000 0.10760  0.31220  0.37860  Biso   1.000  C
  C111     1.0000 0.22690  0.34730  0.37610  Biso   1.000  C
  H28      1.0000 0.26660  0.35730  0.40360  Biso   1.000  H
  C112     1.0000 0.37520  0.42460  0.58770  Biso   1.000  C
  O83      1.0000 0.32100  0.40640  0.54500  Biso   1.000  O
  O84      1.0000 0.16570  0.31650  0.50600  Biso   1.000  O
  O85      1.0000 0.03637  0.73663  0.99563  Biso   1.000  O
  C113     1.0000 0.83387  0.65833  0.75453  Biso   1.000  C
  C114     1.0000 0.77427  0.64553  0.71193  Biso   1.000  C
  C115     1.0000 0.89357  0.68063  0.70943  Biso   1.000  C
  H29      1.0000 0.93327  0.69063  0.73693  Biso   1.000  H
  C116     1.0000 0.04187  0.75793  0.92103  Biso   1.000  C
  O86      1.0000 0.98767  0.73973  0.87833  Biso   1.000  O
  O87      1.0000 0.83237  0.64983  0.83933  Biso   1.000  O
  O88      1.0000 0.70303  0.06997  0.32897  Biso   1.000  O
  C117     1.0000 0.50053  0.99167  0.08787  Biso   1.000  C
  C118     1.0000 0.44093  0.97887  0.04527  Biso   1.000  C
  C119     1.0000 0.56023  0.01397  0.04277  Biso   1.000  C
  H30      1.0000 0.59993  0.02397  0.07027  Biso   1.000  H
  C120     1.0000 0.70853  0.09127  0.25437  Biso   1.000  C
  O89      1.0000 0.65433  0.07307  0.21167  Biso   1.000  O
  O90      1.0000 0.49903  0.98317  0.17267  Biso   1.000  O
  O91      1.0000 0.03360  0.63030  0.66230  Biso   1.000  O
  C121     1.0000 0.15780  0.83280  0.42120  Biso   1.000  C
  C122     1.0000 0.20460  0.89240  0.37860  Biso   1.000  C
  C123     1.0000 0.12040  0.77310  0.37610  Biso   1.000  C
  H31      1.0000 0.09070  0.73340  0.40360  Biso   1.000  H
  C124     1.0000 0.04940  0.62480  0.58770  Biso   1.000  C
  O92      1.0000 0.08540  0.67900  0.54500  Biso   1.000  O
  O93      1.0000 0.15080  0.83430  0.50600  Biso   1.000  O
  O94      1.0000 0.70027  0.96363  0.99563  Biso   1.000  O
  C125     1.0000 0.82447  0.16613  0.75453  Biso   1.000  C
  C126     1.0000 0.87127  0.22573  0.71193  Biso   1.000  C
  C127     1.0000 0.78707  0.10643  0.70943  Biso   1.000  C
  H32      1.0000 0.75737  0.06673  0.73693  Biso   1.000  H
  C128     1.0000 0.71607  0.95813  0.92103  Biso   1.000  C
  O95      1.0000 0.75207  0.01233  0.87833  Biso   1.000  O
  O96      1.0000 0.81747  0.16763  0.83933  Biso   1.000  O
  O97      1.0000 0.36693  0.29697  0.32897  Biso   1.000  O
  C129     1.0000 0.49113  0.49947  0.08787  Biso   1.000  C
  C130     1.0000 0.53793  0.55907  0.04527  Biso   1.000  C
  C131     1.0000 0.45373  0.43977  0.04277  Biso   1.000  C
  H33      1.0000 0.42403  0.40007  0.07027  Biso   1.000  H
  C132     1.0000 0.38273  0.29147  0.25437  Biso   1.000  C
  O98      1.0000 0.41873  0.34567  0.21167  Biso   1.000  O
  O99      1.0000 0.48413  0.50097  0.17267  Biso   1.000  O
  O100     1.0000 0.59670  0.96640  0.66230  Biso   1.000  O
  C133     1.0000 0.67500  0.84220  0.42120  Biso   1.000  C
  C134     1.0000 0.68780  0.79540  0.37860  Biso   1.000  C
  C135     1.0000 0.65270  0.87960  0.37610  Biso   1.000  C
  H34      1.0000 0.64270  0.90930  0.40360  Biso   1.000  H
  C136     1.0000 0.57540  0.95060  0.58770  Biso   1.000  C
  O101     1.0000 0.59360  0.91460  0.54500  Biso   1.000  O
  O102     1.0000 0.68350  0.84920  0.50600  Biso   1.000  O
  O103     1.0000 0.26337  0.29973  0.99563  Biso   1.000  O
  C137     1.0000 0.34167  0.17553  0.75453  Biso   1.000  C
  C138     1.0000 0.35447  0.12873  0.71193  Biso   1.000  C
  C139     1.0000 0.31937  0.21293  0.70943  Biso   1.000  C
  H35      1.0000 0.30937  0.24263  0.73693  Biso   1.000  H
  C140     1.0000 0.24207  0.28393  0.92103  Biso   1.000  C
  O104     1.0000 0.26027  0.24793  0.87833  Biso   1.000  O
  O105     1.0000 0.35017  0.18253  0.83933  Biso   1.000  O
  O106     1.0000 0.93003  0.63307  0.32897  Biso   1.000  O
  C141     1.0000 0.00833  0.50887  0.08787  Biso   1.000  C
  C142     1.0000 0.02113  0.46207  0.04527  Biso   1.000  C
  C143     1.0000 0.98603  0.54627  0.04277  Biso   1.000  C
  H36      1.0000 0.97603  0.57597  0.07027  Biso   1.000  H
  C144     1.0000 0.90873  0.61727  0.25437  Biso   1.000  C
  O107     1.0000 0.92693  0.58127  0.21167  Biso   1.000  O
  O108     1.0000 0.01683  0.51587  0.17267  Biso   1.000  O
  Zn1      1.0000 0.66667  0.76132  0.08333  Biso   1.000  Zn
  Zn2      1.0000 0.66667  0.89292  0.08333  Biso   1.000  Zn
  Zn3      1.0000 0.23868  0.90534  0.08333  Biso   1.000  Zn
  Zn4      1.0000 0.10708  0.77374  0.08333  Biso   1.000  Zn
  Zn5      1.0000 0.09466  0.33333  0.08333  Biso   1.000  Zn
  Zn6      1.0000 0.22626  0.33333  0.08333  Biso   1.000  Zn
  Zn7      1.0000 0.76132  0.66667  0.41667  Biso   1.000  Zn
  Zn8      1.0000 0.89292  0.66667  0.41667  Biso   1.000  Zn
  Zn9      1.0000 0.42799  0.00000  0.75000  Biso   1.000  Zn
  Zn10     1.0000 0.55959  0.00000  0.75000  Biso   1.000  Zn
  Zn11     1.0000 0.90534  0.23868  0.41667  Biso   1.000  Zn
  Zn12     1.0000 0.77374  0.10708  0.41667  Biso   1.000  Zn
  Zn13     1.0000 0.57201  0.57201  0.75000  Biso   1.000  Zn
  Zn14     1.0000 0.44041  0.44041  0.75000  Biso   1.000  Zn
  Zn15     1.0000 0.33333  0.09466  0.41667  Biso   1.000  Zn
  Zn16     1.0000 0.33333  0.22626  0.41667  Biso   1.000  Zn
  Zn17     1.0000 0.00000  0.42799  0.75000  Biso   1.000  Zn
  Zn18     1.0000 0.00000  0.55959  0.75000  Biso   1.000  Zn
  Zn19     1.0000 0.33333  0.23868  0.91667  Biso   1.000  Zn
  Zn20     1.0000 0.33333  0.10708  0.91667  Biso   1.000  Zn
  Zn21     1.0000 0.00000  0.57201  0.25000  Biso   1.000  Zn
  Zn22     1.0000 0.00000  0.44041  0.25000  Biso   1.000  Zn
  Zn23     1.0000 0.76132  0.09466  0.91667  Biso   1.000  Zn
  Zn24     1.0000 0.89292  0.22626  0.91667  Biso   1.000  Zn
  Zn25     1.0000 0.42799  0.42799  0.25000  Biso   1.000  Zn
  Zn26     1.0000 0.55959  0.55959  0.25000  Biso   1.000  Zn
  Zn27     1.0000 0.90534  0.66667  0.91667  Biso   1.000  Zn
  Zn28     1.0000 0.77374  0.66667  0.91667  Biso   1.000  Zn
  Zn29     1.0000 0.57201  0.00000  0.25000  Biso   1.000  Zn
  Zn30     1.0000 0.44041  0.00000  0.25000  Biso   1.000  Zn
  Zn31     1.0000 0.23868  0.33333  0.58333  Biso   1.000  Zn
  Zn32     1.0000 0.10708  0.33333  0.58333  Biso   1.000  Zn
  Zn33     1.0000 0.09466  0.76132  0.58333  Biso   1.000  Zn
  Zn34     1.0000 0.22626  0.89292  0.58333  Biso   1.000  Zn
  Zn35     1.0000 0.66667  0.90534  0.58333  Biso   1.000  Zn
  Zn36     1.0000 0.66667  0.77374  0.58333  Biso   1.000  Zn
