data_image0
_cell_length_a       20.9323
_cell_length_b       20.9322
_cell_length_c       17.122
_cell_angle_alpha    90
_cell_angle_beta     90
_cell_angle_gamma    60

_symmetry_space_group_name_H-M    "P 1"
_symmetry_int_tables_number       1

loop_
  _symmetry_equiv_pos_as_xyz
  'x, y, z'

loop_
  _atom_site_label
  _atom_site_occupancy
  _atom_site_fract_x
  _atom_site_fract_y
  _atom_site_fract_z
  _atom_site_thermal_displace_type
  _atom_site_B_iso_or_equiv
  _atom_site_type_symbol
  O1       1.0000 0.03989  0.02267  0.91226  Biso   1.000  O
  O2       1.0000 0.11237  0.95175  0.01429  Biso   1.000  O
  O3       1.0000 0.16135  0.03484  0.93599  Biso   1.000  O
  O4       1.0000 0.18032  0.92328  0.86211  Biso   1.000  O
  O5       1.0000 0.95554  0.10820  0.99745  Biso   1.000  O
  O6       1.0000 0.93164  0.17324  0.85136  Biso   1.000  O
  O7       1.0000 0.04636  0.15023  0.92867  Biso   1.000  O
  O8       1.0000 0.02304  0.04030  0.10153  Biso   1.000  O
  O9       1.0000 0.03940  0.15681  0.07653  Biso   1.000  O
  O10      1.0000 0.92396  0.18128  0.13455  Biso   1.000  O
  O11      1.0000 0.17819  0.91781  0.14531  Biso   1.000  O
  O12      1.0000 0.15656  0.03475  0.08478  Biso   1.000  O
  Zr1      1.0000 0.06865  0.06444  0.00648  Biso   1.000  Zr
  O13      1.0000 0.98020  0.96298  0.91226  Biso   1.000  O
  O14      1.0000 0.05112  0.89050  0.01429  Biso   1.000  O
  O15      1.0000 0.07951  0.82245  0.86213  Biso   1.000  O
  O16      1.0000 0.96803  0.84152  0.93599  Biso   1.000  O
  Zr2      1.0000 0.07546  0.92856  0.91369  Biso   1.000  Zr
  O17      1.0000 0.89468  0.04733  0.99745  Biso   1.000  O
  O18      1.0000 0.85264  0.95651  0.92868  Biso   1.000  O
  O19      1.0000 0.83049  0.07209  0.85136  Biso   1.000  O
  Zr3      1.0000 0.92723  0.07564  0.89584  Biso   1.000  Zr
  O20      1.0000 0.96258  0.97983  0.10153  Biso   1.000  O
  O21      1.0000 0.82711  0.08443  0.13441  Biso   1.000  O
  O22      1.0000 0.84606  0.96347  0.07653  Biso   1.000  O
  O23      1.0000 0.96813  0.84631  0.08478  Biso   1.000  O
  O24      1.0000 0.08517  0.82480  0.14531  Biso   1.000  O
  Zr4      1.0000 0.93728  0.06387  0.09809  Biso   1.000  Zr
  Zr5      1.0000 0.93843  0.93422  0.00648  Biso   1.000  Zr
  Zr6      1.0000 0.07463  0.92824  0.11499  Biso   1.000  Zr
  H1       1.0000 0.94015  0.76168  0.42435  Biso   1.000  H
  C1       1.0000 0.05522  0.50784  0.73984  Biso   1.000  C
  C2       1.0000 0.05740  0.44105  0.73925  Biso   1.000  C
  C3       1.0000 0.02440  0.43817  0.67022  Biso   1.000  C
  N1       1.0000 0.00164  0.50102  0.62931  Biso   1.000  N
  C4       1.0000 0.02041  0.54358  0.67155  Biso   1.000  C
  C5       1.0000 0.01023  0.37795  0.64780  Biso   1.000  C
  C6       1.0000 0.99813  0.36419  0.56553  Biso   1.000  C
  C7       1.0000 0.97752  0.31370  0.54242  Biso   1.000  C
  C8       1.0000 0.97619  0.31482  0.46246  Biso   1.000  C
  C9       1.0000 0.99622  0.36580  0.43974  Biso   1.000  C
  N2       1.0000 0.01050  0.39559  0.50271  Biso   1.000  N
  C10      1.0000 0.00637  0.38123  0.35752  Biso   1.000  C
  C11      1.0000 0.02598  0.43804  0.33668  Biso   1.000  C
  C12      1.0000 0.06224  0.43835  0.26914  Biso   1.000  C
  C13      1.0000 0.06552  0.50239  0.27037  Biso   1.000  C
  C14      1.0000 0.03049  0.53921  0.33815  Biso   1.000  C
  N3       1.0000 0.00645  0.49985  0.37838  Biso   1.000  N
  C15      1.0000 0.01717  0.61323  0.36068  Biso   1.000  C
  C16      1.0000 0.99777  0.64074  0.44168  Biso   1.000  C
  C17      1.0000 0.96109  0.71438  0.46277  Biso   1.000  C
  C18      1.0000 0.95690  0.71591  0.54280  Biso   1.000  C
  C19      1.0000 0.99128  0.64314  0.56690  Biso   1.000  C
  N4       1.0000 0.01656  0.59685  0.50522  Biso   1.000  N
  C20      1.0000 0.00372  0.61875  0.64933  Biso   1.000  C
  H2       1.0000 0.07604  0.52821  0.78559  Biso   1.000  H
  H3       1.0000 0.07977  0.39998  0.78497  Biso   1.000  H
  H4       1.0000 0.96608  0.27857  0.57914  Biso   1.000  H
  H5       1.0000 0.96356  0.28077  0.42535  Biso   1.000  H
  H6       1.0000 0.08327  0.39743  0.22322  Biso   1.000  H
  H7       1.0000 0.08966  0.52055  0.22591  Biso   1.000  H
  H8       1.0000 0.93228  0.76462  0.57935  Biso   1.000  H
  C21      1.0000 0.00673  0.33044  0.70943  Biso   1.000  C
  C22      1.0000 0.00014  0.33580  0.29517  Biso   1.000  C
  C23      1.0000 0.02237  0.66135  0.30078  Biso   1.000  C
  C24      1.0000 0.00787  0.66757  0.70917  Biso   1.000  C
  C25      1.0000 0.07131  0.27619  0.74571  Biso   1.000  C
  C26      1.0000 0.06800  0.22805  0.80003  Biso   1.000  C
  C27      1.0000 0.00028  0.23244  0.81706  Biso   1.000  C
  C28      1.0000 0.93568  0.28729  0.78121  Biso   1.000  C
  C29      1.0000 0.93881  0.33647  0.72845  Biso   1.000  C
  C30      1.0000 0.06361  0.27976  0.25915  Biso   1.000  C
  C31      1.0000 0.05792  0.23390  0.20370  Biso   1.000  C
  C32      1.0000 0.98874  0.24233  0.18470  Biso   1.000  C
  C33      1.0000 0.92524  0.29849  0.22104  Biso   1.000  C
  C34      1.0000 0.93090  0.34523  0.27546  Biso   1.000  C
  C35      1.0000 0.07094  0.68857  0.31099  Biso   1.000  C
  C36      1.0000 0.07432  0.73578  0.25545  Biso   1.000  C
  C37      1.0000 0.02833  0.75734  0.18940  Biso   1.000  C
  C38      1.0000 0.98013  0.72945  0.17916  Biso   1.000  C
  C39      1.0000 0.97755  0.68149  0.23415  Biso   1.000  C
  C40      1.0000 0.05689  0.69412  0.69907  Biso   1.000  C
  C41      1.0000 0.06161  0.73993  0.75510  Biso   1.000  C
  C42      1.0000 0.01695  0.76062  0.82226  Biso   1.000  C
  C43      1.0000 0.96761  0.73408  0.83222  Biso   1.000  C
  C44      1.0000 0.96347  0.68749  0.77626  Biso   1.000  C
  H9       1.0000 0.12430  0.27028  0.73080  Biso   1.000  H
  H10      1.0000 0.11860  0.18566  0.82639  Biso   1.000  H
  H11      1.0000 0.88282  0.29185  0.79366  Biso   1.000  H
  H12      1.0000 0.88856  0.37796  0.70067  Biso   1.000  H
  H13      1.0000 0.11760  0.27079  0.27494  Biso   1.000  H
  H14      1.0000 0.10793  0.19039  0.17746  Biso   1.000  H
  H15      1.0000 0.87129  0.30617  0.20755  Biso   1.000  H
  H16      1.0000 0.88148  0.38785  0.30349  Biso   1.000  H
  H17      1.0000 0.10595  0.67348  0.36217  Biso   1.000  H
  H18      1.0000 0.11150  0.75688  0.26527  Biso   1.000  H
  H19      1.0000 0.94394  0.74508  0.12893  Biso   1.000  H
  H20      1.0000 0.93953  0.66121  0.22556  Biso   1.000  H
  H21      1.0000 0.09184  0.67903  0.64782  Biso   1.000  H
  H22      1.0000 0.09980  0.75976  0.74518  Biso   1.000  H
  H23      1.0000 0.93238  0.74912  0.88319  Biso   1.000  H
  H24      1.0000 0.92521  0.66750  0.78485  Biso   1.000  H
  H25      1.0000 0.97453  0.51639  0.42905  Biso   1.000  H
  H26      1.0000 0.97121  0.51595  0.57761  Biso   1.000  H
  H27      1.0000 0.24118  0.06276  0.42435  Biso   1.000  H
  C45      1.0000 0.49502  0.94766  0.73984  Biso   1.000  C
  C46      1.0000 0.56181  0.94548  0.73924  Biso   1.000  C
  C47      1.0000 0.56470  0.97848  0.67022  Biso   1.000  C
  N5       1.0000 0.50184  0.00125  0.62931  Biso   1.000  N
  C48      1.0000 0.45928  0.98247  0.67155  Biso   1.000  C
  C49      1.0000 0.62491  0.99264  0.64780  Biso   1.000  C
  C50      1.0000 0.63867  0.00475  0.56553  Biso   1.000  C
  C51      1.0000 0.68917  0.02535  0.54242  Biso   1.000  C
  C52      1.0000 0.68804  0.02669  0.46247  Biso   1.000  C
  C53      1.0000 0.63707  0.00666  0.43974  Biso   1.000  C
  N6       1.0000 0.60728  0.99238  0.50271  Biso   1.000  N
  C54      1.0000 0.62164  0.99651  0.35752  Biso   1.000  C
  C55      1.0000 0.56483  0.97691  0.33668  Biso   1.000  C
  C56      1.0000 0.56451  0.94064  0.26914  Biso   1.000  C
  C57      1.0000 0.50047  0.93737  0.27037  Biso   1.000  C
  C58      1.0000 0.46365  0.97239  0.33815  Biso   1.000  C
  N7       1.0000 0.50302  0.99644  0.37838  Biso   1.000  N
  C59      1.0000 0.38963  0.98572  0.36068  Biso   1.000  C
  C60      1.0000 0.36212  0.00512  0.44168  Biso   1.000  C
  C61      1.0000 0.28849  0.04180  0.46277  Biso   1.000  C
  C62      1.0000 0.28696  0.04600  0.54280  Biso   1.000  C
  C63      1.0000 0.35973  0.01161  0.56690  Biso   1.000  C
  N8       1.0000 0.40602  0.98633  0.50522  Biso   1.000  N
  C64      1.0000 0.38411  0.99917  0.64933  Biso   1.000  C
  H28      1.0000 0.47465  0.92685  0.78558  Biso   1.000  H
  H29      1.0000 0.60288  0.92311  0.78496  Biso   1.000  H
  H30      1.0000 0.72430  0.03679  0.57914  Biso   1.000  H
  H31      1.0000 0.72210  0.03932  0.42535  Biso   1.000  H
  H32      1.0000 0.60544  0.91961  0.22323  Biso   1.000  H
  H33      1.0000 0.48232  0.91323  0.22591  Biso   1.000  H
  H34      1.0000 0.23824  0.07062  0.57934  Biso   1.000  H
  C65      1.0000 0.67243  0.99615  0.70943  Biso   1.000  C
  C66      1.0000 0.66707  0.00274  0.29517  Biso   1.000  C
  C67      1.0000 0.34151  0.98051  0.30078  Biso   1.000  C
  C68      1.0000 0.33529  0.99502  0.70916  Biso   1.000  C
  C69      1.0000 0.66640  0.06406  0.72846  Biso   1.000  C
  C70      1.0000 0.71558  0.06719  0.78121  Biso   1.000  C
  C71      1.0000 0.77043  0.00259  0.81706  Biso   1.000  C
  C72      1.0000 0.77482  0.93487  0.80003  Biso   1.000  C
  C73      1.0000 0.72667  0.93156  0.74571  Biso   1.000  C
  C74      1.0000 0.72311  0.93927  0.25915  Biso   1.000  C
  C75      1.0000 0.76897  0.94495  0.20370  Biso   1.000  C
  C76      1.0000 0.76054  0.01413  0.18470  Biso   1.000  C
  C77      1.0000 0.70438  0.07764  0.22104  Biso   1.000  C
  C78      1.0000 0.65764  0.07198  0.27546  Biso   1.000  C
  C79      1.0000 0.31429  0.93194  0.31099  Biso   1.000  C
  C80      1.0000 0.26708  0.92856  0.25545  Biso   1.000  C
  C81      1.0000 0.24553  0.97455  0.18940  Biso   1.000  C
  C82      1.0000 0.27342  0.02275  0.17916  Biso   1.000  C
  C83      1.0000 0.32138  0.02533  0.23414  Biso   1.000  C
  C84      1.0000 0.30874  0.94600  0.69906  Biso   1.000  C
  C85      1.0000 0.26293  0.94128  0.75509  Biso   1.000  C
  C86      1.0000 0.24225  0.98593  0.82225  Biso   1.000  C
  C87      1.0000 0.26879  0.03527  0.83222  Biso   1.000  C
  C88      1.0000 0.31538  0.03941  0.77626  Biso   1.000  C
  H35      1.0000 0.62491  0.11431  0.70067  Biso   1.000  H
  H36      1.0000 0.71102  0.12005  0.79366  Biso   1.000  H
  H37      1.0000 0.81720  0.88427  0.82639  Biso   1.000  H
  H38      1.0000 0.73259  0.87858  0.73080  Biso   1.000  H
  H39      1.0000 0.73208  0.88528  0.27494  Biso   1.000  H
  H40      1.0000 0.81248  0.89495  0.17747  Biso   1.000  H
  H41      1.0000 0.69670  0.13158  0.20755  Biso   1.000  H
  H42      1.0000 0.61502  0.12140  0.30349  Biso   1.000  H
  H43      1.0000 0.32938  0.89694  0.36218  Biso   1.000  H
  H44      1.0000 0.24599  0.89138  0.26528  Biso   1.000  H
  H45      1.0000 0.25779  0.05893  0.12893  Biso   1.000  H
  H46      1.0000 0.34166  0.06335  0.22555  Biso   1.000  H
  H47      1.0000 0.32382  0.91106  0.64781  Biso   1.000  H
  H48      1.0000 0.24309  0.90309  0.74516  Biso   1.000  H
  H49      1.0000 0.25375  0.07049  0.88320  Biso   1.000  H
  H50      1.0000 0.33537  0.07767  0.78485  Biso   1.000  H
  H51      1.0000 0.48648  0.02836  0.42905  Biso   1.000  H
  H52      1.0000 0.48691  0.03167  0.57761  Biso   1.000  H
  C89      1.0000 0.98387  0.19068  0.12957  Biso   1.000  C
  C90      1.0000 0.99737  0.17762  0.86849  Biso   1.000  C
  C91      1.0000 0.02116  0.81111  0.87985  Biso   1.000  C
  C92      1.0000 0.02726  0.81196  0.13390  Biso   1.000  C
  C93      1.0000 0.81219  0.01900  0.12957  Biso   1.000  C
  C94      1.0000 0.19091  0.97562  0.13390  Biso   1.000  C
  C95      1.0000 0.82525  0.00550  0.86849  Biso   1.000  C
  C96      1.0000 0.19175  0.98172  0.87984  Biso   1.000  C
