data_image0
_cell_length_a       31.848
_cell_length_b       31.848
_cell_length_c       16.883
_cell_angle_alpha    90
_cell_angle_beta     90
_cell_angle_gamma    120

_symmetry_space_group_name_H-M    "P 1"
_symmetry_int_tables_number       1

loop_
  _symmetry_equiv_pos_as_xyz
  'x, y, z'

loop_
  _atom_site_label
  _atom_site_occupancy
  _atom_site_fract_x
  _atom_site_fract_y
  _atom_site_fract_z
  _atom_site_thermal_displace_type
  _atom_site_B_iso_or_equiv
  _atom_site_type_symbol
  O1       1.0000 0.25000  0.58990  0.41300  Biso   1.000  O
  C1       1.0000 0.17940  0.55320  0.29550  Biso   1.000  C
  H1       1.0000 0.19180  0.53410  0.31390  Biso   1.000  H
  C2       1.0000 0.14300  0.53450  0.24030  Biso   1.000  C
  H2       1.0000 0.12960  0.50230  0.22450  Biso   1.000  H
  O2       1.0000 0.41010  0.66010  0.41300  Biso   1.000  O
  C3       1.0000 0.44680  0.62620  0.29550  Biso   1.000  C
  H3       1.0000 0.46590  0.65770  0.31390  Biso   1.000  H
  C4       1.0000 0.46550  0.60850  0.24030  Biso   1.000  C
  H4       1.0000 0.49770  0.62730  0.22450  Biso   1.000  H
  O3       1.0000 0.33990  0.75000  0.41300  Biso   1.000  O
  C5       1.0000 0.37380  0.82060  0.29550  Biso   1.000  C
  H5       1.0000 0.34230  0.80820  0.31390  Biso   1.000  H
  C6       1.0000 0.39150  0.85700  0.24030  Biso   1.000  C
  H6       1.0000 0.37270  0.87040  0.22450  Biso   1.000  H
  O4       1.0000 0.75000  0.41010  0.41300  Biso   1.000  O
  C7       1.0000 0.82060  0.44680  0.29550  Biso   1.000  C
  H7       1.0000 0.80820  0.46590  0.31390  Biso   1.000  H
  C8       1.0000 0.85700  0.46550  0.24030  Biso   1.000  C
  H8       1.0000 0.87040  0.49770  0.22450  Biso   1.000  H
  O5       1.0000 0.58990  0.33990  0.41300  Biso   1.000  O
  C9       1.0000 0.55320  0.37380  0.29550  Biso   1.000  C
  H9       1.0000 0.53410  0.34230  0.31390  Biso   1.000  H
  C10      1.0000 0.53450  0.39150  0.24030  Biso   1.000  C
  H10      1.0000 0.50230  0.37270  0.22450  Biso   1.000  H
  O6       1.0000 0.66010  0.25000  0.41300  Biso   1.000  O
  C11      1.0000 0.62620  0.17940  0.29550  Biso   1.000  C
  H11      1.0000 0.65770  0.19180  0.31390  Biso   1.000  H
  C12      1.0000 0.60850  0.14300  0.24030  Biso   1.000  C
  H12      1.0000 0.62730  0.12960  0.22450  Biso   1.000  H
  O7       1.0000 0.58990  0.25000  0.58700  Biso   1.000  O
  C13      1.0000 0.55320  0.17940  0.70450  Biso   1.000  C
  H13      1.0000 0.53410  0.19180  0.68610  Biso   1.000  H
  C14      1.0000 0.53450  0.14300  0.75970  Biso   1.000  C
  H14      1.0000 0.50230  0.12960  0.77550  Biso   1.000  H
  O8       1.0000 0.66010  0.41010  0.58700  Biso   1.000  O
  C15      1.0000 0.62620  0.44680  0.70450  Biso   1.000  C
  H15      1.0000 0.65770  0.46590  0.68610  Biso   1.000  H
  C16      1.0000 0.60850  0.46550  0.75970  Biso   1.000  C
  H16      1.0000 0.62730  0.49770  0.77550  Biso   1.000  H
  O9       1.0000 0.75000  0.33990  0.58700  Biso   1.000  O
  C17      1.0000 0.82060  0.37380  0.70450  Biso   1.000  C
  H17      1.0000 0.80820  0.34230  0.68610  Biso   1.000  H
  C18      1.0000 0.85700  0.39150  0.75970  Biso   1.000  C
  H18      1.0000 0.87040  0.37270  0.77550  Biso   1.000  H
  O10      1.0000 0.41010  0.75000  0.58700  Biso   1.000  O
  C19      1.0000 0.44680  0.82060  0.70450  Biso   1.000  C
  H19      1.0000 0.46590  0.80820  0.68610  Biso   1.000  H
  C20      1.0000 0.46550  0.85700  0.75970  Biso   1.000  C
  H20      1.0000 0.49770  0.87040  0.77550  Biso   1.000  H
  O11      1.0000 0.33990  0.58990  0.58700  Biso   1.000  O
  C21      1.0000 0.37380  0.55320  0.70450  Biso   1.000  C
  H21      1.0000 0.34230  0.53410  0.68610  Biso   1.000  H
  C22      1.0000 0.39150  0.53450  0.75970  Biso   1.000  C
  H22      1.0000 0.37270  0.50230  0.77550  Biso   1.000  H
  O12      1.0000 0.25000  0.66010  0.58700  Biso   1.000  O
  C23      1.0000 0.17940  0.62620  0.70450  Biso   1.000  C
  H23      1.0000 0.19180  0.65770  0.68610  Biso   1.000  H
  C24      1.0000 0.14300  0.60850  0.75970  Biso   1.000  C
  H24      1.0000 0.12960  0.62730  0.77550  Biso   1.000  H
  O13      1.0000 0.75000  0.41010  0.58700  Biso   1.000  O
  C25      1.0000 0.82060  0.44680  0.70450  Biso   1.000  C
  H25      1.0000 0.80820  0.46590  0.68610  Biso   1.000  H
  C26      1.0000 0.85700  0.46550  0.75970  Biso   1.000  C
  H26      1.0000 0.87040  0.49770  0.77550  Biso   1.000  H
  O14      1.0000 0.58990  0.33990  0.58700  Biso   1.000  O
  C27      1.0000 0.55320  0.37380  0.70450  Biso   1.000  C
  H27      1.0000 0.53410  0.34230  0.68610  Biso   1.000  H
  C28      1.0000 0.53450  0.39150  0.75970  Biso   1.000  C
  H28      1.0000 0.50230  0.37270  0.77550  Biso   1.000  H
  O15      1.0000 0.66010  0.25000  0.58700  Biso   1.000  O
  C29      1.0000 0.62620  0.17940  0.70450  Biso   1.000  C
  H29      1.0000 0.65770  0.19180  0.68610  Biso   1.000  H
  C30      1.0000 0.60850  0.14300  0.75970  Biso   1.000  C
  H30      1.0000 0.62730  0.12960  0.77550  Biso   1.000  H
  O16      1.0000 0.25000  0.58990  0.58700  Biso   1.000  O
  C31      1.0000 0.17940  0.55320  0.70450  Biso   1.000  C
  H31      1.0000 0.19180  0.53410  0.68610  Biso   1.000  H
  C32      1.0000 0.14300  0.53450  0.75970  Biso   1.000  C
  H32      1.0000 0.12960  0.50230  0.77550  Biso   1.000  H
  O17      1.0000 0.41010  0.66010  0.58700  Biso   1.000  O
  C33      1.0000 0.44680  0.62620  0.70450  Biso   1.000  C
  H33      1.0000 0.46590  0.65770  0.68610  Biso   1.000  H
  C34      1.0000 0.46550  0.60850  0.75970  Biso   1.000  C
  H34      1.0000 0.49770  0.62730  0.77550  Biso   1.000  H
  O18      1.0000 0.33990  0.75000  0.58700  Biso   1.000  O
  C35      1.0000 0.37380  0.82060  0.70450  Biso   1.000  C
  H35      1.0000 0.34230  0.80820  0.68610  Biso   1.000  H
  C36      1.0000 0.39150  0.85700  0.75970  Biso   1.000  C
  H36      1.0000 0.37270  0.87040  0.77550  Biso   1.000  H
  O19      1.0000 0.41010  0.75000  0.41300  Biso   1.000  O
  C37      1.0000 0.44680  0.82060  0.29550  Biso   1.000  C
  H37      1.0000 0.46590  0.80820  0.31390  Biso   1.000  H
  C38      1.0000 0.46550  0.85700  0.24030  Biso   1.000  C
  H38      1.0000 0.49770  0.87040  0.22450  Biso   1.000  H
  O20      1.0000 0.33990  0.58990  0.41300  Biso   1.000  O
  C39      1.0000 0.37380  0.55320  0.29550  Biso   1.000  C
  H39      1.0000 0.34230  0.53410  0.31390  Biso   1.000  H
  C40      1.0000 0.39150  0.53450  0.24030  Biso   1.000  C
  H40      1.0000 0.37270  0.50230  0.22450  Biso   1.000  H
  O21      1.0000 0.25000  0.66010  0.41300  Biso   1.000  O
  C41      1.0000 0.17940  0.62620  0.29550  Biso   1.000  C
  H41      1.0000 0.19180  0.65770  0.31390  Biso   1.000  H
  C42      1.0000 0.14300  0.60850  0.24030  Biso   1.000  C
  H42      1.0000 0.12960  0.62730  0.22450  Biso   1.000  H
  O22      1.0000 0.58990  0.25000  0.41300  Biso   1.000  O
  C43      1.0000 0.55320  0.17940  0.29550  Biso   1.000  C
  H43      1.0000 0.53410  0.19180  0.31390  Biso   1.000  H
  C44      1.0000 0.53450  0.14300  0.24030  Biso   1.000  C
  H44      1.0000 0.50230  0.12960  0.22450  Biso   1.000  H
  O23      1.0000 0.66010  0.41010  0.41300  Biso   1.000  O
  C45      1.0000 0.62620  0.44680  0.29550  Biso   1.000  C
  H45      1.0000 0.65770  0.46590  0.31390  Biso   1.000  H
  C46      1.0000 0.60850  0.46550  0.24030  Biso   1.000  C
  H46      1.0000 0.62730  0.49770  0.22450  Biso   1.000  H
  O24      1.0000 0.75000  0.33990  0.41300  Biso   1.000  O
  C47      1.0000 0.82060  0.37380  0.29550  Biso   1.000  C
  H47      1.0000 0.80820  0.34230  0.31390  Biso   1.000  H
  C48      1.0000 0.85700  0.39150  0.24030  Biso   1.000  C
  H48      1.0000 0.87040  0.37270  0.22450  Biso   1.000  H
  Mg1      1.0000 0.29740  0.59480  0.50000  Biso   1.000  Mg
  Mg2      1.0000 0.40520  0.70260  0.50000  Biso   1.000  Mg
  Mg3      1.0000 0.29740  0.70260  0.50000  Biso   1.000  Mg
  Mg4      1.0000 0.70260  0.40520  0.50000  Biso   1.000  Mg
  Mg5      1.0000 0.59480  0.29740  0.50000  Biso   1.000  Mg
  Mg6      1.0000 0.70260  0.29740  0.50000  Biso   1.000  Mg
  C49      1.0000 0.04050  0.52025  0.17040  Biso   1.000  C
  C50      1.0000 0.08780  0.54390  0.14410  Biso   1.000  C
  C51      1.0000 0.23630  0.61815  0.38940  Biso   1.000  C
  C52      1.0000 0.10250  0.55125  0.06500  Biso   1.000  C
  C53      1.0000 0.19770  0.59885  0.32400  Biso   1.000  C
  C54      1.0000 0.12620  0.56310  0.20790  Biso   1.000  C
  C55      1.0000 0.15350  0.57675  0.03960  Biso   1.000  C
  H49      1.0000 0.18060  0.59030  0.07240  Biso   1.000  H
  C56      1.0000 0.02490  0.51245  0.24800  Biso   1.000  C
  H50      1.0000 0.04460  0.52230  0.29260  Biso   1.000  H
  C57      1.0000 0.47975  0.52025  0.17040  Biso   1.000  C
  C58      1.0000 0.45610  0.54390  0.14410  Biso   1.000  C
  C59      1.0000 0.38185  0.61815  0.38940  Biso   1.000  C
  C60      1.0000 0.44875  0.55125  0.06500  Biso   1.000  C
  C61      1.0000 0.40115  0.59885  0.32400  Biso   1.000  C
  C62      1.0000 0.43690  0.56310  0.20790  Biso   1.000  C
  C63      1.0000 0.42325  0.57675  0.03960  Biso   1.000  C
  H51      1.0000 0.40970  0.59030  0.07240  Biso   1.000  H
  C64      1.0000 0.48755  0.51245  0.24800  Biso   1.000  C
  H52      1.0000 0.47770  0.52230  0.29260  Biso   1.000  H
  C65      1.0000 0.47975  0.95950  0.17040  Biso   1.000  C
  C66      1.0000 0.45610  0.91220  0.14410  Biso   1.000  C
  C67      1.0000 0.38185  0.76370  0.38940  Biso   1.000  C
  C68      1.0000 0.44875  0.89750  0.06500  Biso   1.000  C
  C69      1.0000 0.40115  0.80230  0.32400  Biso   1.000  C
  C70      1.0000 0.43690  0.87380  0.20790  Biso   1.000  C
  C71      1.0000 0.42325  0.84650  0.03960  Biso   1.000  C
  H53      1.0000 0.40970  0.81940  0.07240  Biso   1.000  H
  C72      1.0000 0.48755  0.97510  0.24800  Biso   1.000  C
  H54      1.0000 0.47770  0.95540  0.29260  Biso   1.000  H
  C73      1.0000 0.95950  0.47975  0.17040  Biso   1.000  C
  C74      1.0000 0.91220  0.45610  0.14410  Biso   1.000  C
  C75      1.0000 0.76370  0.38185  0.38940  Biso   1.000  C
  C76      1.0000 0.89750  0.44875  0.06500  Biso   1.000  C
  C77      1.0000 0.80230  0.40115  0.32400  Biso   1.000  C
  C78      1.0000 0.87380  0.43690  0.20790  Biso   1.000  C
  C79      1.0000 0.84650  0.42325  0.03960  Biso   1.000  C
  H55      1.0000 0.81940  0.40970  0.07240  Biso   1.000  H
  C80      1.0000 0.97510  0.48755  0.24800  Biso   1.000  C
  H56      1.0000 0.95540  0.47770  0.29260  Biso   1.000  H
  C81      1.0000 0.52025  0.47975  0.17040  Biso   1.000  C
  C82      1.0000 0.54390  0.45610  0.14410  Biso   1.000  C
  C83      1.0000 0.61815  0.38185  0.38940  Biso   1.000  C
  C84      1.0000 0.55125  0.44875  0.06500  Biso   1.000  C
  C85      1.0000 0.59885  0.40115  0.32400  Biso   1.000  C
  C86      1.0000 0.56310  0.43690  0.20790  Biso   1.000  C
  C87      1.0000 0.57675  0.42325  0.03960  Biso   1.000  C
  H57      1.0000 0.59030  0.40970  0.07240  Biso   1.000  H
  C88      1.0000 0.51245  0.48755  0.24800  Biso   1.000  C
  H58      1.0000 0.52230  0.47770  0.29260  Biso   1.000  H
  C89      1.0000 0.52025  0.04050  0.17040  Biso   1.000  C
  C90      1.0000 0.54390  0.08780  0.14410  Biso   1.000  C
  C91      1.0000 0.61815  0.23630  0.38940  Biso   1.000  C
  C92      1.0000 0.55125  0.10250  0.06500  Biso   1.000  C
  C93      1.0000 0.59885  0.19770  0.32400  Biso   1.000  C
  C94      1.0000 0.56310  0.12620  0.20790  Biso   1.000  C
  C95      1.0000 0.57675  0.15350  0.03960  Biso   1.000  C
  H59      1.0000 0.59030  0.18060  0.07240  Biso   1.000  H
  C96      1.0000 0.51245  0.02490  0.24800  Biso   1.000  C
  H60      1.0000 0.52230  0.04460  0.29260  Biso   1.000  H
  C97      1.0000 0.52025  0.04050  0.82960  Biso   1.000  C
  C98      1.0000 0.54390  0.08780  0.85590  Biso   1.000  C
  C99      1.0000 0.61815  0.23630  0.61060  Biso   1.000  C
  C100     1.0000 0.55125  0.10250  0.93500  Biso   1.000  C
  C101     1.0000 0.59885  0.19770  0.67600  Biso   1.000  C
  C102     1.0000 0.56310  0.12620  0.79210  Biso   1.000  C
  C103     1.0000 0.57675  0.15350  0.96040  Biso   1.000  C
  H61      1.0000 0.59030  0.18060  0.92760  Biso   1.000  H
  C104     1.0000 0.51245  0.02490  0.75200  Biso   1.000  C
  H62      1.0000 0.52230  0.04460  0.70740  Biso   1.000  H
  C105     1.0000 0.52025  0.47975  0.82960  Biso   1.000  C
  C106     1.0000 0.54390  0.45610  0.85590  Biso   1.000  C
  C107     1.0000 0.61815  0.38185  0.61060  Biso   1.000  C
  C108     1.0000 0.55125  0.44875  0.93500  Biso   1.000  C
  C109     1.0000 0.59885  0.40115  0.67600  Biso   1.000  C
  C110     1.0000 0.56310  0.43690  0.79210  Biso   1.000  C
  C111     1.0000 0.57675  0.42325  0.96040  Biso   1.000  C
  H63      1.0000 0.59030  0.40970  0.92760  Biso   1.000  H
  C112     1.0000 0.51245  0.48755  0.75200  Biso   1.000  C
  H64      1.0000 0.52230  0.47770  0.70740  Biso   1.000  H
  C113     1.0000 0.95950  0.47975  0.82960  Biso   1.000  C
  C114     1.0000 0.91220  0.45610  0.85590  Biso   1.000  C
  C115     1.0000 0.76370  0.38185  0.61060  Biso   1.000  C
  C116     1.0000 0.89750  0.44875  0.93500  Biso   1.000  C
  C117     1.0000 0.80230  0.40115  0.67600  Biso   1.000  C
  C118     1.0000 0.87380  0.43690  0.79210  Biso   1.000  C
  C119     1.0000 0.84650  0.42325  0.96040  Biso   1.000  C
  H65      1.0000 0.81940  0.40970  0.92760  Biso   1.000  H
  C120     1.0000 0.97510  0.48755  0.75200  Biso   1.000  C
  H66      1.0000 0.95540  0.47770  0.70740  Biso   1.000  H
  C121     1.0000 0.47975  0.95950  0.82960  Biso   1.000  C
  C122     1.0000 0.45610  0.91220  0.85590  Biso   1.000  C
  C123     1.0000 0.38185  0.76370  0.61060  Biso   1.000  C
  C124     1.0000 0.44875  0.89750  0.93500  Biso   1.000  C
  C125     1.0000 0.40115  0.80230  0.67600  Biso   1.000  C
  C126     1.0000 0.43690  0.87380  0.79210  Biso   1.000  C
  C127     1.0000 0.42325  0.84650  0.96040  Biso   1.000  C
  H67      1.0000 0.40970  0.81940  0.92760  Biso   1.000  H
  C128     1.0000 0.48755  0.97510  0.75200  Biso   1.000  C
  H68      1.0000 0.47770  0.95540  0.70740  Biso   1.000  H
  C129     1.0000 0.47975  0.52025  0.82960  Biso   1.000  C
  C130     1.0000 0.45610  0.54390  0.85590  Biso   1.000  C
  C131     1.0000 0.38185  0.61815  0.61060  Biso   1.000  C
  C132     1.0000 0.44875  0.55125  0.93500  Biso   1.000  C
  C133     1.0000 0.40115  0.59885  0.67600  Biso   1.000  C
  C134     1.0000 0.43690  0.56310  0.79210  Biso   1.000  C
  C135     1.0000 0.42325  0.57675  0.96040  Biso   1.000  C
  H69      1.0000 0.40970  0.59030  0.92760  Biso   1.000  H
  C136     1.0000 0.48755  0.51245  0.75200  Biso   1.000  C
  H70      1.0000 0.47770  0.52230  0.70740  Biso   1.000  H
  C137     1.0000 0.04050  0.52025  0.82960  Biso   1.000  C
  C138     1.0000 0.08780  0.54390  0.85590  Biso   1.000  C
  C139     1.0000 0.23630  0.61815  0.61060  Biso   1.000  C
  C140     1.0000 0.10250  0.55125  0.93500  Biso   1.000  C
  C141     1.0000 0.19770  0.59885  0.67600  Biso   1.000  C
  C142     1.0000 0.12620  0.56310  0.79210  Biso   1.000  C
  C143     1.0000 0.15350  0.57675  0.96040  Biso   1.000  C
  H71      1.0000 0.18060  0.59030  0.92760  Biso   1.000  H
  C144     1.0000 0.02490  0.51245  0.75200  Biso   1.000  C
  H72      1.0000 0.04460  0.52230  0.70740  Biso   1.000  H
  N1       1.0000 0.00000  0.50000  0.12150  Biso   1.000  N
  H73      1.0000 0.00000  0.50000  0.07050  Biso   1.000  H
  N2       1.0000 0.50000  0.50000  0.12150  Biso   1.000  N
  H74      1.0000 0.50000  0.50000  0.07050  Biso   1.000  H
  N3       1.0000 0.50000  0.00000  0.12150  Biso   1.000  N
  H75      1.0000 0.50000  0.00000  0.07050  Biso   1.000  H
  N4       1.0000 0.50000  0.00000  0.87850  Biso   1.000  N
  H76      1.0000 0.50000  0.00000  0.92950  Biso   1.000  H
  N5       1.0000 0.50000  0.50000  0.87850  Biso   1.000  N
  H77      1.0000 0.50000  0.50000  0.92950  Biso   1.000  H
  N6       1.0000 0.00000  0.50000  0.87850  Biso   1.000  N
  H78      1.0000 0.00000  0.50000  0.92950  Biso   1.000  H
  N7       1.0000 0.07410  0.53705  0.00000  Biso   1.000  N
  N8       1.0000 0.46295  0.53705  0.00000  Biso   1.000  N
  N9       1.0000 0.46295  0.92590  0.00000  Biso   1.000  N
  N10      1.0000 0.92590  0.46295  0.00000  Biso   1.000  N
  N11      1.0000 0.53705  0.46295  0.00000  Biso   1.000  N
  N12      1.0000 0.53705  0.07410  0.00000  Biso   1.000  N
  O25      1.0000 0.33333  0.66667  0.50000  Biso   1.000  O
  O26      1.0000 0.66667  0.33333  0.50000  Biso   1.000  O
