data_image0
_cell_length_a       22.917
_cell_length_b       22.917
_cell_length_c       15.9024
_cell_angle_alpha    90
_cell_angle_beta     90
_cell_angle_gamma    120

_symmetry_space_group_name_H-M    "P 1"
_symmetry_int_tables_number       1

loop_
  _symmetry_equiv_pos_as_xyz
  'x, y, z'

loop_
  _atom_site_label
  _atom_site_occupancy
  _atom_site_fract_x
  _atom_site_fract_y
  _atom_site_fract_z
  _atom_site_thermal_displace_type
  _atom_site_B_iso_or_equiv
  _atom_site_type_symbol
  C1       1.0000 0.43950  0.46350  0.04540  Biso   1.000  C
  C2       1.0000 0.37470  0.42310  0.08850  Biso   1.000  C
  C3       1.0000 0.16630  0.32550  0.92040  Biso   1.000  C
  C4       1.0000 0.22480  0.34850  0.87490  Biso   1.000  C
  H1       1.0000 0.26300  0.36000  0.90000  Biso   1.000  H
  O1       1.0000 0.16580  0.31710  0.00550  Biso   1.000  O
  O2       1.0000 0.32280  0.40860  0.04620  Biso   1.000  O
  O3       1.0000 0.06930  0.36540  0.16970  Biso   1.000  O
  Zn1      1.0000 0.12318  0.36583  0.07464  Biso   1.000  Zn
  C5       1.0000 0.10617  0.79683  0.37873  Biso   1.000  C
  C6       1.0000 0.04137  0.75643  0.42183  Biso   1.000  C
  C7       1.0000 0.83297  0.65883  0.25373  Biso   1.000  C
  C8       1.0000 0.89147  0.68183  0.20823  Biso   1.000  C
  H2       1.0000 0.92967  0.69333  0.23333  Biso   1.000  H
  O4       1.0000 0.83247  0.65043  0.33883  Biso   1.000  O
  O5       1.0000 0.98947  0.74193  0.37953  Biso   1.000  O
  O6       1.0000 0.73597  0.69873  0.50303  Biso   1.000  O
  Zn2      1.0000 0.78985  0.69916  0.40797  Biso   1.000  Zn
  C9       1.0000 0.77283  0.13017  0.71207  Biso   1.000  C
  C10      1.0000 0.70803  0.08977  0.75517  Biso   1.000  C
  C11      1.0000 0.49963  0.99217  0.58707  Biso   1.000  C
  C12      1.0000 0.55813  0.01517  0.54157  Biso   1.000  C
  H3       1.0000 0.59633  0.02667  0.56667  Biso   1.000  H
  O7       1.0000 0.49913  0.98377  0.67217  Biso   1.000  O
  O8       1.0000 0.65613  0.07527  0.71287  Biso   1.000  O
  O9       1.0000 0.40263  0.03207  0.83637  Biso   1.000  O
  Zn3      1.0000 0.45651  0.03250  0.74131  Biso   1.000  Zn
  C13      1.0000 0.53650  0.97600  0.04540  Biso   1.000  C
  C14      1.0000 0.57690  0.95160  0.08850  Biso   1.000  C
  C15      1.0000 0.67450  0.84080  0.92040  Biso   1.000  C
  C16      1.0000 0.65150  0.87630  0.87490  Biso   1.000  C
  H4       1.0000 0.64000  0.90300  0.90000  Biso   1.000  H
  O10      1.0000 0.68290  0.84870  0.00550  Biso   1.000  O
  O11      1.0000 0.59140  0.91420  0.04620  Biso   1.000  O
  O12      1.0000 0.63460  0.70390  0.16970  Biso   1.000  O
  Zn4      1.0000 0.63417  0.75735  0.07464  Biso   1.000  Zn
  C17      1.0000 0.20317  0.30933  0.37873  Biso   1.000  C
  C18      1.0000 0.24357  0.28493  0.42183  Biso   1.000  C
  C19      1.0000 0.34117  0.17413  0.25373  Biso   1.000  C
  C20      1.0000 0.31817  0.20963  0.20823  Biso   1.000  C
  H5       1.0000 0.30667  0.23633  0.23333  Biso   1.000  H
  O13      1.0000 0.34957  0.18203  0.33883  Biso   1.000  O
  O14      1.0000 0.25807  0.24753  0.37953  Biso   1.000  O
  O15      1.0000 0.30127  0.03723  0.50303  Biso   1.000  O
  Zn5      1.0000 0.30084  0.09068  0.40797  Biso   1.000  Zn
  C21      1.0000 0.86983  0.64267  0.71207  Biso   1.000  C
  C22      1.0000 0.91023  0.61827  0.75517  Biso   1.000  C
  C23      1.0000 0.00783  0.50747  0.58707  Biso   1.000  C
  C24      1.0000 0.98483  0.54297  0.54157  Biso   1.000  C
  H6       1.0000 0.97333  0.56967  0.56667  Biso   1.000  H
  O16      1.0000 0.01623  0.51537  0.67217  Biso   1.000  O
  O17      1.0000 0.92473  0.58087  0.71287  Biso   1.000  O
  O18      1.0000 0.96793  0.37057  0.83637  Biso   1.000  O
  Zn6      1.0000 0.96750  0.42402  0.74131  Biso   1.000  Zn
  C25      1.0000 0.02400  0.56050  0.04540  Biso   1.000  C
  C26      1.0000 0.04840  0.62530  0.08850  Biso   1.000  C
  C27      1.0000 0.15920  0.83370  0.92040  Biso   1.000  C
  C28      1.0000 0.12370  0.77520  0.87490  Biso   1.000  C
  H7       1.0000 0.09700  0.73700  0.90000  Biso   1.000  H
  O19      1.0000 0.15130  0.83420  0.00550  Biso   1.000  O
  O20      1.0000 0.08580  0.67720  0.04620  Biso   1.000  O
  O21      1.0000 0.29610  0.93070  0.16970  Biso   1.000  O
  Zn7      1.0000 0.24265  0.87682  0.07464  Biso   1.000  Zn
  C29      1.0000 0.69067  0.89383  0.37873  Biso   1.000  C
  C30      1.0000 0.71507  0.95863  0.42183  Biso   1.000  C
  C31      1.0000 0.82587  0.16703  0.25373  Biso   1.000  C
  C32      1.0000 0.79037  0.10853  0.20823  Biso   1.000  C
  H8       1.0000 0.76367  0.07033  0.23333  Biso   1.000  H
  O22      1.0000 0.81797  0.16753  0.33883  Biso   1.000  O
  O23      1.0000 0.75247  0.01053  0.37953  Biso   1.000  O
  O24      1.0000 0.96277  0.26403  0.50303  Biso   1.000  O
  Zn8      1.0000 0.90932  0.21015  0.40797  Biso   1.000  Zn
  C33      1.0000 0.35733  0.22717  0.71207  Biso   1.000  C
  C34      1.0000 0.38173  0.29197  0.75517  Biso   1.000  C
  C35      1.0000 0.49253  0.50037  0.58707  Biso   1.000  C
  C36      1.0000 0.45703  0.44187  0.54157  Biso   1.000  C
  H9       1.0000 0.43033  0.40367  0.56667  Biso   1.000  H
  O25      1.0000 0.48463  0.50087  0.67217  Biso   1.000  O
  O26      1.0000 0.41913  0.34387  0.71287  Biso   1.000  O
  O27      1.0000 0.62943  0.59737  0.83637  Biso   1.000  O
  Zn9      1.0000 0.57598  0.54349  0.74131  Biso   1.000  Zn
  C37      1.0000 0.46350  0.43950  0.45460  Biso   1.000  C
  C38      1.0000 0.42310  0.37470  0.41150  Biso   1.000  C
  C39      1.0000 0.32550  0.16630  0.57960  Biso   1.000  C
  C40      1.0000 0.34850  0.22480  0.62510  Biso   1.000  C
  H10      1.0000 0.36000  0.26300  0.60000  Biso   1.000  H
  O28      1.0000 0.31710  0.16580  0.49450  Biso   1.000  O
  O29      1.0000 0.40860  0.32280  0.45380  Biso   1.000  O
  O30      1.0000 0.36540  0.06930  0.33030  Biso   1.000  O
  Zn10     1.0000 0.36583  0.12318  0.42536  Biso   1.000  Zn
  C41      1.0000 0.13017  0.77283  0.78793  Biso   1.000  C
  C42      1.0000 0.08977  0.70803  0.74483  Biso   1.000  C
  C43      1.0000 0.99217  0.49963  0.91293  Biso   1.000  C
  C44      1.0000 0.01517  0.55813  0.95843  Biso   1.000  C
  H11      1.0000 0.02667  0.59633  0.93333  Biso   1.000  H
  O31      1.0000 0.98377  0.49913  0.82783  Biso   1.000  O
  O32      1.0000 0.07527  0.65613  0.78713  Biso   1.000  O
  O33      1.0000 0.03207  0.40263  0.66363  Biso   1.000  O
  Zn11     1.0000 0.03250  0.45651  0.75869  Biso   1.000  Zn
  C45      1.0000 0.79683  0.10617  0.12127  Biso   1.000  C
  C46      1.0000 0.75643  0.04137  0.07817  Biso   1.000  C
  C47      1.0000 0.65883  0.83297  0.24627  Biso   1.000  C
  C48      1.0000 0.68183  0.89147  0.29177  Biso   1.000  C
  H12      1.0000 0.69333  0.92967  0.26667  Biso   1.000  H
  O34      1.0000 0.65043  0.83247  0.16117  Biso   1.000  O
  O35      1.0000 0.74193  0.98947  0.12047  Biso   1.000  O
  O36      1.0000 0.69873  0.73597  0.99697  Biso   1.000  O
  Zn12     1.0000 0.69916  0.78985  0.09203  Biso   1.000  Zn
  C49      1.0000 0.97600  0.53650  0.45460  Biso   1.000  C
  C50      1.0000 0.95160  0.57690  0.41150  Biso   1.000  C
  C51      1.0000 0.84080  0.67450  0.57960  Biso   1.000  C
  C52      1.0000 0.87630  0.65150  0.62510  Biso   1.000  C
  H13      1.0000 0.90300  0.64000  0.60000  Biso   1.000  H
  O37      1.0000 0.84870  0.68290  0.49450  Biso   1.000  O
  O38      1.0000 0.91420  0.59140  0.45380  Biso   1.000  O
  O39      1.0000 0.70390  0.63460  0.33030  Biso   1.000  O
  Zn13     1.0000 0.75735  0.63417  0.42536  Biso   1.000  Zn
  C53      1.0000 0.64267  0.86983  0.78793  Biso   1.000  C
  C54      1.0000 0.61827  0.91023  0.74483  Biso   1.000  C
  C55      1.0000 0.50747  0.00783  0.91293  Biso   1.000  C
  C56      1.0000 0.54297  0.98483  0.95843  Biso   1.000  C
  H14      1.0000 0.56967  0.97333  0.93333  Biso   1.000  H
  O40      1.0000 0.51537  0.01623  0.82783  Biso   1.000  O
  O41      1.0000 0.58087  0.92473  0.78713  Biso   1.000  O
  O42      1.0000 0.37057  0.96793  0.66363  Biso   1.000  O
  Zn14     1.0000 0.42402  0.96750  0.75869  Biso   1.000  Zn
  C57      1.0000 0.30933  0.20317  0.12127  Biso   1.000  C
  C58      1.0000 0.28493  0.24357  0.07817  Biso   1.000  C
  C59      1.0000 0.17413  0.34117  0.24627  Biso   1.000  C
  C60      1.0000 0.20963  0.31817  0.29177  Biso   1.000  C
  H15      1.0000 0.23633  0.30667  0.26667  Biso   1.000  H
  O43      1.0000 0.18203  0.34957  0.16117  Biso   1.000  O
  O44      1.0000 0.24753  0.25807  0.12047  Biso   1.000  O
  O45      1.0000 0.03723  0.30127  0.99697  Biso   1.000  O
  Zn15     1.0000 0.09068  0.30084  0.09203  Biso   1.000  Zn
  C61      1.0000 0.56050  0.02400  0.45460  Biso   1.000  C
  C62      1.0000 0.62530  0.04840  0.41150  Biso   1.000  C
  C63      1.0000 0.83370  0.15920  0.57960  Biso   1.000  C
  C64      1.0000 0.77520  0.12370  0.62510  Biso   1.000  C
  H16      1.0000 0.73700  0.09700  0.60000  Biso   1.000  H
  O46      1.0000 0.83420  0.15130  0.49450  Biso   1.000  O
  O47      1.0000 0.67720  0.08580  0.45380  Biso   1.000  O
  O48      1.0000 0.93070  0.29610  0.33030  Biso   1.000  O
  Zn16     1.0000 0.87682  0.24265  0.42536  Biso   1.000  Zn
  C65      1.0000 0.22717  0.35733  0.78793  Biso   1.000  C
  C66      1.0000 0.29197  0.38173  0.74483  Biso   1.000  C
  C67      1.0000 0.50037  0.49253  0.91293  Biso   1.000  C
  C68      1.0000 0.44187  0.45703  0.95843  Biso   1.000  C
  H17      1.0000 0.40367  0.43033  0.93333  Biso   1.000  H
  O49      1.0000 0.50087  0.48463  0.82783  Biso   1.000  O
  O50      1.0000 0.34387  0.41913  0.78713  Biso   1.000  O
  O51      1.0000 0.59737  0.62943  0.66363  Biso   1.000  O
  Zn17     1.0000 0.54349  0.57598  0.75869  Biso   1.000  Zn
  C69      1.0000 0.89383  0.69067  0.12127  Biso   1.000  C
  C70      1.0000 0.95863  0.71507  0.07817  Biso   1.000  C
  C71      1.0000 0.16703  0.82587  0.24627  Biso   1.000  C
  C72      1.0000 0.10853  0.79037  0.29177  Biso   1.000  C
  H18      1.0000 0.07033  0.76367  0.26667  Biso   1.000  H
  O52      1.0000 0.16753  0.81797  0.16117  Biso   1.000  O
  O53      1.0000 0.01053  0.75247  0.12047  Biso   1.000  O
  O54      1.0000 0.26403  0.96277  0.99697  Biso   1.000  O
  Zn18     1.0000 0.21015  0.90932  0.09203  Biso   1.000  Zn
  C73      1.0000 0.56050  0.53650  0.95460  Biso   1.000  C
  C74      1.0000 0.62530  0.57690  0.91150  Biso   1.000  C
  C75      1.0000 0.83370  0.67450  0.07960  Biso   1.000  C
  C76      1.0000 0.77520  0.65150  0.12510  Biso   1.000  C
  H19      1.0000 0.73700  0.64000  0.10000  Biso   1.000  H
  O55      1.0000 0.83420  0.68290  0.99450  Biso   1.000  O
  O56      1.0000 0.67720  0.59140  0.95380  Biso   1.000  O
  O57      1.0000 0.93070  0.63460  0.83030  Biso   1.000  O
  Zn19     1.0000 0.87682  0.63417  0.92536  Biso   1.000  Zn
  C77      1.0000 0.22717  0.86983  0.28793  Biso   1.000  C
  C78      1.0000 0.29197  0.91023  0.24483  Biso   1.000  C
  C79      1.0000 0.50037  0.00783  0.41293  Biso   1.000  C
  C80      1.0000 0.44187  0.98483  0.45843  Biso   1.000  C
  H20      1.0000 0.40367  0.97333  0.43333  Biso   1.000  H
  O58      1.0000 0.50087  0.01623  0.32783  Biso   1.000  O
  O59      1.0000 0.34387  0.92473  0.28713  Biso   1.000  O
  O60      1.0000 0.59737  0.96793  0.16363  Biso   1.000  O
  Zn20     1.0000 0.54349  0.96750  0.25869  Biso   1.000  Zn
  C81      1.0000 0.89383  0.20317  0.62127  Biso   1.000  C
  C82      1.0000 0.95863  0.24357  0.57817  Biso   1.000  C
  C83      1.0000 0.16703  0.34117  0.74627  Biso   1.000  C
  C84      1.0000 0.10853  0.31817  0.79177  Biso   1.000  C
  H21      1.0000 0.07033  0.30667  0.76667  Biso   1.000  H
  O61      1.0000 0.16753  0.34957  0.66117  Biso   1.000  O
  O62      1.0000 0.01053  0.25807  0.62047  Biso   1.000  O
  O63      1.0000 0.26403  0.30127  0.49697  Biso   1.000  O
  Zn21     1.0000 0.21015  0.30084  0.59203  Biso   1.000  Zn
  C85      1.0000 0.46350  0.02400  0.95460  Biso   1.000  C
  C86      1.0000 0.42310  0.04840  0.91150  Biso   1.000  C
  C87      1.0000 0.32550  0.15920  0.07960  Biso   1.000  C
  C88      1.0000 0.34850  0.12370  0.12510  Biso   1.000  C
  H22      1.0000 0.36000  0.09700  0.10000  Biso   1.000  H
  O64      1.0000 0.31710  0.15130  0.99450  Biso   1.000  O
  O65      1.0000 0.40860  0.08580  0.95380  Biso   1.000  O
  O66      1.0000 0.36540  0.29610  0.83030  Biso   1.000  O
  Zn22     1.0000 0.36583  0.24265  0.92536  Biso   1.000  Zn
  C89      1.0000 0.13017  0.35733  0.28793  Biso   1.000  C
  C90      1.0000 0.08977  0.38173  0.24483  Biso   1.000  C
  C91      1.0000 0.99217  0.49253  0.41293  Biso   1.000  C
  C92      1.0000 0.01517  0.45703  0.45843  Biso   1.000  C
  H23      1.0000 0.02667  0.43033  0.43333  Biso   1.000  H
  O67      1.0000 0.98377  0.48463  0.32783  Biso   1.000  O
  O68      1.0000 0.07527  0.41913  0.28713  Biso   1.000  O
  O69      1.0000 0.03207  0.62943  0.16363  Biso   1.000  O
  Zn23     1.0000 0.03250  0.57598  0.25869  Biso   1.000  Zn
  C93      1.0000 0.79683  0.69067  0.62127  Biso   1.000  C
  C94      1.0000 0.75643  0.71507  0.57817  Biso   1.000  C
  C95      1.0000 0.65883  0.82587  0.74627  Biso   1.000  C
  C96      1.0000 0.68183  0.79037  0.79177  Biso   1.000  C
  H24      1.0000 0.69333  0.76367  0.76667  Biso   1.000  H
  O70      1.0000 0.65043  0.81797  0.66117  Biso   1.000  O
  O71      1.0000 0.74193  0.75247  0.62047  Biso   1.000  O
  O72      1.0000 0.69873  0.96277  0.49697  Biso   1.000  O
  Zn24     1.0000 0.69916  0.90932  0.59203  Biso   1.000  Zn
  C97      1.0000 0.97600  0.43950  0.95460  Biso   1.000  C
  C98      1.0000 0.95160  0.37470  0.91150  Biso   1.000  C
  C99      1.0000 0.84080  0.16630  0.07960  Biso   1.000  C
  C100     1.0000 0.87630  0.22480  0.12510  Biso   1.000  C
  H25      1.0000 0.90300  0.26300  0.10000  Biso   1.000  H
  O73      1.0000 0.84870  0.16580  0.99450  Biso   1.000  O
  O74      1.0000 0.91420  0.32280  0.95380  Biso   1.000  O
  O75      1.0000 0.70390  0.06930  0.83030  Biso   1.000  O
  Zn25     1.0000 0.75735  0.12318  0.92536  Biso   1.000  Zn
  C101     1.0000 0.64267  0.77283  0.28793  Biso   1.000  C
  C102     1.0000 0.61827  0.70803  0.24483  Biso   1.000  C
  C103     1.0000 0.50747  0.49963  0.41293  Biso   1.000  C
  C104     1.0000 0.54297  0.55813  0.45843  Biso   1.000  C
  H26      1.0000 0.56967  0.59633  0.43333  Biso   1.000  H
  O76      1.0000 0.51537  0.49913  0.32783  Biso   1.000  O
  O77      1.0000 0.58087  0.65613  0.28713  Biso   1.000  O
  O78      1.0000 0.37057  0.40263  0.16363  Biso   1.000  O
  Zn26     1.0000 0.42402  0.45651  0.25869  Biso   1.000  Zn
  C105     1.0000 0.30933  0.10617  0.62127  Biso   1.000  C
  C106     1.0000 0.28493  0.04137  0.57817  Biso   1.000  C
  C107     1.0000 0.17413  0.83297  0.74627  Biso   1.000  C
  C108     1.0000 0.20963  0.89147  0.79177  Biso   1.000  C
  H27      1.0000 0.23633  0.92967  0.76667  Biso   1.000  H
  O79      1.0000 0.18203  0.83247  0.66117  Biso   1.000  O
  O80      1.0000 0.24753  0.98947  0.62047  Biso   1.000  O
  O81      1.0000 0.03723  0.73597  0.49697  Biso   1.000  O
  Zn27     1.0000 0.09068  0.78985  0.59203  Biso   1.000  Zn
  C109     1.0000 0.53650  0.56050  0.54540  Biso   1.000  C
  C110     1.0000 0.57690  0.62530  0.58850  Biso   1.000  C
  C111     1.0000 0.67450  0.83370  0.42040  Biso   1.000  C
  C112     1.0000 0.65150  0.77520  0.37490  Biso   1.000  C
  H28      1.0000 0.64000  0.73700  0.40000  Biso   1.000  H
  O82      1.0000 0.68290  0.83420  0.50550  Biso   1.000  O
  O83      1.0000 0.59140  0.67720  0.54620  Biso   1.000  O
  O84      1.0000 0.63460  0.93070  0.66970  Biso   1.000  O
  Zn28     1.0000 0.63417  0.87682  0.57464  Biso   1.000  Zn
  C113     1.0000 0.20317  0.89383  0.87873  Biso   1.000  C
  C114     1.0000 0.24357  0.95863  0.92183  Biso   1.000  C
  C115     1.0000 0.34117  0.16703  0.75373  Biso   1.000  C
  C116     1.0000 0.31817  0.10853  0.70823  Biso   1.000  C
  H29      1.0000 0.30667  0.07033  0.73333  Biso   1.000  H
  O85      1.0000 0.34957  0.16753  0.83883  Biso   1.000  O
  O86      1.0000 0.25807  0.01053  0.87953  Biso   1.000  O
  O87      1.0000 0.30127  0.26403  0.00303  Biso   1.000  O
  Zn29     1.0000 0.30084  0.21015  0.90797  Biso   1.000  Zn
  C117     1.0000 0.86983  0.22717  0.21207  Biso   1.000  C
  C118     1.0000 0.91023  0.29197  0.25517  Biso   1.000  C
  C119     1.0000 0.00783  0.50037  0.08707  Biso   1.000  C
  C120     1.0000 0.98483  0.44187  0.04157  Biso   1.000  C
  H30      1.0000 0.97333  0.40367  0.06667  Biso   1.000  H
  O88      1.0000 0.01623  0.50087  0.17217  Biso   1.000  O
  O89      1.0000 0.92473  0.34387  0.21287  Biso   1.000  O
  O90      1.0000 0.96793  0.59737  0.33637  Biso   1.000  O
  Zn30     1.0000 0.96750  0.54349  0.24131  Biso   1.000  Zn
  C121     1.0000 0.02400  0.46350  0.54540  Biso   1.000  C
  C122     1.0000 0.04840  0.42310  0.58850  Biso   1.000  C
  C123     1.0000 0.15920  0.32550  0.42040  Biso   1.000  C
  C124     1.0000 0.12370  0.34850  0.37490  Biso   1.000  C
  H31      1.0000 0.09700  0.36000  0.40000  Biso   1.000  H
  O91      1.0000 0.15130  0.31710  0.50550  Biso   1.000  O
  O92      1.0000 0.08580  0.40860  0.54620  Biso   1.000  O
  O93      1.0000 0.29610  0.36540  0.66970  Biso   1.000  O
  Zn31     1.0000 0.24265  0.36583  0.57464  Biso   1.000  Zn
  C125     1.0000 0.69067  0.79683  0.87873  Biso   1.000  C
  C126     1.0000 0.71507  0.75643  0.92183  Biso   1.000  C
  C127     1.0000 0.82587  0.65883  0.75373  Biso   1.000  C
  C128     1.0000 0.79037  0.68183  0.70823  Biso   1.000  C
  H32      1.0000 0.76367  0.69333  0.73333  Biso   1.000  H
  O94      1.0000 0.81797  0.65043  0.83883  Biso   1.000  O
  O95      1.0000 0.75247  0.74193  0.87953  Biso   1.000  O
  O96      1.0000 0.96277  0.69873  0.00303  Biso   1.000  O
  Zn32     1.0000 0.90932  0.69916  0.90797  Biso   1.000  Zn
  C129     1.0000 0.35733  0.13017  0.21207  Biso   1.000  C
  C130     1.0000 0.38173  0.08977  0.25517  Biso   1.000  C
  C131     1.0000 0.49253  0.99217  0.08707  Biso   1.000  C
  C132     1.0000 0.45703  0.01517  0.04157  Biso   1.000  C
  H33      1.0000 0.43033  0.02667  0.06667  Biso   1.000  H
  O97      1.0000 0.48463  0.98377  0.17217  Biso   1.000  O
  O98      1.0000 0.41913  0.07527  0.21287  Biso   1.000  O
  O99      1.0000 0.62943  0.03207  0.33637  Biso   1.000  O
  Zn33     1.0000 0.57598  0.03250  0.24131  Biso   1.000  Zn
  C133     1.0000 0.43950  0.97600  0.54540  Biso   1.000  C
  C134     1.0000 0.37470  0.95160  0.58850  Biso   1.000  C
  C135     1.0000 0.16630  0.84080  0.42040  Biso   1.000  C
  C136     1.0000 0.22480  0.87630  0.37490  Biso   1.000  C
  H34      1.0000 0.26300  0.90300  0.40000  Biso   1.000  H
  O100     1.0000 0.16580  0.84870  0.50550  Biso   1.000  O
  O101     1.0000 0.32280  0.91420  0.54620  Biso   1.000  O
  O102     1.0000 0.06930  0.70390  0.66970  Biso   1.000  O
  Zn34     1.0000 0.12318  0.75735  0.57464  Biso   1.000  Zn
  C137     1.0000 0.10617  0.30933  0.87873  Biso   1.000  C
  C138     1.0000 0.04137  0.28493  0.92183  Biso   1.000  C
  C139     1.0000 0.83297  0.17413  0.75373  Biso   1.000  C
  C140     1.0000 0.89147  0.20963  0.70823  Biso   1.000  C
  H35      1.0000 0.92967  0.23633  0.73333  Biso   1.000  H
  O103     1.0000 0.83247  0.18203  0.83883  Biso   1.000  O
  O104     1.0000 0.98947  0.24753  0.87953  Biso   1.000  O
  O105     1.0000 0.73597  0.03723  0.00303  Biso   1.000  O
  Zn35     1.0000 0.78985  0.09068  0.90797  Biso   1.000  Zn
  C141     1.0000 0.77283  0.64267  0.21207  Biso   1.000  C
  C142     1.0000 0.70803  0.61827  0.25517  Biso   1.000  C
  C143     1.0000 0.49963  0.50747  0.08707  Biso   1.000  C
  C144     1.0000 0.55813  0.54297  0.04157  Biso   1.000  C
  H36      1.0000 0.59633  0.56967  0.06667  Biso   1.000  H
  O106     1.0000 0.49913  0.51537  0.17217  Biso   1.000  O
  O107     1.0000 0.65613  0.58087  0.21287  Biso   1.000  O
  O108     1.0000 0.40263  0.37057  0.33637  Biso   1.000  O
  Zn36     1.0000 0.45651  0.42402  0.24131  Biso   1.000  Zn
  Zn37     1.0000 0.23820  0.33333  0.08333  Biso   1.000  Zn
  Zn38     1.0000 0.66667  0.90486  0.08333  Biso   1.000  Zn
  Zn39     1.0000 0.33333  0.23820  0.41667  Biso   1.000  Zn
  Zn40     1.0000 0.09514  0.76180  0.08333  Biso   1.000  Zn
  Zn41     1.0000 0.42847  0.42847  0.75000  Biso   1.000  Zn
  Zn42     1.0000 0.00000  0.57153  0.75000  Biso   1.000  Zn
  Zn43     1.0000 0.90486  0.66667  0.41667  Biso   1.000  Zn
  Zn44     1.0000 0.57153  0.00000  0.75000  Biso   1.000  Zn
  Zn45     1.0000 0.76180  0.09514  0.41667  Biso   1.000  Zn
  Zn46     1.0000 0.76180  0.66667  0.91667  Biso   1.000  Zn
  Zn47     1.0000 0.42847  0.00000  0.25000  Biso   1.000  Zn
  Zn48     1.0000 0.09514  0.33333  0.58333  Biso   1.000  Zn
  Zn49     1.0000 0.33333  0.09514  0.91667  Biso   1.000  Zn
  Zn50     1.0000 0.00000  0.42847  0.25000  Biso   1.000  Zn
  Zn51     1.0000 0.90486  0.23820  0.91667  Biso   1.000  Zn
  Zn52     1.0000 0.57153  0.57153  0.25000  Biso   1.000  Zn
  Zn53     1.0000 0.66667  0.76180  0.58333  Biso   1.000  Zn
  Zn54     1.0000 0.23820  0.90486  0.58333  Biso   1.000  Zn
