data_image0
_cell_length_a       33.223
_cell_length_b       33.223
_cell_length_c       33.223
_cell_angle_alpha    90
_cell_angle_beta     90
_cell_angle_gamma    90

_symmetry_space_group_name_H-M    "P 1"
_symmetry_int_tables_number       1

loop_
  _symmetry_equiv_pos_as_xyz
  'x, y, z'

loop_
  _atom_site_label
  _atom_site_occupancy
  _atom_site_fract_x
  _atom_site_fract_y
  _atom_site_fract_z
  _atom_site_thermal_displace_type
  _atom_site_B_iso_or_equiv
  _atom_site_type_symbol
  Zr1      1.0000 0.44691  0.44691  0.00000  Biso   1.000  Zr
  Zr2      1.0000 0.55309  0.55309  0.00000  Biso   1.000  Zr
  Zr3      1.0000 0.55309  0.44691  0.00000  Biso   1.000  Zr
  Zr4      1.0000 0.44691  0.55309  0.00000  Biso   1.000  Zr
  Zr5      1.0000 0.00000  0.44691  0.44691  Biso   1.000  Zr
  Zr6      1.0000 0.00000  0.55309  0.55309  Biso   1.000  Zr
  Zr7      1.0000 0.00000  0.55309  0.44691  Biso   1.000  Zr
  Zr8      1.0000 0.00000  0.44691  0.55309  Biso   1.000  Zr
  Zr9      1.0000 0.44691  0.00000  0.44691  Biso   1.000  Zr
  Zr10     1.0000 0.55309  0.00000  0.55309  Biso   1.000  Zr
  Zr11     1.0000 0.44691  0.00000  0.55309  Biso   1.000  Zr
  Zr12     1.0000 0.55309  0.00000  0.44691  Biso   1.000  Zr
  Zr13     1.0000 0.50000  0.50000  0.07378  Biso   1.000  Zr
  Zr14     1.0000 0.50000  0.50000  0.92622  Biso   1.000  Zr
  Zr15     1.0000 0.07378  0.50000  0.50000  Biso   1.000  Zr
  Zr16     1.0000 0.92622  0.50000  0.50000  Biso   1.000  Zr
  Zr17     1.0000 0.50000  0.07378  0.50000  Biso   1.000  Zr
  Zr18     1.0000 0.50000  0.92622  0.50000  Biso   1.000  Zr
  O1       1.0000 0.45988  0.45988  0.10820  Biso   1.000  O
  O2       1.0000 0.42537  0.42537  0.06130  Biso   1.000  O
  C1       1.0000 0.43521  0.43521  0.09761  Biso   1.000  C
  O3       1.0000 0.54012  0.54012  0.10820  Biso   1.000  O
  O4       1.0000 0.57463  0.57463  0.06130  Biso   1.000  O
  C2       1.0000 0.56479  0.56479  0.09761  Biso   1.000  C
  O5       1.0000 0.54012  0.45988  0.89180  Biso   1.000  O
  O6       1.0000 0.57463  0.42537  0.93870  Biso   1.000  O
  C3       1.0000 0.56479  0.43521  0.90239  Biso   1.000  C
  O7       1.0000 0.45988  0.54012  0.89180  Biso   1.000  O
  O8       1.0000 0.42537  0.57463  0.93870  Biso   1.000  O
  C4       1.0000 0.43521  0.56479  0.90239  Biso   1.000  C
  O9       1.0000 0.10820  0.45988  0.45988  Biso   1.000  O
  O10      1.0000 0.06130  0.42537  0.42537  Biso   1.000  O
  C5       1.0000 0.09761  0.43521  0.43521  Biso   1.000  C
  O11      1.0000 0.10820  0.54012  0.54012  Biso   1.000  O
  O12      1.0000 0.06130  0.57463  0.57463  Biso   1.000  O
  C6       1.0000 0.09761  0.56479  0.56479  Biso   1.000  C
  O13      1.0000 0.89180  0.54012  0.45988  Biso   1.000  O
  O14      1.0000 0.93870  0.57463  0.42537  Biso   1.000  O
  C7       1.0000 0.90239  0.56479  0.43521  Biso   1.000  C
  O15      1.0000 0.89180  0.45988  0.54012  Biso   1.000  O
  O16      1.0000 0.93870  0.42537  0.57463  Biso   1.000  O
  C8       1.0000 0.90239  0.43521  0.56479  Biso   1.000  C
  O17      1.0000 0.45988  0.10820  0.45988  Biso   1.000  O
  O18      1.0000 0.42537  0.06130  0.42537  Biso   1.000  O
  C9       1.0000 0.43521  0.09761  0.43521  Biso   1.000  C
  O19      1.0000 0.54012  0.10820  0.54012  Biso   1.000  O
  O20      1.0000 0.57463  0.06130  0.57463  Biso   1.000  O
  C10      1.0000 0.56479  0.09761  0.56479  Biso   1.000  C
  O21      1.0000 0.45988  0.89180  0.54012  Biso   1.000  O
  O22      1.0000 0.42537  0.93870  0.57463  Biso   1.000  O
  C11      1.0000 0.43521  0.90239  0.56479  Biso   1.000  C
  O23      1.0000 0.54012  0.89180  0.45988  Biso   1.000  O
  O24      1.0000 0.57463  0.93870  0.42537  Biso   1.000  O
  C12      1.0000 0.56479  0.90239  0.43521  Biso   1.000  C
  O25      1.0000 0.45988  0.45988  0.89180  Biso   1.000  O
  O26      1.0000 0.42537  0.42537  0.93870  Biso   1.000  O
  C13      1.0000 0.43521  0.43521  0.90239  Biso   1.000  C
  O27      1.0000 0.54012  0.54012  0.89180  Biso   1.000  O
  O28      1.0000 0.57463  0.57463  0.93870  Biso   1.000  O
  C14      1.0000 0.56479  0.56479  0.90239  Biso   1.000  C
  O29      1.0000 0.45988  0.54012  0.10820  Biso   1.000  O
  O30      1.0000 0.42537  0.57463  0.06130  Biso   1.000  O
  C15      1.0000 0.43521  0.56479  0.09761  Biso   1.000  C
  O31      1.0000 0.54012  0.45988  0.10820  Biso   1.000  O
  O32      1.0000 0.57463  0.42537  0.06130  Biso   1.000  O
  C16      1.0000 0.56479  0.43521  0.09761  Biso   1.000  C
  O33      1.0000 0.45988  0.10820  0.54012  Biso   1.000  O
  O34      1.0000 0.42537  0.06130  0.57463  Biso   1.000  O
  C17      1.0000 0.43521  0.09761  0.56479  Biso   1.000  C
  O35      1.0000 0.54012  0.10820  0.45988  Biso   1.000  O
  O36      1.0000 0.57463  0.06130  0.42537  Biso   1.000  O
  C18      1.0000 0.56479  0.09761  0.43521  Biso   1.000  C
  O37      1.0000 0.54012  0.89180  0.54012  Biso   1.000  O
  O38      1.0000 0.57463  0.93870  0.57463  Biso   1.000  O
  C19      1.0000 0.56479  0.90239  0.56479  Biso   1.000  C
  O39      1.0000 0.45988  0.89180  0.45988  Biso   1.000  O
  O40      1.0000 0.42537  0.93870  0.42537  Biso   1.000  O
  C20      1.0000 0.43521  0.90239  0.43521  Biso   1.000  C
  O41      1.0000 0.10820  0.45988  0.54012  Biso   1.000  O
  O42      1.0000 0.06130  0.42537  0.57463  Biso   1.000  O
  C21      1.0000 0.09761  0.43521  0.56479  Biso   1.000  C
  O43      1.0000 0.10820  0.54012  0.45988  Biso   1.000  O
  O44      1.0000 0.06130  0.57463  0.42537  Biso   1.000  O
  C22      1.0000 0.09761  0.56479  0.43521  Biso   1.000  C
  O45      1.0000 0.89180  0.45988  0.45988  Biso   1.000  O
  O46      1.0000 0.93870  0.42537  0.42537  Biso   1.000  O
  C23      1.0000 0.90239  0.43521  0.43521  Biso   1.000  C
  O47      1.0000 0.89180  0.54012  0.54012  Biso   1.000  O
  O48      1.0000 0.93870  0.57463  0.57463  Biso   1.000  O
  C24      1.0000 0.90239  0.56479  0.56479  Biso   1.000  C
  O49      1.0000 0.50000  0.44626  0.96335  Biso   1.000  O
  O50      1.0000 0.50000  0.55374  0.96335  Biso   1.000  O
  O51      1.0000 0.50000  0.44626  0.03665  Biso   1.000  O
  O52      1.0000 0.50000  0.55374  0.03665  Biso   1.000  O
  O53      1.0000 0.96335  0.50000  0.44626  Biso   1.000  O
  O54      1.0000 0.96335  0.50000  0.55374  Biso   1.000  O
  O55      1.0000 0.03665  0.50000  0.44626  Biso   1.000  O
  O56      1.0000 0.03665  0.50000  0.55374  Biso   1.000  O
  O57      1.0000 0.44626  0.96335  0.50000  Biso   1.000  O
  O58      1.0000 0.55374  0.96335  0.50000  Biso   1.000  O
  O59      1.0000 0.44626  0.03665  0.50000  Biso   1.000  O
  O60      1.0000 0.55374  0.03665  0.50000  Biso   1.000  O
  O61      1.0000 0.44626  0.50000  0.03665  Biso   1.000  O
  O62      1.0000 0.55374  0.50000  0.03665  Biso   1.000  O
  O63      1.0000 0.44626  0.50000  0.96335  Biso   1.000  O
  O64      1.0000 0.55374  0.50000  0.96335  Biso   1.000  O
  O65      1.0000 0.50000  0.96335  0.55374  Biso   1.000  O
  O66      1.0000 0.50000  0.96335  0.44626  Biso   1.000  O
  O67      1.0000 0.50000  0.03665  0.55374  Biso   1.000  O
  O68      1.0000 0.50000  0.03665  0.44626  Biso   1.000  O
  O69      1.0000 0.96335  0.44626  0.50000  Biso   1.000  O
  O70      1.0000 0.96335  0.55374  0.50000  Biso   1.000  O
  O71      1.0000 0.03665  0.44626  0.50000  Biso   1.000  O
  O72      1.0000 0.03665  0.55374  0.50000  Biso   1.000  O
  C25      1.0000 0.36546  0.63642  0.84546  Biso   1.000  C
  C26      1.0000 0.33851  0.66809  0.85316  Biso   1.000  C
  H1       1.0000 0.33311  0.67822  0.88369  Biso   1.000  H
  C27      1.0000 0.31842  0.68712  0.82139  Biso   1.000  C
  H2       1.0000 0.29788  0.71162  0.82772  Biso   1.000  H
  C28      1.0000 0.32506  0.67478  0.78157  Biso   1.000  C
  C29      1.0000 0.35167  0.64302  0.77367  Biso   1.000  C
  H3       1.0000 0.35665  0.63355  0.74284  Biso   1.000  H
  C30      1.0000 0.37191  0.62379  0.80532  Biso   1.000  C
  C31      1.0000 0.30467  0.69530  0.74759  Biso   1.000  C
  C32      1.0000 0.15471  0.63585  0.63504  Biso   1.000  C
  C33      1.0000 0.14698  0.66595  0.66373  Biso   1.000  C
  H4       1.0000 0.11635  0.67454  0.67092  Biso   1.000  H
  C34      1.0000 0.17886  0.68528  0.68340  Biso   1.000  C
  H5       1.0000 0.17248  0.70845  0.70542  Biso   1.000  H
  C35      1.0000 0.21878  0.67476  0.67465  Biso   1.000  C
  C36      1.0000 0.22671  0.64476  0.64610  Biso   1.000  C
  H6       1.0000 0.25765  0.63674  0.63943  Biso   1.000  H
  C37      1.0000 0.19499  0.62527  0.62624  Biso   1.000  C
  C38      1.0000 0.25287  0.69518  0.69511  Biso   1.000  C
  C39      1.0000 0.36505  0.84531  0.63589  Biso   1.000  C
  C40      1.0000 0.33621  0.85305  0.66584  Biso   1.000  C
  H7       1.0000 0.32881  0.88369  0.67421  Biso   1.000  H
  C41      1.0000 0.31664  0.82118  0.68525  Biso   1.000  C
  H8       1.0000 0.29445  0.82756  0.70827  Biso   1.000  H
  C42      1.0000 0.32563  0.78125  0.67495  Biso   1.000  C
  C43      1.0000 0.35436  0.77330  0.64513  Biso   1.000  C
  H9       1.0000 0.36122  0.74236  0.63730  Biso   1.000  H
  C44      1.0000 0.37414  0.80502  0.62558  Biso   1.000  C
  C45      1.0000 0.30495  0.74722  0.69514  Biso   1.000  C
  C46      1.0000 0.32224  0.73007  0.73012  Biso   1.000  C
  C47      1.0000 0.36015  0.74883  0.74750  Biso   1.000  C
  C48      1.0000 0.26967  0.67806  0.73030  Biso   1.000  C
  C49      1.0000 0.25000  0.64101  0.74842  Biso   1.000  C
  C50      1.0000 0.27016  0.72991  0.67762  Biso   1.000  C
  C51      1.0000 0.25137  0.74741  0.63981  Biso   1.000  C
  H10      1.0000 0.37130  0.73394  0.77513  Biso   1.000  H
  H11      1.0000 0.35427  0.78079  0.75530  Biso   1.000  H
  H12      1.0000 0.38474  0.74747  0.72491  Biso   1.000  H
  H13      1.0000 0.26611  0.77530  0.62904  Biso   1.000  H
  H14      1.0000 0.21935  0.75497  0.64565  Biso   1.000  H
  H15      1.0000 0.25295  0.72501  0.61507  Biso   1.000  H
  H16      1.0000 0.26378  0.63107  0.77709  Biso   1.000  H
  H17      1.0000 0.21784  0.64742  0.75489  Biso   1.000  H
  H18      1.0000 0.25192  0.61556  0.72685  Biso   1.000  H
  C52      1.0000 0.12296  0.61620  0.61502  Biso   1.000  C
  C53      1.0000 0.13093  0.58601  0.58622  Biso   1.000  C
  C54      1.0000 0.17137  0.57600  0.57794  Biso   1.000  C
  C55      1.0000 0.20294  0.59537  0.59770  Biso   1.000  C
  C56      1.0000 0.38612  0.61725  0.87709  Biso   1.000  C
  C57      1.0000 0.41325  0.58555  0.86916  Biso   1.000  C
  C58      1.0000 0.41909  0.57340  0.82888  Biso   1.000  C
  C59      1.0000 0.39866  0.59225  0.79743  Biso   1.000  C
  C60      1.0000 0.38491  0.87705  0.61609  Biso   1.000  C
  C61      1.0000 0.41388  0.86908  0.58608  Biso   1.000  C
  C62      1.0000 0.42248  0.82862  0.57637  Biso   1.000  C
  C63      1.0000 0.40287  0.79706  0.59587  Biso   1.000  C
  H19      1.0000 0.38113  0.62718  0.90776  Biso   1.000  H
  H20      1.0000 0.43949  0.54907  0.82151  Biso   1.000  H
  H21      1.0000 0.40385  0.58214  0.76685  Biso   1.000  H
  H22      1.0000 0.37777  0.90785  0.62412  Biso   1.000  H
  H23      1.0000 0.44450  0.82116  0.55352  Biso   1.000  H
  H24      1.0000 0.41019  0.76635  0.58766  Biso   1.000  H
  H25      1.0000 0.09217  0.62449  0.62189  Biso   1.000  H
  H26      1.0000 0.17884  0.55300  0.55608  Biso   1.000  H
  H27      1.0000 0.23364  0.58692  0.59062  Biso   1.000  H
  C64      1.0000 0.63549  0.15449  0.63556  Biso   1.000  C
  C65      1.0000 0.66477  0.14662  0.66504  Biso   1.000  C
  H28      1.0000 0.67249  0.11595  0.67299  Biso   1.000  H
  C66      1.0000 0.68437  0.17841  0.68458  Biso   1.000  C
  H29      1.0000 0.70687  0.17194  0.70726  Biso   1.000  H
  C67      1.0000 0.67494  0.21839  0.67487  Biso   1.000  C
  C68      1.0000 0.64578  0.22648  0.64550  Biso   1.000  C
  H30      1.0000 0.63860  0.25746  0.63811  Biso   1.000  H
  C69      1.0000 0.62601  0.19482  0.62578  Biso   1.000  C
  C70      1.0000 0.69542  0.25231  0.69537  Biso   1.000  C
  C71      1.0000 0.63549  0.36462  0.84526  Biso   1.000  C
  C72      1.0000 0.66507  0.33540  0.85299  Biso   1.000  C
  H31      1.0000 0.67315  0.32768  0.88363  Biso   1.000  H
  C73      1.0000 0.68450  0.31585  0.82111  Biso   1.000  C
  H32      1.0000 0.70726  0.29340  0.82748  Biso   1.000  H
  C74      1.0000 0.67462  0.32527  0.78117  Biso   1.000  C
  C75      1.0000 0.64515  0.35436  0.77323  Biso   1.000  C
  H33      1.0000 0.63762  0.36155  0.74229  Biso   1.000  H
  C76      1.0000 0.62554  0.37409  0.80498  Biso   1.000  C
  C77      1.0000 0.69508  0.30483  0.74710  Biso   1.000  C
  C78      1.0000 0.84536  0.36422  0.63517  Biso   1.000  C
  C79      1.0000 0.85315  0.33447  0.66419  Biso   1.000  C
  H34      1.0000 0.88380  0.32630  0.67176  Biso   1.000  H
  C80      1.0000 0.82131  0.31499  0.68375  Biso   1.000  C
  H35      1.0000 0.82772  0.29214  0.70610  Biso   1.000  H
  C81      1.0000 0.78135  0.32501  0.67455  Biso   1.000  C
  C82      1.0000 0.77335  0.35467  0.64566  Biso   1.000  C
  H36      1.0000 0.74240  0.36233  0.63868  Biso   1.000  H
  C83      1.0000 0.80506  0.37430  0.62589  Biso   1.000  C
  C84      1.0000 0.74736  0.30475  0.69523  Biso   1.000  C
  C85      1.0000 0.73040  0.26961  0.67806  Biso   1.000  C
  C86      1.0000 0.74971  0.25171  0.64069  Biso   1.000  C
  C87      1.0000 0.67792  0.26974  0.73017  Biso   1.000  C
  C88      1.0000 0.64042  0.25200  0.74937  Biso   1.000  C
  C89      1.0000 0.72992  0.32228  0.72995  Biso   1.000  C
  C90      1.0000 0.74744  0.36001  0.74887  Biso   1.000  C
  H37      1.0000 0.73531  0.22357  0.63013  Biso   1.000  H
  H38      1.0000 0.78171  0.24446  0.64699  Biso   1.000  H
  H39      1.0000 0.74825  0.27376  0.61562  Biso   1.000  H
  H40      1.0000 0.77547  0.37065  0.73433  Biso   1.000  H
  H41      1.0000 0.75475  0.35411  0.78094  Biso   1.000  H
  H42      1.0000 0.72515  0.38484  0.74716  Biso   1.000  H
  H43      1.0000 0.62991  0.22380  0.73507  Biso   1.000  H
  H44      1.0000 0.64654  0.24493  0.78145  Biso   1.000  H
  H45      1.0000 0.61539  0.27408  0.74766  Biso   1.000  H
  C91      1.0000 0.61573  0.38452  0.87702  Biso   1.000  C
  C92      1.0000 0.58606  0.41385  0.86906  Biso   1.000  C
  C93      1.0000 0.57666  0.42277  0.82860  Biso   1.000  C
  C94      1.0000 0.59614  0.40315  0.79703  Biso   1.000  C
  C95      1.0000 0.61556  0.12282  0.61570  Biso   1.000  C
  C96      1.0000 0.58617  0.13089  0.58612  Biso   1.000  C
  C97      1.0000 0.57724  0.17138  0.57689  Biso   1.000  C
  C98      1.0000 0.59690  0.20288  0.59647  Biso   1.000  C
  C99      1.0000 0.87708  0.38406  0.61529  Biso   1.000  C
  C100     1.0000 0.86908  0.41390  0.58614  Biso   1.000  C
  C101     1.0000 0.82861  0.42339  0.57738  Biso   1.000  C
  C102     1.0000 0.79706  0.40386  0.59701  Biso   1.000  C
  H46      1.0000 0.62300  0.09200  0.62336  Biso   1.000  H
  H47      1.0000 0.55490  0.17891  0.55437  Biso   1.000  H
  H48      1.0000 0.58929  0.23362  0.58863  Biso   1.000  H
  H49      1.0000 0.90789  0.37619  0.62257  Biso   1.000  H
  H50      1.0000 0.82112  0.44610  0.55522  Biso   1.000  H
  H51      1.0000 0.76634  0.41191  0.58955  Biso   1.000  H
  H52      1.0000 0.62352  0.37711  0.90782  Biso   1.000  H
  H53      1.0000 0.55408  0.44507  0.82114  Biso   1.000  H
  H54      1.0000 0.58818  0.41074  0.76632  Biso   1.000  H
  C103     1.0000 0.36453  0.15452  0.63555  Biso   1.000  C
  C104     1.0000 0.33512  0.14666  0.66491  Biso   1.000  C
  H55      1.0000 0.32724  0.11600  0.67271  Biso   1.000  H
  C105     1.0000 0.31559  0.17846  0.68449  Biso   1.000  C
  H56      1.0000 0.29296  0.17200  0.70705  Biso   1.000  H
  C106     1.0000 0.32521  0.21844  0.67495  Biso   1.000  C
  C107     1.0000 0.35450  0.22651  0.64570  Biso   1.000  C
  H57      1.0000 0.36181  0.25748  0.63842  Biso   1.000  H
  C108     1.0000 0.37422  0.19484  0.62596  Biso   1.000  C
  C109     1.0000 0.30470  0.25237  0.69540  Biso   1.000  C
  C110     1.0000 0.15476  0.36459  0.63543  Biso   1.000  C
  C111     1.0000 0.14705  0.33535  0.66499  Biso   1.000  C
  H58      1.0000 0.11642  0.32763  0.67308  Biso   1.000  H
  C112     1.0000 0.17895  0.31582  0.68441  Biso   1.000  C
  H59      1.0000 0.17259  0.29336  0.70717  Biso   1.000  H
  C113     1.0000 0.21887  0.32525  0.67453  Biso   1.000  C
  C114     1.0000 0.22680  0.35434  0.64505  Biso   1.000  C
  H60      1.0000 0.25774  0.36152  0.63750  Biso   1.000  H
  C115     1.0000 0.19505  0.37407  0.62546  Biso   1.000  C
  C116     1.0000 0.25296  0.30486  0.69500  Biso   1.000  C
  C117     1.0000 0.36472  0.36438  0.84533  Biso   1.000  C
  C118     1.0000 0.33551  0.33481  0.85309  Biso   1.000  C
  H61      1.0000 0.32775  0.32681  0.88374  Biso   1.000  H
  C119     1.0000 0.31600  0.31530  0.82124  Biso   1.000  C
  H62      1.0000 0.29350  0.29260  0.82764  Biso   1.000  H
  C120     1.0000 0.32544  0.32512  0.78129  Biso   1.000  C
  C121     1.0000 0.35451  0.35460  0.77331  Biso   1.000  C
  H63      1.0000 0.36168  0.36211  0.74236  Biso   1.000  H
  C122     1.0000 0.37424  0.37425  0.80502  Biso   1.000  C
  C123     1.0000 0.30481  0.30484  0.74728  Biso   1.000  C
  C124     1.0000 0.32200  0.26971  0.73036  Biso   1.000  C
  C125     1.0000 0.35940  0.25185  0.74968  Biso   1.000  C
  C126     1.0000 0.26991  0.26977  0.67787  Biso   1.000  C
  C127     1.0000 0.25075  0.25201  0.64036  Biso   1.000  C
  C128     1.0000 0.27010  0.32236  0.72981  Biso   1.000  C
  C129     1.0000 0.25121  0.36015  0.74724  Biso   1.000  C
  H64      1.0000 0.36997  0.22371  0.73531  Biso   1.000  H
  H65      1.0000 0.35312  0.24465  0.78170  Biso   1.000  H
  H66      1.0000 0.38445  0.27392  0.74818  Biso   1.000  H
  H67      1.0000 0.26576  0.37085  0.77525  Biso   1.000  H
  H68      1.0000 0.21913  0.35430  0.75456  Biso   1.000  H
  H69      1.0000 0.25295  0.38492  0.72489  Biso   1.000  H
  H70      1.0000 0.26506  0.22380  0.62988  Biso   1.000  H
  H71      1.0000 0.21866  0.24493  0.64646  Biso   1.000  H
  H72      1.0000 0.25247  0.27407  0.61533  Biso   1.000  H
  C130     1.0000 0.12300  0.38451  0.61570  Biso   1.000  C
  C131     1.0000 0.13094  0.41385  0.58605  Biso   1.000  C
  C132     1.0000 0.17139  0.42278  0.57664  Biso   1.000  C
  C133     1.0000 0.20298  0.40315  0.59608  Biso   1.000  C
  C134     1.0000 0.38439  0.12284  0.61565  Biso   1.000  C
  C135     1.0000 0.41389  0.13089  0.58617  Biso   1.000  C
  C136     1.0000 0.42304  0.17138  0.57713  Biso   1.000  C
  C137     1.0000 0.40345  0.20289  0.59676  Biso   1.000  C
  C138     1.0000 0.38456  0.38424  0.87706  Biso   1.000  C
  C139     1.0000 0.41389  0.41389  0.86908  Biso   1.000  C
  C140     1.0000 0.42288  0.42319  0.82861  Biso   1.000  C
  C141     1.0000 0.40330  0.40363  0.79705  Biso   1.000  C
  H73      1.0000 0.37682  0.09201  0.62317  Biso   1.000  H
  H74      1.0000 0.44549  0.17890  0.55472  Biso   1.000  H
  H75      1.0000 0.41122  0.23363  0.58907  Biso   1.000  H
  H76      1.0000 0.37709  0.37653  0.90786  Biso   1.000  H
  H77      1.0000 0.44519  0.44575  0.82113  Biso   1.000  H
  H78      1.0000 0.41094  0.41152  0.76633  Biso   1.000  H
  H79      1.0000 0.09220  0.37710  0.62351  Biso   1.000  H
  H80      1.0000 0.17884  0.44510  0.55407  Biso   1.000  H
  H81      1.0000 0.23369  0.41074  0.58810  Biso   1.000  H
  C142     1.0000 0.36437  0.84543  0.36468  Biso   1.000  C
  C143     1.0000 0.33461  0.85326  0.33566  Biso   1.000  C
  H82      1.0000 0.32638  0.88392  0.32820  Biso   1.000  H
  C144     1.0000 0.31517  0.82144  0.31603  Biso   1.000  C
  H83      1.0000 0.29226  0.82788  0.29376  Biso   1.000  H
  C145     1.0000 0.32523  0.78149  0.32517  Biso   1.000  C
  C146     1.0000 0.35488  0.77344  0.35405  Biso   1.000  C
  H84      1.0000 0.36253  0.74248  0.36101  Biso   1.000  H
  C147     1.0000 0.37451  0.80512  0.37385  Biso   1.000  C
  C148     1.0000 0.30477  0.74755  0.30472  Biso   1.000  C
  C149     1.0000 0.15478  0.63577  0.36496  Biso   1.000  C
  C150     1.0000 0.14709  0.66586  0.33626  Biso   1.000  C
  H85      1.0000 0.11647  0.67446  0.32904  Biso   1.000  H
  C151     1.0000 0.17899  0.68518  0.31663  Biso   1.000  C
  H86      1.0000 0.17264  0.70836  0.29460  Biso   1.000  H
  C152     1.0000 0.21890  0.67467  0.32544  Biso   1.000  C
  C153     1.0000 0.22680  0.64469  0.35401  Biso   1.000  C
  H87      1.0000 0.25773  0.63669  0.36074  Biso   1.000  H
  C154     1.0000 0.19505  0.62518  0.37381  Biso   1.000  C
  C155     1.0000 0.25299  0.69508  0.30500  Biso   1.000  C
  C156     1.0000 0.36519  0.63609  0.15466  Biso   1.000  C
  C157     1.0000 0.33688  0.66653  0.14691  Biso   1.000  C
  H88      1.0000 0.33001  0.67538  0.11628  Biso   1.000  H
  C158     1.0000 0.31715  0.68584  0.17875  Biso   1.000  C
  H89      1.0000 0.29540  0.70926  0.17236  Biso   1.000  H
  C159     1.0000 0.32548  0.67498  0.21867  Biso   1.000  C
  C160     1.0000 0.35362  0.64460  0.22664  Biso   1.000  C
  H90      1.0000 0.35994  0.63628  0.25757  Biso   1.000  H
  C161     1.0000 0.37356  0.62513  0.19494  Biso   1.000  C
  C162     1.0000 0.30481  0.69523  0.25268  Biso   1.000  C
  C163     1.0000 0.32205  0.73029  0.26971  Biso   1.000  C
  C164     1.0000 0.35951  0.74812  0.25048  Biso   1.000  C
  C165     1.0000 0.27002  0.73008  0.32226  Biso   1.000  C
  C166     1.0000 0.25102  0.74761  0.35997  Biso   1.000  C
  C167     1.0000 0.27006  0.67772  0.27008  Biso   1.000  C
  C168     1.0000 0.25100  0.64015  0.25240  Biso   1.000  C
  H91      1.0000 0.37025  0.77609  0.26507  Biso   1.000  H
  H92      1.0000 0.35322  0.75564  0.21854  Biso   1.000  H
  H93      1.0000 0.38445  0.72592  0.25176  Biso   1.000  H
  H94      1.0000 0.26521  0.62986  0.22406  Biso   1.000  H
  H95      1.0000 0.21883  0.64606  0.24554  Biso   1.000  H
  H96      1.0000 0.25303  0.61509  0.27441  Biso   1.000  H
  H97      1.0000 0.26561  0.77554  0.37080  Biso   1.000  H
  H98      1.0000 0.21901  0.75505  0.35397  Biso   1.000  H
  H99      1.0000 0.25255  0.72525  0.38476  Biso   1.000  H
  C169     1.0000 0.12301  0.61613  0.38494  Biso   1.000  C
  C170     1.0000 0.13094  0.58595  0.41376  Biso   1.000  C
  C171     1.0000 0.17138  0.57590  0.42205  Biso   1.000  C
  C172     1.0000 0.20297  0.59526  0.40233  Biso   1.000  C
  C173     1.0000 0.38413  0.87713  0.38465  Biso   1.000  C
  C174     1.0000 0.41397  0.86910  0.41378  Biso   1.000  C
  C175     1.0000 0.42357  0.82863  0.42241  Biso   1.000  C
  C176     1.0000 0.40409  0.79710  0.40270  Biso   1.000  C
  C177     1.0000 0.38527  0.61646  0.12295  Biso   1.000  C
  C178     1.0000 0.41372  0.58595  0.13092  Biso   1.000  C
  C179     1.0000 0.42157  0.57556  0.17136  Biso   1.000  C
  C180     1.0000 0.40174  0.59489  0.20290  Biso   1.000  C
  H100     1.0000 0.37619  0.90794  0.37746  Biso   1.000  H
  H101     1.0000 0.44632  0.82112  0.44452  Biso   1.000  H
  H102     1.0000 0.41221  0.76637  0.41006  Biso   1.000  H
  H103     1.0000 0.37870  0.62502  0.09216  Biso   1.000  H
  H104     1.0000 0.44313  0.55228  0.17882  Biso   1.000  H
  H105     1.0000 0.40847  0.58614  0.23360  Biso   1.000  H
  H106     1.0000 0.09223  0.62441  0.37803  Biso   1.000  H
  H107     1.0000 0.17881  0.55287  0.44389  Biso   1.000  H
  H108     1.0000 0.23366  0.58679  0.40943  Biso   1.000  H
  C181     1.0000 0.84548  0.63551  0.63550  Biso   1.000  C
  C182     1.0000 0.85333  0.66483  0.66495  Biso   1.000  C
  H109     1.0000 0.88399  0.67259  0.67287  Biso   1.000  H
  C183     1.0000 0.82152  0.68441  0.68448  Biso   1.000  C
  H110     1.0000 0.82798  0.70693  0.70714  Biso   1.000  H
  C184     1.0000 0.78155  0.67492  0.67480  Biso   1.000  C
  C185     1.0000 0.77348  0.64574  0.64545  Biso   1.000  C
  H111     1.0000 0.74251  0.63852  0.63808  Biso   1.000  H
  C186     1.0000 0.80515  0.62598  0.62575  Biso   1.000  C
  C187     1.0000 0.74762  0.69537  0.69530  Biso   1.000  C
  C188     1.0000 0.63529  0.63554  0.84523  Biso   1.000  C
  C189     1.0000 0.66431  0.66531  0.85294  Biso   1.000  C
  H112     1.0000 0.67183  0.67361  0.88356  Biso   1.000  H
  C190     1.0000 0.68389  0.68468  0.82104  Biso   1.000  C
  H113     1.0000 0.70617  0.70762  0.82739  Biso   1.000  H
  C191     1.0000 0.67471  0.67454  0.78112  Biso   1.000  C
  C192     1.0000 0.64583  0.64485  0.77320  Biso   1.000  C
  H114     1.0000 0.63883  0.63713  0.74227  Biso   1.000  H
  C193     1.0000 0.62607  0.62530  0.80495  Biso   1.000  C
  C194     1.0000 0.69511  0.69499  0.74703  Biso   1.000  C
  C195     1.0000 0.63562  0.84532  0.63527  Biso   1.000  C
  C196     1.0000 0.66515  0.85308  0.66453  Biso   1.000  C
  H115     1.0000 0.67312  0.88372  0.67233  Biso   1.000  H
  C197     1.0000 0.68467  0.82122  0.68402  Biso   1.000  C
  H116     1.0000 0.70733  0.82761  0.70656  Biso   1.000  H
  C198     1.0000 0.67489  0.78127  0.67452  Biso   1.000  C
  C199     1.0000 0.64546  0.77330  0.64540  Biso   1.000  C
  H117     1.0000 0.63799  0.74234  0.63819  Biso   1.000  H
  C200     1.0000 0.62580  0.80502  0.62569  Biso   1.000  C
  C201     1.0000 0.69515  0.74726  0.69516  Biso   1.000  C
  C202     1.0000 0.73029  0.73033  0.67798  Biso   1.000  C
  C203     1.0000 0.74815  0.74963  0.64058  Biso   1.000  C
  C204     1.0000 0.73021  0.67785  0.73009  Biso   1.000  C
  C205     1.0000 0.74796  0.64035  0.74927  Biso   1.000  C
  C206     1.0000 0.67761  0.72979  0.72987  Biso   1.000  C
  C207     1.0000 0.63979  0.74720  0.74870  Biso   1.000  C
  H118     1.0000 0.77632  0.73529  0.63005  Biso   1.000  H
  H119     1.0000 0.75531  0.78166  0.64683  Biso   1.000  H
  H120     1.0000 0.72610  0.74807  0.61551  Biso   1.000  H
  H121     1.0000 0.62900  0.77512  0.73406  Biso   1.000  H
  H122     1.0000 0.64563  0.75463  0.78075  Biso   1.000  H
  H123     1.0000 0.61506  0.72478  0.74704  Biso   1.000  H
  H124     1.0000 0.77620  0.62989  0.73500  Biso   1.000  H
  H125     1.0000 0.75498  0.64644  0.78137  Biso   1.000  H
  H126     1.0000 0.72592  0.61530  0.74750  Biso   1.000  H
  C208     1.0000 0.61534  0.61585  0.87700  Biso   1.000  C
  C209     1.0000 0.58620  0.58599  0.86906  Biso   1.000  C
  C210     1.0000 0.57755  0.57630  0.82861  Biso   1.000  C
  C211     1.0000 0.59722  0.59570  0.79702  Biso   1.000  C
  C212     1.0000 0.87716  0.61559  0.61566  Biso   1.000  C
  C213     1.0000 0.86911  0.58616  0.58611  Biso   1.000  C
  C214     1.0000 0.82862  0.57717  0.57690  Biso   1.000  C
  C215     1.0000 0.79711  0.59683  0.59647  Biso   1.000  C
  C216     1.0000 0.61575  0.87705  0.61546  Biso   1.000  C
  C217     1.0000 0.58613  0.86907  0.58609  Biso   1.000  C
  C218     1.0000 0.57689  0.82861  0.57704  Biso   1.000  C
  C219     1.0000 0.59646  0.79705  0.59659  Biso   1.000  C
  H127     1.0000 0.90798  0.62305  0.62330  Biso   1.000  H
  H128     1.0000 0.82110  0.55480  0.55442  Biso   1.000  H
  H129     1.0000 0.76637  0.58918  0.58865  Biso   1.000  H
  H130     1.0000 0.62341  0.90786  0.62298  Biso   1.000  H
  H131     1.0000 0.55436  0.82113  0.55469  Biso   1.000  H
  H132     1.0000 0.58862  0.76633  0.58890  Biso   1.000  H
  H133     1.0000 0.62254  0.62386  0.90779  Biso   1.000  H
  H134     1.0000 0.55543  0.55354  0.82117  Biso   1.000  H
  H135     1.0000 0.58984  0.58751  0.76632  Biso   1.000  H
  C220     1.0000 0.63552  0.84545  0.36455  Biso   1.000  C
  C221     1.0000 0.66490  0.85329  0.33515  Biso   1.000  C
  H136     1.0000 0.67271  0.88395  0.32727  Biso   1.000  H
  C222     1.0000 0.68445  0.82148  0.31562  Biso   1.000  C
  H137     1.0000 0.70703  0.82792  0.29301  Biso   1.000  H
  C223     1.0000 0.67489  0.78151  0.32525  Biso   1.000  C
  C224     1.0000 0.64565  0.77345  0.35454  Biso   1.000  C
  H138     1.0000 0.63837  0.74248  0.36187  Biso   1.000  H
  C225     1.0000 0.62591  0.80513  0.37424  Biso   1.000  C
  C226     1.0000 0.69533  0.74757  0.30476  Biso   1.000  C
  C227     1.0000 0.63527  0.63555  0.15478  Biso   1.000  C
  C228     1.0000 0.66448  0.66515  0.14708  Biso   1.000  C
  H139     1.0000 0.67221  0.67324  0.11645  Biso   1.000  H
  C229     1.0000 0.68398  0.68459  0.17898  Biso   1.000  C
  H140     1.0000 0.70644  0.70734  0.17263  Biso   1.000  H
  C230     1.0000 0.67454  0.67469  0.21891  Biso   1.000  C
  C231     1.0000 0.64545  0.64521  0.22682  Biso   1.000  C
  H141     1.0000 0.63825  0.63767  0.25776  Biso   1.000  H
  C232     1.0000 0.62577  0.62559  0.19506  Biso   1.000  C
  C233     1.0000 0.69499  0.69509  0.25300  Biso   1.000  C
  C234     1.0000 0.84533  0.63592  0.36503  Biso   1.000  C
  C235     1.0000 0.85308  0.66606  0.33640  Biso   1.000  C
  H142     1.0000 0.88372  0.67462  0.32922  Biso   1.000  H
  C236     1.0000 0.82123  0.68543  0.31675  Biso   1.000  C
  H143     1.0000 0.82762  0.70861  0.29474  Biso   1.000  H
  C237     1.0000 0.78130  0.67492  0.32548  Biso   1.000  C
  C238     1.0000 0.77333  0.64486  0.35396  Biso   1.000  C
  H144     1.0000 0.74239  0.63683  0.36058  Biso   1.000  H
  C239     1.0000 0.80504  0.62533  0.37381  Biso   1.000  C
  C240     1.0000 0.74729  0.69518  0.30483  Biso   1.000  C
  C241     1.0000 0.73030  0.73027  0.32206  Biso   1.000  C
  C242     1.0000 0.74953  0.74806  0.35953  Biso   1.000  C
  C243     1.0000 0.67779  0.73014  0.26998  Biso   1.000  C
  C244     1.0000 0.64020  0.74780  0.25089  Biso   1.000  C
  C245     1.0000 0.72984  0.67766  0.27010  Biso   1.000  C
  C246     1.0000 0.74740  0.63997  0.25114  Biso   1.000  C
  H145     1.0000 0.73501  0.77608  0.37025  Biso   1.000  H
  H146     1.0000 0.78150  0.75548  0.35329  Biso   1.000  H
  H147     1.0000 0.74815  0.72588  0.38449  Biso   1.000  H
  H148     1.0000 0.77555  0.62945  0.26555  Biso   1.000  H
  H149     1.0000 0.75452  0.64586  0.21903  Biso   1.000  H
  H150     1.0000 0.72519  0.61507  0.25300  Biso   1.000  H
  H151     1.0000 0.62959  0.77591  0.26531  Biso   1.000  H
  H152     1.0000 0.64624  0.75501  0.21883  Biso   1.000  H
  H153     1.0000 0.61526  0.72562  0.25257  Biso   1.000  H
  C247     1.0000 0.61542  0.61577  0.12301  Biso   1.000  C
  C248     1.0000 0.58612  0.58607  0.13094  Biso   1.000  C
  C249     1.0000 0.57717  0.57666  0.17140  Biso   1.000  C
  C250     1.0000 0.59674  0.59617  0.20299  Biso   1.000  C
  C251     1.0000 0.61562  0.87714  0.38439  Biso   1.000  C
  C252     1.0000 0.58614  0.86910  0.41389  Biso   1.000  C
  C253     1.0000 0.57708  0.82862  0.42304  Biso   1.000  C
  C254     1.0000 0.59671  0.79710  0.40347  Biso   1.000  C
  C255     1.0000 0.87705  0.61621  0.38501  Biso   1.000  C
  C256     1.0000 0.86908  0.58600  0.41378  Biso   1.000  C
  C257     1.0000 0.82863  0.57599  0.42204  Biso   1.000  C
  C258     1.0000 0.79707  0.59540  0.40230  Biso   1.000  C
  H154     1.0000 0.62315  0.90796  0.37679  Biso   1.000  H
  H155     1.0000 0.55466  0.82111  0.44548  Biso   1.000  H
  H156     1.0000 0.58900  0.76637  0.41124  Biso   1.000  H
  H157     1.0000 0.90785  0.62448  0.37813  Biso   1.000  H
  H158     1.0000 0.82116  0.55296  0.44386  Biso   1.000  H
  H159     1.0000 0.76637  0.58694  0.40936  Biso   1.000  H
  H160     1.0000 0.62285  0.62356  0.09222  Biso   1.000  H
  H161     1.0000 0.55490  0.55405  0.17884  Biso   1.000  H
  H162     1.0000 0.58913  0.58819  0.23369  Biso   1.000  H
  C259     1.0000 0.36425  0.15455  0.36477  Biso   1.000  C
  C260     1.0000 0.33443  0.14672  0.33583  Biso   1.000  C
  H163     1.0000 0.32616  0.11606  0.32841  Biso   1.000  H
  C261     1.0000 0.31498  0.17853  0.31620  Biso   1.000  C
  H164     1.0000 0.29202  0.17209  0.29397  Biso   1.000  H
  C262     1.0000 0.32509  0.21850  0.32526  Biso   1.000  C
  C263     1.0000 0.35482  0.22655  0.35407  Biso   1.000  C
  H165     1.0000 0.36252  0.25751  0.36097  Biso   1.000  H
  C264     1.0000 0.37445  0.19487  0.37388  Biso   1.000  C
  C265     1.0000 0.30466  0.25243  0.30477  Biso   1.000  C
  C266     1.0000 0.36450  0.36468  0.15479  Biso   1.000  C
  C267     1.0000 0.33481  0.33557  0.14709  Biso   1.000  C
  H166     1.0000 0.32659  0.32797  0.11646  Biso   1.000  H
  C268     1.0000 0.31542  0.31601  0.17899  Biso   1.000  C
  H167     1.0000 0.29256  0.29366  0.17264  Biso   1.000  H
  C269     1.0000 0.32547  0.32530  0.21891  Biso   1.000  C
  C270     1.0000 0.35507  0.35428  0.22682  Biso   1.000  C
  H168     1.0000 0.36272  0.36136  0.25776  Biso   1.000  H
  C271     1.0000 0.37463  0.37402  0.19506  Biso   1.000  C
  C272     1.0000 0.30502  0.30491  0.25300  Biso   1.000  C
  C273     1.0000 0.15469  0.36415  0.36499  Biso   1.000  C
  C274     1.0000 0.14694  0.33409  0.33627  Biso   1.000  C
  H169     1.0000 0.11630  0.32560  0.32901  Biso   1.000  H
  C275     1.0000 0.17879  0.31470  0.31665  Biso   1.000  C
  H170     1.0000 0.17241  0.29159  0.29457  Biso   1.000  H
  C276     1.0000 0.21873  0.32512  0.32549  Biso   1.000  C
  C277     1.0000 0.22669  0.35510  0.35405  Biso   1.000  C
  H171     1.0000 0.25763  0.36306  0.36076  Biso   1.000  H
  C278     1.0000 0.19498  0.37464  0.37388  Biso   1.000  C
  C279     1.0000 0.25274  0.30487  0.30485  Biso   1.000  C
  C280     1.0000 0.26972  0.26978  0.32210  Biso   1.000  C
  C281     1.0000 0.25054  0.25206  0.35963  Biso   1.000  C
  C282     1.0000 0.32217  0.26983  0.26996  Biso   1.000  C
  C283     1.0000 0.35965  0.25204  0.25077  Biso   1.000  C
  C284     1.0000 0.27019  0.32238  0.27013  Biso   1.000  C
  C285     1.0000 0.25270  0.36012  0.25122  Biso   1.000  C
  H172     1.0000 0.26510  0.22411  0.37043  Biso   1.000  H
  H173     1.0000 0.21857  0.24460  0.35343  Biso   1.000  H
  H174     1.0000 0.25191  0.27431  0.38453  Biso   1.000  H
  H175     1.0000 0.22467  0.37079  0.26574  Biso   1.000  H
  H176     1.0000 0.24541  0.35425  0.21914  Biso   1.000  H
  H177     1.0000 0.27502  0.38494  0.25295  Biso   1.000  H
  H178     1.0000 0.37005  0.22376  0.26501  Biso   1.000  H
  H179     1.0000 0.35356  0.24507  0.21866  Biso   1.000  H
  H180     1.0000 0.38473  0.27405  0.25258  Biso   1.000  H
  C286     1.0000 0.38421  0.38460  0.12301  Biso   1.000  C
  C287     1.0000 0.41399  0.41383  0.13095  Biso   1.000  C
  C288     1.0000 0.42356  0.42261  0.17139  Biso   1.000  C
  C289     1.0000 0.40414  0.40296  0.20299  Biso   1.000  C
  C290     1.0000 0.38403  0.12286  0.38474  Biso   1.000  C
  C291     1.0000 0.41395  0.13090  0.41380  Biso   1.000  C
  C292     1.0000 0.42360  0.17137  0.42236  Biso   1.000  C
  C293     1.0000 0.40410  0.20290  0.40265  Biso   1.000  C
  C294     1.0000 0.12295  0.38387  0.38495  Biso   1.000  C
  C295     1.0000 0.13092  0.41399  0.41380  Biso   1.000  C
  C296     1.0000 0.17138  0.42392  0.42216  Biso   1.000  C
  C297     1.0000 0.20294  0.40450  0.40246  Biso   1.000  C
  H181     1.0000 0.37605  0.09205  0.37761  Biso   1.000  H
  H182     1.0000 0.44640  0.17888  0.44441  Biso   1.000  H
  H183     1.0000 0.41227  0.23362  0.40996  Biso   1.000  H
  H184     1.0000 0.09216  0.37567  0.37797  Biso   1.000  H
  H185     1.0000 0.17884  0.44688  0.44406  Biso   1.000  H
  H186     1.0000 0.23364  0.41287  0.40960  Biso   1.000  H
  H187     1.0000 0.37629  0.37731  0.09222  Biso   1.000  H
  H188     1.0000 0.44624  0.44481  0.17884  Biso   1.000  H
  H189     1.0000 0.41225  0.41044  0.23369  Biso   1.000  H
  C298     1.0000 0.84550  0.36465  0.36432  Biso   1.000  C
  C299     1.0000 0.85335  0.33573  0.33448  Biso   1.000  C
  H190     1.0000 0.88402  0.32838  0.32618  Biso   1.000  H
  C300     1.0000 0.82156  0.31605  0.31504  Biso   1.000  C
  H191     1.0000 0.82803  0.29386  0.29205  Biso   1.000  H
  C301     1.0000 0.78159  0.32504  0.32518  Biso   1.000  C
  C302     1.0000 0.77351  0.35382  0.35494  Biso   1.000  C
  H192     1.0000 0.74254  0.36067  0.36266  Biso   1.000  H
  C303     1.0000 0.80517  0.37368  0.37456  Biso   1.000  C
  C304     1.0000 0.74767  0.30459  0.30467  Biso   1.000  C
  C305     1.0000 0.63567  0.36482  0.15475  Biso   1.000  C
  C306     1.0000 0.66545  0.33580  0.14703  Biso   1.000  C
  H193     1.0000 0.67372  0.32826  0.11640  Biso   1.000  H
  C307     1.0000 0.68486  0.31624  0.17892  Biso   1.000  C
  H194     1.0000 0.70777  0.29394  0.17255  Biso   1.000  H
  C308     1.0000 0.67476  0.32544  0.21885  Biso   1.000  C
  C309     1.0000 0.64509  0.35433  0.22678  Biso   1.000  C
  H195     1.0000 0.63739  0.36134  0.25772  Biso   1.000  H
  C310     1.0000 0.62549  0.37407  0.19503  Biso   1.000  C
  C311     1.0000 0.69517  0.30496  0.25292  Biso   1.000  C
  C312     1.0000 0.63574  0.15463  0.36478  Biso   1.000  C
  C313     1.0000 0.66546  0.14684  0.33573  Biso   1.000  C
  H196     1.0000 0.67360  0.11619  0.32814  Biso   1.000  H
  C314     1.0000 0.68495  0.17868  0.31616  Biso   1.000  C
  H197     1.0000 0.70778  0.17226  0.29380  Biso   1.000  H
  C315     1.0000 0.67497  0.21863  0.32539  Biso   1.000  C
  C316     1.0000 0.64532  0.22664  0.35430  Biso   1.000  C
  H198     1.0000 0.63767  0.25759  0.36129  Biso   1.000  H
  C317     1.0000 0.62569  0.19494  0.37408  Biso   1.000  C
  C318     1.0000 0.69525  0.25263  0.30473  Biso   1.000  C
  C319     1.0000 0.73039  0.26957  0.32192  Biso   1.000  C
  C320     1.0000 0.74834  0.25019  0.35923  Biso   1.000  C
  C321     1.0000 0.73022  0.32215  0.26991  Biso   1.000  C
  C322     1.0000 0.74785  0.35978  0.25086  Biso   1.000  C
  C323     1.0000 0.67774  0.27009  0.27001  Biso   1.000  C
  C324     1.0000 0.64007  0.25253  0.25102  Biso   1.000  C
  H199     1.0000 0.77653  0.26451  0.36973  Biso   1.000  H
  H200     1.0000 0.75551  0.21818  0.35288  Biso   1.000  H
  H201     1.0000 0.72634  0.25166  0.38435  Biso   1.000  H
  H202     1.0000 0.62955  0.22437  0.26541  Biso   1.000  H
  H203     1.0000 0.64598  0.24543  0.21891  Biso   1.000  H
  H204     1.0000 0.61515  0.27472  0.25288  Biso   1.000  H
  H205     1.0000 0.77587  0.37048  0.26536  Biso   1.000  H
  H206     1.0000 0.75516  0.35374  0.21882  Biso   1.000  H
  H207     1.0000 0.72560  0.38467  0.25245  Biso   1.000  H
  C325     1.0000 0.61592  0.38472  0.12299  Biso   1.000  C
  C326     1.0000 0.58604  0.41384  0.13094  Biso   1.000  C
  C327     1.0000 0.57641  0.42253  0.17139  Biso   1.000  C
  C328     1.0000 0.59588  0.40290  0.20297  Biso   1.000  C
  C329     1.0000 0.87717  0.38470  0.38405  Biso   1.000  C
  C330     1.0000 0.86911  0.41374  0.41398  Biso   1.000  C
  C331     1.0000 0.82863  0.42222  0.42367  Biso   1.000  C
  C332     1.0000 0.79712  0.40244  0.40422  Biso   1.000  C
  C333     1.0000 0.61592  0.12291  0.38468  Biso   1.000  C
  C334     1.0000 0.58610  0.13092  0.41385  Biso   1.000  C
  C335     1.0000 0.57663  0.17139  0.42263  Biso   1.000  C
  C336     1.0000 0.59616  0.20293  0.40299  Biso   1.000  C
  H208     1.0000 0.90799  0.37763  0.37603  Biso   1.000  H
  H209     1.0000 0.82111  0.44426  0.44648  Biso   1.000  H
  H210     1.0000 0.76639  0.40968  0.41242  Biso   1.000  H
  H211     1.0000 0.62377  0.09210  0.37739  Biso   1.000  H
  H212     1.0000 0.55395  0.17888  0.44482  Biso   1.000  H
  H213     1.0000 0.58813  0.23366  0.41046  Biso   1.000  H
  H214     1.0000 0.62389  0.37749  0.09219  Biso   1.000  H
  H215     1.0000 0.55365  0.44465  0.17885  Biso   1.000  H
  H216     1.0000 0.58773  0.41032  0.23368  Biso   1.000  H
