data_image0
_cell_length_a       13.6206
_cell_length_b       13.6206
_cell_length_c       8.1751
_cell_angle_alpha    90
_cell_angle_beta     90
_cell_angle_gamma    120

_symmetry_space_group_name_H-M    "P 1"
_symmetry_int_tables_number       1

loop_
  _symmetry_equiv_pos_as_xyz
  'x, y, z'

loop_
  _atom_site_label
  _atom_site_occupancy
  _atom_site_fract_x
  _atom_site_fract_y
  _atom_site_fract_z
  _atom_site_thermal_displace_type
  _atom_site_B_iso_or_equiv
  _atom_site_type_symbol
  Mn1      1.0000 0.29561  0.33426  0.54383  Biso   1.000  Mn
  O1       1.0000 0.22820  0.18040  0.40510  Biso   1.000  O
  C1       1.0000 0.53030  0.32170  0.55370  Biso   1.000  C
  C2       1.0000 0.35430  0.55610  0.77550  Biso   1.000  C
  O2       1.0000 0.24430  0.05870  0.24650  Biso   1.000  O
  C3       1.0000 0.26700  0.15880  0.28020  Biso   1.000  C
  N1       1.0000 0.34480  0.21010  0.00420  Biso   1.000  N
  H1       1.0000 0.40890  0.25780  0.95050  Biso   1.000  H
  H2       1.0000 0.28520  0.20130  0.94510  Biso   1.000  H
  C4       1.0000 0.34400  0.25500  0.16720  Biso   1.000  C
  H3       1.0000 0.42100  0.28680  0.21080  Biso   1.000  H
  N2       1.0000 0.36310  0.42510  0.30700  Biso   1.000  N
  H4       1.0000 0.34650  0.48110  0.29950  Biso   1.000  H
  H5       1.0000 0.43910  0.45740  0.30760  Biso   1.000  H
  C5       1.0000 0.31850  0.35230  0.16100  Biso   1.000  C
  H6       1.0000 0.35250  0.39750  0.06370  Biso   1.000  H
  H7       1.0000 0.23720  0.32160  0.15460  Biso   1.000  H
  N3       1.0000 0.44990  0.31930  0.60350  Biso   1.000  N
  N4       1.0000 0.36600  0.49540  0.69160  Biso   1.000  N
  Mn2      1.0000 0.66574  0.96135  0.54383  Biso   1.000  Mn
  O3       1.0000 0.81960  0.04780  0.40510  Biso   1.000  O
  C6       1.0000 0.67830  0.20860  0.55370  Biso   1.000  C
  C7       1.0000 0.44390  0.79820  0.77550  Biso   1.000  C
  O4       1.0000 0.94130  0.18560  0.24650  Biso   1.000  O
  C8       1.0000 0.84120  0.10820  0.28020  Biso   1.000  C
  N5       1.0000 0.78990  0.13470  0.00420  Biso   1.000  N
  H8       1.0000 0.74220  0.15110  0.95050  Biso   1.000  H
  H9       1.0000 0.79870  0.08390  0.94510  Biso   1.000  H
  C9       1.0000 0.74500  0.08900  0.16720  Biso   1.000  C
  H10      1.0000 0.71320  0.13420  0.21080  Biso   1.000  H
  N6       1.0000 0.57490  0.93800  0.30700  Biso   1.000  N
  H11      1.0000 0.51890  0.86540  0.29950  Biso   1.000  H
  H12      1.0000 0.54260  0.98170  0.30760  Biso   1.000  H
  C10      1.0000 0.64770  0.96620  0.16100  Biso   1.000  C
  H13      1.0000 0.60250  0.95500  0.06370  Biso   1.000  H
  H14      1.0000 0.67840  0.91560  0.15460  Biso   1.000  H
  N7       1.0000 0.68070  0.13060  0.60350  Biso   1.000  N
  N8       1.0000 0.50460  0.87060  0.69160  Biso   1.000  N
  Mn3      1.0000 0.03865  0.70439  0.54383  Biso   1.000  Mn
  O5       1.0000 0.95220  0.77180  0.40510  Biso   1.000  O
  C11      1.0000 0.79140  0.46970  0.55370  Biso   1.000  C
  C12      1.0000 0.20180  0.64570  0.77550  Biso   1.000  C
  O6       1.0000 0.81440  0.75570  0.24650  Biso   1.000  O
  C13      1.0000 0.89180  0.73300  0.28020  Biso   1.000  C
  N9       1.0000 0.86530  0.65520  0.00420  Biso   1.000  N
  H15      1.0000 0.84890  0.59110  0.95050  Biso   1.000  H
  H16      1.0000 0.91610  0.71480  0.94510  Biso   1.000  H
  C14      1.0000 0.91100  0.65600  0.16720  Biso   1.000  C
  H17      1.0000 0.86580  0.57900  0.21080  Biso   1.000  H
  N10      1.0000 0.06200  0.63690  0.30700  Biso   1.000  N
  H18      1.0000 0.13460  0.65350  0.29950  Biso   1.000  H
  H19      1.0000 0.01830  0.56090  0.30760  Biso   1.000  H
  C15      1.0000 0.03380  0.68150  0.16100  Biso   1.000  C
  H20      1.0000 0.04500  0.64750  0.06370  Biso   1.000  H
  H21      1.0000 0.08440  0.76280  0.15460  Biso   1.000  H
  N11      1.0000 0.86940  0.55010  0.60350  Biso   1.000  N
  N12      1.0000 0.12940  0.63400  0.69160  Biso   1.000  N
  Mn4      1.0000 0.70439  0.66574  0.04383  Biso   1.000  Mn
  O7       1.0000 0.77180  0.81960  0.90510  Biso   1.000  O
  C16      1.0000 0.46970  0.67830  0.05370  Biso   1.000  C
  C17      1.0000 0.64570  0.44390  0.27550  Biso   1.000  C
  O8       1.0000 0.75570  0.94130  0.74650  Biso   1.000  O
  C18      1.0000 0.73300  0.84120  0.78020  Biso   1.000  C
  N13      1.0000 0.65520  0.78990  0.50420  Biso   1.000  N
  H22      1.0000 0.59110  0.74220  0.45050  Biso   1.000  H
  H23      1.0000 0.71480  0.79870  0.44510  Biso   1.000  H
  C19      1.0000 0.65600  0.74500  0.66720  Biso   1.000  C
  H24      1.0000 0.57900  0.71320  0.71080  Biso   1.000  H
  N14      1.0000 0.63690  0.57490  0.80700  Biso   1.000  N
  H25      1.0000 0.65350  0.51890  0.79950  Biso   1.000  H
  H26      1.0000 0.56090  0.54260  0.80760  Biso   1.000  H
  C20      1.0000 0.68150  0.64770  0.66100  Biso   1.000  C
  H27      1.0000 0.64750  0.60250  0.56370  Biso   1.000  H
  H28      1.0000 0.76280  0.67840  0.65460  Biso   1.000  H
  N15      1.0000 0.55010  0.68070  0.10350  Biso   1.000  N
  N16      1.0000 0.63400  0.50460  0.19160  Biso   1.000  N
  Mn5      1.0000 0.33426  0.03865  0.04383  Biso   1.000  Mn
  O9       1.0000 0.18040  0.95220  0.90510  Biso   1.000  O
  C21      1.0000 0.32170  0.79140  0.05370  Biso   1.000  C
  C22      1.0000 0.55610  0.20180  0.27550  Biso   1.000  C
  O10      1.0000 0.05870  0.81440  0.74650  Biso   1.000  O
  C23      1.0000 0.15880  0.89180  0.78020  Biso   1.000  C
  N17      1.0000 0.21010  0.86530  0.50420  Biso   1.000  N
  H29      1.0000 0.25780  0.84890  0.45050  Biso   1.000  H
  H30      1.0000 0.20130  0.91610  0.44510  Biso   1.000  H
  C24      1.0000 0.25500  0.91100  0.66720  Biso   1.000  C
  H31      1.0000 0.28680  0.86580  0.71080  Biso   1.000  H
  N18      1.0000 0.42510  0.06200  0.80700  Biso   1.000  N
  H32      1.0000 0.48110  0.13460  0.79950  Biso   1.000  H
  H33      1.0000 0.45740  0.01830  0.80760  Biso   1.000  H
  C25      1.0000 0.35230  0.03380  0.66100  Biso   1.000  C
  H34      1.0000 0.39750  0.04500  0.56370  Biso   1.000  H
  H35      1.0000 0.32160  0.08440  0.65460  Biso   1.000  H
  N19      1.0000 0.31930  0.86940  0.10350  Biso   1.000  N
  N20      1.0000 0.49540  0.12940  0.19160  Biso   1.000  N
  Mn6      1.0000 0.96135  0.29561  0.04383  Biso   1.000  Mn
  O11      1.0000 0.04780  0.22820  0.90510  Biso   1.000  O
  C26      1.0000 0.20860  0.53030  0.05370  Biso   1.000  C
  C27      1.0000 0.79820  0.35430  0.27550  Biso   1.000  C
  O12      1.0000 0.18560  0.24430  0.74650  Biso   1.000  O
  C28      1.0000 0.10820  0.26700  0.78020  Biso   1.000  C
  N21      1.0000 0.13470  0.34480  0.50420  Biso   1.000  N
  H36      1.0000 0.15110  0.40890  0.45050  Biso   1.000  H
  H37      1.0000 0.08390  0.28520  0.44510  Biso   1.000  H
  C29      1.0000 0.08900  0.34400  0.66720  Biso   1.000  C
  H38      1.0000 0.13420  0.42100  0.71080  Biso   1.000  H
  N22      1.0000 0.93800  0.36310  0.80700  Biso   1.000  N
  H39      1.0000 0.86540  0.34650  0.79950  Biso   1.000  H
  H40      1.0000 0.98170  0.43910  0.80760  Biso   1.000  H
  C30      1.0000 0.96620  0.31850  0.66100  Biso   1.000  C
  H41      1.0000 0.95500  0.35250  0.56370  Biso   1.000  H
  H42      1.0000 0.91560  0.23720  0.65460  Biso   1.000  H
  N23      1.0000 0.13060  0.44990  0.10350  Biso   1.000  N
  N24      1.0000 0.87060  0.36600  0.19160  Biso   1.000  N
  Cr1      1.0000 0.33333  0.66667  0.92457  Biso   1.000  Cr
  Cr2      1.0000 0.66667  0.33333  0.42457  Biso   1.000  Cr
