data_JAHNEM_clean
_audit_creation_date              2014-07-02
_audit_creation_method            'Materials Studio'
_symmetry_space_group_name_H-M    'P1'
_symmetry_Int_Tables_number       1
_symmetry_cell_setting            triclinic
loop_
_symmetry_equiv_pos_as_xyz
  x,y,z
_cell_length_a                    8.1530
_cell_length_b                    13.6802
_cell_length_c                    13.6802
_cell_angle_alpha                 120.0000
_cell_angle_beta                  90.0000
_cell_angle_gamma                 90.0000
loop_
_atom_site_label
_atom_site_type_symbol
_atom_site_fract_x
_atom_site_fract_y
_atom_site_fract_z
_atom_site_U_iso_or_equiv
_atom_site_adp_type
_atom_site_occupancy
Mn1    Mn    0.20692   0.33427   0.03788   0.01267  Uiso   1.00
Mn2    Mn    0.20692   0.70361   0.66573   0.01267  Uiso   1.00
Mn3    Mn    0.20692   0.96212   0.29639   0.01267  Uiso   1.00
Mn4    Mn    0.70692   0.66573   0.96212   0.01267  Uiso   1.00
Mn5    Mn    0.70692   0.29639   0.33427   0.01267  Uiso   1.00
Mn6    Mn    0.70692   0.03788   0.70361   0.01267  Uiso   1.00
Cr1    Cr    0.58960   0.66667   0.33334   0.01267  Uiso   1.00
Cr2    Cr    0.08960   0.33333   0.66666   0.01267  Uiso   1.00
H1     H     0.60950   0.25430   0.84810   0.01267  Uiso   1.00
H2     H     0.60580   0.19720   0.91420   0.01267  Uiso   1.00
H3     H     0.86920   0.28580   0.86600   0.01267  Uiso   1.00
H4     H     0.72410   0.39540   0.04340   0.01267  Uiso   1.00
H5     H     0.81630   0.32040   0.08280   0.01267  Uiso   1.00
H6     H     0.96020   0.48020   0.13320   0.01267  Uiso   1.00
H7     H     0.96860   0.45660   0.01720   0.01267  Uiso   1.00
H8     H     0.60950   0.59380   0.74570   0.01267  Uiso   1.00
H9     H     0.60580   0.71700   0.80280   0.01267  Uiso   1.00
H10    H     0.86920   0.58020   0.71420   0.01267  Uiso   1.00
H11    H     0.72410   0.64800   0.60460   0.01267  Uiso   1.00
H12    H     0.81630   0.76240   0.67960   0.01267  Uiso   1.00
H13    H     0.96020   0.65300   0.51980   0.01267  Uiso   1.00
H14    H     0.96860   0.56060   0.54340   0.01267  Uiso   1.00
H15    H     0.60950   0.15190   0.40620   0.01267  Uiso   1.00
H16    H     0.60580   0.08580   0.28300   0.01267  Uiso   1.00
H17    H     0.86920   0.13400   0.41980   0.01267  Uiso   1.00
H18    H     0.72410   0.95660   0.35200   0.01267  Uiso   1.00
H19    H     0.81630   0.91720   0.23760   0.01267  Uiso   1.00
H20    H     0.96020   0.86680   0.34700   0.01267  Uiso   1.00
H21    H     0.96860   0.98280   0.43940   0.01267  Uiso   1.00
H22    H     0.10950   0.74570   0.15190   0.01267  Uiso   1.00
H23    H     0.10580   0.80280   0.08580   0.01267  Uiso   1.00
H24    H     0.36920   0.71420   0.13400   0.01267  Uiso   1.00
H25    H     0.22410   0.60460   0.95660   0.01267  Uiso   1.00
H26    H     0.31630   0.67960   0.91720   0.01267  Uiso   1.00
H27    H     0.46020   0.51980   0.86680   0.01267  Uiso   1.00
H28    H     0.46860   0.54340   0.98280   0.01267  Uiso   1.00
H29    H     0.10950   0.40620   0.25430   0.01267  Uiso   1.00
H30    H     0.10580   0.28300   0.19720   0.01267  Uiso   1.00
H31    H     0.36920   0.41980   0.28580   0.01267  Uiso   1.00
H32    H     0.22410   0.35200   0.39540   0.01267  Uiso   1.00
H33    H     0.31630   0.23760   0.32040   0.01267  Uiso   1.00
H34    H     0.46020   0.34700   0.48020   0.01267  Uiso   1.00
H35    H     0.46860   0.43940   0.45660   0.01267  Uiso   1.00
H36    H     0.10950   0.84810   0.59380   0.01267  Uiso   1.00
H37    H     0.10580   0.91420   0.71700   0.01267  Uiso   1.00
H38    H     0.36920   0.86600   0.58020   0.01267  Uiso   1.00
H39    H     0.22410   0.04340   0.64800   0.01267  Uiso   1.00
H40    H     0.31630   0.08280   0.76240   0.01267  Uiso   1.00
H41    H     0.46020   0.13320   0.65300   0.01267  Uiso   1.00
H42    H     0.46860   0.01720   0.56060   0.01267  Uiso   1.00
C1     C     0.43910   0.55660   0.20260   0.01267  Uiso   1.00
C2     C     0.82660   0.25410   0.91120   0.01267  Uiso   1.00
C3     C     0.82210   0.35070   0.03220   0.01267  Uiso   1.00
C4     C     0.72110   0.67950   0.20980   0.01267  Uiso   1.00
C5     C     0.94480   0.15860   0.89200   0.01267  Uiso   1.00
C6     C     0.43910   0.64600   0.44340   0.01267  Uiso   1.00
C7     C     0.82660   0.65710   0.74590   0.01267  Uiso   1.00
C8     C     0.82210   0.68150   0.64930   0.01267  Uiso   1.00
C9     C     0.72110   0.53030   0.32050   0.01267  Uiso   1.00
C10    C     0.94480   0.73340   0.84140   0.01267  Uiso   1.00
C11    C     0.43910   0.79740   0.35400   0.01267  Uiso   1.00
C12    C     0.82660   0.08880   0.34290   0.01267  Uiso   1.00
C13    C     0.82210   0.96780   0.31850   0.01267  Uiso   1.00
C14    C     0.72110   0.79020   0.46970   0.01267  Uiso   1.00
C15    C     0.94480   0.10800   0.26660   0.01267  Uiso   1.00
C16    C     0.93910   0.44340   0.79740   0.01267  Uiso   1.00
C17    C     0.32660   0.74590   0.08880   0.01267  Uiso   1.00
C18    C     0.32210   0.64930   0.96780   0.01267  Uiso   1.00
C19    C     0.22110   0.32050   0.79020   0.01267  Uiso   1.00
C20    C     0.44480   0.84140   0.10800   0.01267  Uiso   1.00
C21    C     0.93910   0.35400   0.55660   0.01267  Uiso   1.00
C22    C     0.32660   0.34290   0.25410   0.01267  Uiso   1.00
C23    C     0.32210   0.31850   0.35070   0.01267  Uiso   1.00
C24    C     0.22110   0.46970   0.67950   0.01267  Uiso   1.00
C25    C     0.44480   0.26660   0.15860   0.01267  Uiso   1.00
C26    C     0.93910   0.20260   0.64600   0.01267  Uiso   1.00
C27    C     0.32660   0.91120   0.65710   0.01267  Uiso   1.00
C28    C     0.32210   0.03220   0.68150   0.01267  Uiso   1.00
C29    C     0.22110   0.20980   0.53030   0.01267  Uiso   1.00
C30    C     0.44480   0.89200   0.73340   0.01267  Uiso   1.00
N1     N     0.66470   0.20710   0.86420   0.01267  Uiso   1.00
N2     N     0.35360   0.49550   0.12940   0.01267  Uiso   1.00
N3     N     0.76880   0.68040   0.12990   0.01267  Uiso   1.00
N4     N     0.96820   0.42450   0.06080   0.01267  Uiso   1.00
N5     N     0.66470   0.65710   0.79290   0.01267  Uiso   1.00
N6     N     0.35360   0.63390   0.50450   0.01267  Uiso   1.00
N7     N     0.76880   0.44950   0.31960   0.01267  Uiso   1.00
N8     N     0.96820   0.63630   0.57550   0.01267  Uiso   1.00
N9     N     0.66470   0.13580   0.34290   0.01267  Uiso   1.00
N10    N     0.35360   0.87060   0.36610   0.01267  Uiso   1.00
N11    N     0.76880   0.87010   0.55050   0.01267  Uiso   1.00
N12    N     0.96820   0.93920   0.36370   0.01267  Uiso   1.00
N13    N     0.16470   0.79290   0.13580   0.01267  Uiso   1.00
N14    N     0.85360   0.50450   0.87060   0.01267  Uiso   1.00
N15    N     0.26880   0.31960   0.87010   0.01267  Uiso   1.00
N16    N     0.46820   0.57550   0.93920   0.01267  Uiso   1.00
N17    N     0.16470   0.34290   0.20710   0.01267  Uiso   1.00
N18    N     0.85360   0.36610   0.49550   0.01267  Uiso   1.00
N19    N     0.26880   0.55050   0.68040   0.01267  Uiso   1.00
N20    N     0.46820   0.36370   0.42450   0.01267  Uiso   1.00
N21    N     0.16470   0.86420   0.65710   0.01267  Uiso   1.00
N22    N     0.85360   0.12940   0.63390   0.01267  Uiso   1.00
N23    N     0.26880   0.12990   0.44950   0.01267  Uiso   1.00
N24    N     0.46820   0.06080   0.63630   0.01267  Uiso   1.00
O1     O     0.06640   0.17970   0.95220   0.01267  Uiso   1.00
O2     O     0.91030   0.05770   0.81310   0.01267  Uiso   1.00
O3     O     0.06640   0.77250   0.82030   0.01267  Uiso   1.00
O4     O     0.91030   0.75540   0.94230   0.01267  Uiso   1.00
O5     O     0.06640   0.04780   0.22750   0.01267  Uiso   1.00
O6     O     0.91030   0.18690   0.24460   0.01267  Uiso   1.00
O7     O     0.56640   0.82030   0.04780   0.01267  Uiso   1.00
O8     O     0.41030   0.94230   0.18690   0.01267  Uiso   1.00
O9     O     0.56640   0.22750   0.17970   0.01267  Uiso   1.00
O10    O     0.41030   0.24460   0.05770   0.01267  Uiso   1.00
O11    O     0.56640   0.95220   0.77250   0.01267  Uiso   1.00
O12    O     0.41030   0.81310   0.75540   0.01267  Uiso   1.00
