data_image0
_cell_length_a       13.6013
_cell_length_b       13.6013
_cell_length_c       8.1404
_cell_angle_alpha    90
_cell_angle_beta     90
_cell_angle_gamma    120

_symmetry_space_group_name_H-M    "P 1"
_symmetry_int_tables_number       1

loop_
  _symmetry_equiv_pos_as_xyz
  'x, y, z'

loop_
  _atom_site_label
  _atom_site_occupancy
  _atom_site_fract_x
  _atom_site_fract_y
  _atom_site_fract_z
  _atom_site_thermal_displace_type
  _atom_site_B_iso_or_equiv
  _atom_site_type_symbol
  Mn1      1.0000 0.29616  0.33503  0.54316  Biso   1.000  Mn
  O1       1.0000 0.22730  0.18090  0.40430  Biso   1.000  O
  C1       1.0000 0.52950  0.32080  0.55560  Biso   1.000  C
  C2       1.0000 0.35490  0.55640  0.77620  Biso   1.000  C
  O2       1.0000 0.24500  0.05850  0.24640  Biso   1.000  O
  C3       1.0000 0.26700  0.15890  0.27990  Biso   1.000  C
  N1       1.0000 0.34590  0.20980  0.00270  Biso   1.000  N
  H1       1.0000 0.41030  0.25750  0.94910  Biso   1.000  H
  H2       1.0000 0.28640  0.20110  0.94270  Biso   1.000  H
  C4       1.0000 0.34460  0.25490  0.16510  Biso   1.000  C
  H3       1.0000 0.42160  0.28680  0.20930  Biso   1.000  H
  N2       1.0000 0.36440  0.42650  0.30550  Biso   1.000  N
  H4       1.0000 0.34790  0.48270  0.29780  Biso   1.000  H
  H5       1.0000 0.44050  0.45850  0.30600  Biso   1.000  H
  C5       1.0000 0.31890  0.35280  0.15950  Biso   1.000  C
  H6       1.0000 0.35230  0.39760  0.06120  Biso   1.000  H
  H7       1.0000 0.23740  0.32190  0.15390  Biso   1.000  H
  N3       1.0000 0.44850  0.31870  0.60430  Biso   1.000  N
  N4       1.0000 0.36670  0.49550  0.69110  Biso   1.000  N
  Mn2      1.0000 0.66497  0.96113  0.54316  Biso   1.000  Mn
  O3       1.0000 0.81910  0.04640  0.40430  Biso   1.000  O
  C6       1.0000 0.67920  0.20870  0.55560  Biso   1.000  C
  C7       1.0000 0.44360  0.79850  0.77620  Biso   1.000  C
  O4       1.0000 0.94150  0.18650  0.24640  Biso   1.000  O
  C8       1.0000 0.84110  0.10810  0.27990  Biso   1.000  C
  N5       1.0000 0.79020  0.13610  0.00270  Biso   1.000  N
  H8       1.0000 0.74250  0.15280  0.94910  Biso   1.000  H
  H9       1.0000 0.79890  0.08530  0.94270  Biso   1.000  H
  C9       1.0000 0.74510  0.08970  0.16510  Biso   1.000  C
  H10      1.0000 0.71320  0.13480  0.20930  Biso   1.000  H
  N6       1.0000 0.57350  0.93790  0.30550  Biso   1.000  N
  H11      1.0000 0.51730  0.86520  0.29780  Biso   1.000  H
  H12      1.0000 0.54150  0.98200  0.30600  Biso   1.000  H
  C10      1.0000 0.64720  0.96610  0.15950  Biso   1.000  C
  H13      1.0000 0.60240  0.95470  0.06120  Biso   1.000  H
  H14      1.0000 0.67810  0.91550  0.15390  Biso   1.000  H
  N7       1.0000 0.68130  0.12980  0.60430  Biso   1.000  N
  N8       1.0000 0.50450  0.87120  0.69110  Biso   1.000  N
  Mn3      1.0000 0.03887  0.70384  0.54316  Biso   1.000  Mn
  O5       1.0000 0.95360  0.77270  0.40430  Biso   1.000  O
  C11      1.0000 0.79130  0.47050  0.55560  Biso   1.000  C
  C12      1.0000 0.20150  0.64510  0.77620  Biso   1.000  C
  O6       1.0000 0.81350  0.75500  0.24640  Biso   1.000  O
  C13      1.0000 0.89190  0.73300  0.27990  Biso   1.000  C
  N9       1.0000 0.86390  0.65410  0.00270  Biso   1.000  N
  H15      1.0000 0.84720  0.58970  0.94910  Biso   1.000  H
  H16      1.0000 0.91470  0.71360  0.94270  Biso   1.000  H
  C14      1.0000 0.91030  0.65540  0.16510  Biso   1.000  C
  H17      1.0000 0.86520  0.57840  0.20930  Biso   1.000  H
  N10      1.0000 0.06210  0.63560  0.30550  Biso   1.000  N
  H18      1.0000 0.13480  0.65210  0.29780  Biso   1.000  H
  H19      1.0000 0.01800  0.55950  0.30600  Biso   1.000  H
  C15      1.0000 0.03390  0.68110  0.15950  Biso   1.000  C
  H20      1.0000 0.04530  0.64770  0.06120  Biso   1.000  H
  H21      1.0000 0.08450  0.76260  0.15390  Biso   1.000  H
  N11      1.0000 0.87020  0.55150  0.60430  Biso   1.000  N
  N12      1.0000 0.12880  0.63330  0.69110  Biso   1.000  N
  Mn4      1.0000 0.70384  0.66497  0.04316  Biso   1.000  Mn
  O7       1.0000 0.77270  0.81910  0.90430  Biso   1.000  O
  C16      1.0000 0.47050  0.67920  0.05560  Biso   1.000  C
  C17      1.0000 0.64510  0.44360  0.27620  Biso   1.000  C
  O8       1.0000 0.75500  0.94150  0.74640  Biso   1.000  O
  C18      1.0000 0.73300  0.84110  0.77990  Biso   1.000  C
  N13      1.0000 0.65410  0.79020  0.50270  Biso   1.000  N
  H22      1.0000 0.58970  0.74250  0.44910  Biso   1.000  H
  H23      1.0000 0.71360  0.79890  0.44270  Biso   1.000  H
  C19      1.0000 0.65540  0.74510  0.66510  Biso   1.000  C
  H24      1.0000 0.57840  0.71320  0.70930  Biso   1.000  H
  N14      1.0000 0.63560  0.57350  0.80550  Biso   1.000  N
  H25      1.0000 0.65210  0.51730  0.79780  Biso   1.000  H
  H26      1.0000 0.55950  0.54150  0.80600  Biso   1.000  H
  C20      1.0000 0.68110  0.64720  0.65950  Biso   1.000  C
  H27      1.0000 0.64770  0.60240  0.56120  Biso   1.000  H
  H28      1.0000 0.76260  0.67810  0.65390  Biso   1.000  H
  N15      1.0000 0.55150  0.68130  0.10430  Biso   1.000  N
  N16      1.0000 0.63330  0.50450  0.19110  Biso   1.000  N
  Mn5      1.0000 0.33503  0.03887  0.04316  Biso   1.000  Mn
  O9       1.0000 0.18090  0.95360  0.90430  Biso   1.000  O
  C21      1.0000 0.32080  0.79130  0.05560  Biso   1.000  C
  C22      1.0000 0.55640  0.20150  0.27620  Biso   1.000  C
  O10      1.0000 0.05850  0.81350  0.74640  Biso   1.000  O
  C23      1.0000 0.15890  0.89190  0.77990  Biso   1.000  C
  N17      1.0000 0.20980  0.86390  0.50270  Biso   1.000  N
  H29      1.0000 0.25750  0.84720  0.44910  Biso   1.000  H
  H30      1.0000 0.20110  0.91470  0.44270  Biso   1.000  H
  C24      1.0000 0.25490  0.91030  0.66510  Biso   1.000  C
  H31      1.0000 0.28680  0.86520  0.70930  Biso   1.000  H
  N18      1.0000 0.42650  0.06210  0.80550  Biso   1.000  N
  H32      1.0000 0.48270  0.13480  0.79780  Biso   1.000  H
  H33      1.0000 0.45850  0.01800  0.80600  Biso   1.000  H
  C25      1.0000 0.35280  0.03390  0.65950  Biso   1.000  C
  H34      1.0000 0.39760  0.04530  0.56120  Biso   1.000  H
  H35      1.0000 0.32190  0.08450  0.65390  Biso   1.000  H
  N19      1.0000 0.31870  0.87020  0.10430  Biso   1.000  N
  N20      1.0000 0.49550  0.12880  0.19110  Biso   1.000  N
  Mn6      1.0000 0.96113  0.29616  0.04316  Biso   1.000  Mn
  O11      1.0000 0.04640  0.22730  0.90430  Biso   1.000  O
  C26      1.0000 0.20870  0.52950  0.05560  Biso   1.000  C
  C27      1.0000 0.79850  0.35490  0.27620  Biso   1.000  C
  O12      1.0000 0.18650  0.24500  0.74640  Biso   1.000  O
  C28      1.0000 0.10810  0.26700  0.77990  Biso   1.000  C
  N21      1.0000 0.13610  0.34590  0.50270  Biso   1.000  N
  H36      1.0000 0.15280  0.41030  0.44910  Biso   1.000  H
  H37      1.0000 0.08530  0.28640  0.44270  Biso   1.000  H
  C29      1.0000 0.08970  0.34460  0.66510  Biso   1.000  C
  H38      1.0000 0.13480  0.42160  0.70930  Biso   1.000  H
  N22      1.0000 0.93790  0.36440  0.80550  Biso   1.000  N
  H39      1.0000 0.86520  0.34790  0.79780  Biso   1.000  H
  H40      1.0000 0.98200  0.44050  0.80600  Biso   1.000  H
  C30      1.0000 0.96610  0.31890  0.65950  Biso   1.000  C
  H41      1.0000 0.95470  0.35230  0.56120  Biso   1.000  H
  H42      1.0000 0.91550  0.23740  0.65390  Biso   1.000  H
  N23      1.0000 0.12980  0.44850  0.10430  Biso   1.000  N
  N24      1.0000 0.87120  0.36670  0.19110  Biso   1.000  N
  Cr1      1.0000 0.33333  0.66667  0.92642  Biso   1.000  Cr
  Cr2      1.0000 0.66667  0.33333  0.42642  Biso   1.000  Cr
