data_JAHXUM_clean
_audit_creation_date              2014-07-02
_audit_creation_method            'Materials Studio'
_symmetry_space_group_name_H-M    'P1'
_symmetry_Int_Tables_number       1
_symmetry_cell_setting            triclinic
loop_
_symmetry_equiv_pos_as_xyz
  x,y,z
_cell_length_a                    14.3982
_cell_length_b                    15.0175
_cell_length_c                    24.6029
_cell_angle_alpha                 75.0846
_cell_angle_beta                  72.9856
_cell_angle_gamma                 61.3551
loop_
_atom_site_label
_atom_site_type_symbol
_atom_site_fract_x
_atom_site_fract_y
_atom_site_fract_z
_atom_site_U_iso_or_equiv
_atom_site_adp_type
_atom_site_occupancy
Gd1    Gd    0.85058   0.88326   0.68988   0.01267  Uiso   1.00
Gd2    Gd    0.25129   0.63251   0.69865   0.01267  Uiso   1.00
Gd3    Gd    0.42372   0.61674   0.81012   0.01267  Uiso   1.00
Gd4    Gd    0.58245   0.86749   0.80135   0.01267  Uiso   1.00
Gd5    Gd    0.14942   0.11674   0.31012   0.01267  Uiso   1.00
Gd6    Gd    0.74871   0.36749   0.30135   0.01267  Uiso   1.00
Gd7    Gd    0.57628   0.38326   0.18988   0.01267  Uiso   1.00
Gd8    Gd    0.41755   0.13251   0.19865   0.01267  Uiso   1.00
H1     H     0.99000   0.08770   0.71750   0.01267  Uiso   1.00
H2     H     0.07620   0.17190   0.73330   0.01267  Uiso   1.00
H3     H     0.23600   0.08130   0.76610   0.01267  Uiso   1.00
H4     H     0.22160   0.82010   0.76990   0.01267  Uiso   1.00
H5     H     0.69340   0.87140   0.53880   0.01267  Uiso   1.00
H6     H     0.59570   0.83080   0.49780   0.01267  Uiso   1.00
H7     H     0.47460   0.76900   0.55420   0.01267  Uiso   1.00
H8     H     0.54620   0.78790   0.69470   0.01267  Uiso   1.00
H9     H     0.59120   0.20980   0.63180   0.01267  Uiso   1.00
H10    H     0.46910   0.35630   0.58510   0.01267  Uiso   1.00
H11    H     0.52310   0.41510   0.49030   0.01267  Uiso   1.00
H12    H     0.82580   0.19900   0.49360   0.01267  Uiso   1.00
H13    H     0.77380   0.09700   0.75760   0.01267  Uiso   1.00
H14    H     0.79520   0.41230   0.78250   0.01267  Uiso   1.00
H15    H     0.98140   0.32810   0.76670   0.01267  Uiso   1.00
H16    H     0.08340   0.41870   0.73390   0.01267  Uiso   1.00
H17    H     0.81160   0.67990   0.73010   0.01267  Uiso   1.00
H18    H     0.10360   0.62860   0.96120   0.01267  Uiso   1.00
H19    H     0.92430   0.66920   0.00220   0.01267  Uiso   1.00
H20    H     0.79780   0.73100   0.94580   0.01267  Uiso   1.00
H21    H     0.02880   0.71210   0.80530   0.01267  Uiso   1.00
H22    H     0.43280   0.29020   0.86820   0.01267  Uiso   1.00
H23    H     0.41050   0.14370   0.91490   0.01267  Uiso   1.00
H24    H     0.42850   0.08490   0.00970   0.01267  Uiso   1.00
H25    H     0.51840   0.30100   0.00640   0.01267  Uiso   1.00
H26    H     0.62840   0.40300   0.74240   0.01267  Uiso   1.00
H27    H     0.01000   0.91230   0.28250   0.01267  Uiso   1.00
H28    H     0.92380   0.82810   0.26670   0.01267  Uiso   1.00
H29    H     0.76400   0.91870   0.23390   0.01267  Uiso   1.00
H30    H     0.77840   0.17990   0.23010   0.01267  Uiso   1.00
H31    H     0.30660   0.12860   0.46120   0.01267  Uiso   1.00
H32    H     0.40430   0.16920   0.50220   0.01267  Uiso   1.00
H33    H     0.52540   0.23100   0.44580   0.01267  Uiso   1.00
H34    H     0.45380   0.21210   0.30530   0.01267  Uiso   1.00
H35    H     0.40880   0.79020   0.36820   0.01267  Uiso   1.00
H36    H     0.53090   0.64370   0.41490   0.01267  Uiso   1.00
H37    H     0.47690   0.58490   0.50970   0.01267  Uiso   1.00
H38    H     0.17420   0.80100   0.50640   0.01267  Uiso   1.00
H39    H     0.22620   0.90300   0.24240   0.01267  Uiso   1.00
H40    H     0.20480   0.58770   0.21750   0.01267  Uiso   1.00
H41    H     0.01860   0.67190   0.23330   0.01267  Uiso   1.00
H42    H     0.91660   0.58130   0.26610   0.01267  Uiso   1.00
H43    H     0.18840   0.32010   0.26990   0.01267  Uiso   1.00
H44    H     0.89640   0.37140   0.03880   0.01267  Uiso   1.00
H45    H     0.07570   0.33080   0.99780   0.01267  Uiso   1.00
H46    H     0.20220   0.26900   0.05420   0.01267  Uiso   1.00
H47    H     0.97120   0.28790   0.19470   0.01267  Uiso   1.00
H48    H     0.56720   0.70980   0.13180   0.01267  Uiso   1.00
H49    H     0.58950   0.85630   0.08510   0.01267  Uiso   1.00
H50    H     0.57150   0.91510   0.99030   0.01267  Uiso   1.00
H51    H     0.48160   0.69900   0.99360   0.01267  Uiso   1.00
H52    H     0.37160   0.59700   0.25760   0.01267  Uiso   1.00
H53    H     0.77970   0.25000   0.75000   0.01267  Uiso   1.00
H54    H     0.45880   0.25000   0.75000   0.01267  Uiso   1.00
H55    H     0.22030   0.75000   0.25000   0.01267  Uiso   1.00
H56    H     0.54120   0.75000   0.25000   0.01267  Uiso   1.00
C1     C     0.05200   0.88610   0.72470   0.01267  Uiso   1.00
C2     C     0.09990   0.94400   0.74020   0.01267  Uiso   1.00
C3     C     0.05470   0.05040   0.73060   0.01267  Uiso   1.00
C4     C     0.10600   0.10090   0.74030   0.01267  Uiso   1.00
C5     C     0.20120   0.04670   0.76050   0.01267  Uiso   1.00
C6     C     0.24500   0.94040   0.77240   0.01267  Uiso   1.00
C7     C     0.19290   0.89100   0.76200   0.01267  Uiso   1.00
C8     C     0.34920   0.87730   0.79410   0.01267  Uiso   1.00
C9     C     0.69890   0.85200   0.64800   0.01267  Uiso   1.00
C10    C     0.63010   0.83320   0.62140   0.01267  Uiso   1.00
C11    C     0.64470   0.84640   0.56200   0.01267  Uiso   1.00
C12    C     0.58600   0.82200   0.53760   0.01267  Uiso   1.00
C13    C     0.51320   0.78530   0.57130   0.01267  Uiso   1.00
C14    C     0.49800   0.77240   0.63020   0.01267  Uiso   1.00
C15    C     0.55650   0.79650   0.65490   0.01267  Uiso   1.00
C16    C     0.41920   0.73310   0.66870   0.01267  Uiso   1.00
C17    C     0.80460   0.09750   0.59710   0.01267  Uiso   1.00
C18    C     0.72150   0.19010   0.56770   0.01267  Uiso   1.00
C19    C     0.61420   0.23630   0.59470   0.01267  Uiso   1.00
C20    C     0.54020   0.32300   0.56620   0.01267  Uiso   1.00
C21    C     0.57280   0.35910   0.50970   0.01267  Uiso   1.00
C22    C     0.67920   0.31180   0.48220   0.01267  Uiso   1.00
C23    C     0.75360   0.22890   0.51170   0.01267  Uiso   1.00
C24    C     0.71420   0.34600   0.41980   0.01267  Uiso   1.00
C25    C     0.60880   0.05730   0.76490   0.01267  Uiso   1.00
C26    C     0.61530   0.15710   0.75570   0.01267  Uiso   1.00
C27    C     0.71170   0.15820   0.75480   0.01267  Uiso   1.00
C28    C     0.66280   0.61390   0.77530   0.01267  Uiso   1.00
C29    C     0.78410   0.55600   0.75980   0.01267  Uiso   1.00
C30    C     0.83570   0.44960   0.76940   0.01267  Uiso   1.00
C31    C     0.94720   0.39910   0.75970   0.01267  Uiso   1.00
C32    C     0.00840   0.45330   0.73950   0.01267  Uiso   1.00
C33    C     0.95780   0.55960   0.72760   0.01267  Uiso   1.00
C34    C     0.84590   0.60900   0.73800   0.01267  Uiso   1.00
C35    C     0.02060   0.62270   0.70590   0.01267  Uiso   1.00
C36    C     0.19890   0.64800   0.85200   0.01267  Uiso   1.00
C37    C     0.08470   0.66680   0.87860   0.01267  Uiso   1.00
C38    C     0.05310   0.65360   0.93800   0.01267  Uiso   1.00
C39    C     0.94560   0.67800   0.96240   0.01267  Uiso   1.00
C40    C     0.86980   0.71470   0.92870   0.01267  Uiso   1.00
C41    C     0.90060   0.72760   0.86980   0.01267  Uiso   1.00
C42    C     0.00790   0.70350   0.84510   0.01267  Uiso   1.00
C43    C     0.82100   0.76690   0.83130   0.01267  Uiso   1.00
C44    C     0.49920   0.40250   0.90290   0.01267  Uiso   1.00
C45    C     0.47930   0.30990   0.93230   0.01267  Uiso   1.00
C46    C     0.44520   0.26370   0.90530   0.01267  Uiso   1.00
C47    C     0.42940   0.17700   0.93380   0.01267  Uiso   1.00
C48    C     0.44160   0.14090   0.99030   0.01267  Uiso   1.00
C49    C     0.47320   0.18820   0.01780   0.01267  Uiso   1.00
C50    C     0.49420   0.27110   0.98830   0.01267  Uiso   1.00
C51    C     0.48000   0.15400   0.08020   0.01267  Uiso   1.00
C52    C     0.43100   0.44270   0.73510   0.01267  Uiso   1.00
C53    C     0.52810   0.34290   0.74430   0.01267  Uiso   1.00
C54    C     0.62470   0.34180   0.74520   0.01267  Uiso   1.00
C55    C     0.94800   0.11390   0.27530   0.01267  Uiso   1.00
C56    C     0.90010   0.05600   0.25980   0.01267  Uiso   1.00
C57    C     0.94530   0.94960   0.26940   0.01267  Uiso   1.00
C58    C     0.89400   0.89910   0.25970   0.01267  Uiso   1.00
C59    C     0.79880   0.95330   0.23950   0.01267  Uiso   1.00
C60    C     0.75500   0.05960   0.22760   0.01267  Uiso   1.00
C61    C     0.80710   0.10900   0.23800   0.01267  Uiso   1.00
C62    C     0.65080   0.12270   0.20590   0.01267  Uiso   1.00
C63    C     0.30110   0.14800   0.35200   0.01267  Uiso   1.00
C64    C     0.36990   0.16680   0.37860   0.01267  Uiso   1.00
C65    C     0.35530   0.15360   0.43800   0.01267  Uiso   1.00
C66    C     0.41400   0.17800   0.46240   0.01267  Uiso   1.00
C67    C     0.48680   0.21470   0.42870   0.01267  Uiso   1.00
C68    C     0.50200   0.22760   0.36980   0.01267  Uiso   1.00
C69    C     0.44350   0.20350   0.34510   0.01267  Uiso   1.00
C70    C     0.58080   0.26690   0.33130   0.01267  Uiso   1.00
C71    C     0.19540   0.90250   0.40290   0.01267  Uiso   1.00
C72    C     0.27850   0.80990   0.43230   0.01267  Uiso   1.00
C73    C     0.38580   0.76370   0.40530   0.01267  Uiso   1.00
C74    C     0.45980   0.67700   0.43380   0.01267  Uiso   1.00
C75    C     0.42720   0.64090   0.49030   0.01267  Uiso   1.00
C76    C     0.32080   0.68820   0.51780   0.01267  Uiso   1.00
C77    C     0.24640   0.77110   0.48830   0.01267  Uiso   1.00
C78    C     0.28580   0.65400   0.58020   0.01267  Uiso   1.00
C79    C     0.39120   0.94270   0.23510   0.01267  Uiso   1.00
C80    C     0.38470   0.84290   0.24430   0.01267  Uiso   1.00
C81    C     0.28830   0.84180   0.24520   0.01267  Uiso   1.00
C82    C     0.33720   0.38610   0.22470   0.01267  Uiso   1.00
C83    C     0.21590   0.44400   0.24020   0.01267  Uiso   1.00
C84    C     0.16430   0.55040   0.23060   0.01267  Uiso   1.00
C85    C     0.05280   0.60090   0.24030   0.01267  Uiso   1.00
C86    C     0.99160   0.54670   0.26050   0.01267  Uiso   1.00
C87    C     0.04220   0.44040   0.27240   0.01267  Uiso   1.00
C88    C     0.15410   0.39100   0.26200   0.01267  Uiso   1.00
C89    C     0.97940   0.37730   0.29410   0.01267  Uiso   1.00
C90    C     0.80110   0.35200   0.14800   0.01267  Uiso   1.00
C91    C     0.91530   0.33320   0.12140   0.01267  Uiso   1.00
C92    C     0.94690   0.34640   0.06200   0.01267  Uiso   1.00
C93    C     0.05440   0.32200   0.03760   0.01267  Uiso   1.00
C94    C     0.13020   0.28530   0.07130   0.01267  Uiso   1.00
C95    C     0.09940   0.27240   0.13020   0.01267  Uiso   1.00
C96    C     0.99210   0.29650   0.15490   0.01267  Uiso   1.00
C97    C     0.17900   0.23310   0.16870   0.01267  Uiso   1.00
C98    C     0.50080   0.59750   0.09710   0.01267  Uiso   1.00
C99    C     0.52070   0.69010   0.06770   0.01267  Uiso   1.00
C100   C     0.55480   0.73630   0.09470   0.01267  Uiso   1.00
C101   C     0.57060   0.82300   0.06620   0.01267  Uiso   1.00
C102   C     0.55840   0.85910   0.00970   0.01267  Uiso   1.00
C103   C     0.52680   0.81180   0.98220   0.01267  Uiso   1.00
C104   C     0.50580   0.72890   0.01170   0.01267  Uiso   1.00
C105   C     0.52000   0.84600   0.91980   0.01267  Uiso   1.00
C106   C     0.56900   0.55730   0.26490   0.01267  Uiso   1.00
C107   C     0.47190   0.65710   0.25570   0.01267  Uiso   1.00
C108   C     0.37530   0.65820   0.25480   0.01267  Uiso   1.00
C109   C     0.71520   0.25000   0.75000   0.01267  Uiso   1.00
C110   C     0.52340   0.25000   0.75000   0.01267  Uiso   1.00
C111   C     0.28480   0.75000   0.25000   0.01267  Uiso   1.00
C112   C     0.47660   0.75000   0.25000   0.01267  Uiso   1.00
O1     O     0.95453   0.93323   0.72071   0.01267  Uiso   1.00
O2     O     0.11240   0.79459   0.71701   0.01267  Uiso   1.00
O3     O     0.36710   0.78810   0.81890   0.01267  Uiso   1.00
O4     O     0.41176   0.91829   0.78599   0.01267  Uiso   1.00
O5     O     0.67070   0.86411   0.70089   0.01267  Uiso   1.00
O6     O     0.78465   0.85367   0.61843   0.01267  Uiso   1.00
O7     O     0.35688   0.72345   0.64699   0.01267  Uiso   1.00
O8     O     0.41885   0.71463   0.72107   0.01267  Uiso   1.00
O9     O     0.77147   0.04852   0.64174   0.01267  Uiso   1.00
O10    O     0.90130   0.07500   0.57520   0.01267  Uiso   1.00
O11    O     0.80416   0.28660   0.39268   0.01267  Uiso   1.00
O12    O     0.65389   0.42934   0.39468   0.01267  Uiso   1.00
O13    O     0.69634   0.97384   0.76548   0.01267  Uiso   1.00
O14    O     0.51936   0.05565   0.77383   0.01267  Uiso   1.00
O15    O     0.60847   0.56677   0.77929   0.01267  Uiso   1.00
O16    O     0.62400   0.70541   0.78299   0.01267  Uiso   1.00
O17    O     0.97410   0.71190   0.68110   0.01267  Uiso   1.00
O18    O     0.11604   0.58171   0.71401   0.01267  Uiso   1.00
O19    O     0.23570   0.63589   0.79911   0.01267  Uiso   1.00
O20    O     0.25675   0.64633   0.88157   0.01267  Uiso   1.00
O21    O     0.72732   0.77655   0.85301   0.01267  Uiso   1.00
O22    O     0.85455   0.78537   0.77893   0.01267  Uiso   1.00
O23    O     0.46173   0.45148   0.85826   0.01267  Uiso   1.00
O24    O     0.55150   0.42500   0.92480   0.01267  Uiso   1.00
O25    O     0.48344   0.21340   0.10732   0.01267  Uiso   1.00
O26    O     0.47791   0.07066   0.10532   0.01267  Uiso   1.00
O27    O     0.43566   0.52616   0.73452   0.01267  Uiso   1.00
O28    O     0.34884   0.44435   0.72617   0.01267  Uiso   1.00
O29    O     0.04547   0.06677   0.27929   0.01267  Uiso   1.00
O30    O     0.88760   0.20541   0.28299   0.01267  Uiso   1.00
O31    O     0.63290   0.21190   0.18110   0.01267  Uiso   1.00
O32    O     0.58824   0.08171   0.21401   0.01267  Uiso   1.00
O33    O     0.32930   0.13589   0.29911   0.01267  Uiso   1.00
O34    O     0.21535   0.14633   0.38157   0.01267  Uiso   1.00
O35    O     0.64312   0.27655   0.35301   0.01267  Uiso   1.00
O36    O     0.58115   0.28537   0.27893   0.01267  Uiso   1.00
O37    O     0.22853   0.95148   0.35826   0.01267  Uiso   1.00
O38    O     0.09870   0.92500   0.42480   0.01267  Uiso   1.00
O39    O     0.19584   0.71340   0.60732   0.01267  Uiso   1.00
O40    O     0.34611   0.57066   0.60532   0.01267  Uiso   1.00
O41    O     0.30366   0.02616   0.23452   0.01267  Uiso   1.00
O42    O     0.48064   0.94435   0.22617   0.01267  Uiso   1.00
O43    O     0.39153   0.43323   0.22071   0.01267  Uiso   1.00
O44    O     0.37600   0.29459   0.21701   0.01267  Uiso   1.00
O45    O     0.02590   0.28810   0.31890   0.01267  Uiso   1.00
O46    O     0.88396   0.41829   0.28599   0.01267  Uiso   1.00
O47    O     0.76430   0.36411   0.20089   0.01267  Uiso   1.00
O48    O     0.74325   0.35367   0.11843   0.01267  Uiso   1.00
O49    O     0.27268   0.22345   0.14699   0.01267  Uiso   1.00
O50    O     0.14545   0.21463   0.22107   0.01267  Uiso   1.00
O51    O     0.53827   0.54852   0.14174   0.01267  Uiso   1.00
O52    O     0.44850   0.57500   0.07520   0.01267  Uiso   1.00
O53    O     0.51656   0.78660   0.89268   0.01267  Uiso   1.00
O54    O     0.52209   0.92934   0.89468   0.01267  Uiso   1.00
O55    O     0.56434   0.47384   0.26548   0.01267  Uiso   1.00
O56    O     0.65116   0.55565   0.27383   0.01267  Uiso   1.00
