data_image0
_cell_length_a       10.647
_cell_length_b       11.472
_cell_length_c       11.764
_cell_angle_alpha    104.778
_cell_angle_beta     106.935
_cell_angle_gamma    95.964

_symmetry_space_group_name_H-M    "P 1"
_symmetry_int_tables_number       1

loop_
  _symmetry_equiv_pos_as_xyz
  'x, y, z'

loop_
  _atom_site_label
  _atom_site_occupancy
  _atom_site_fract_x
  _atom_site_fract_y
  _atom_site_fract_z
  _atom_site_thermal_displace_type
  _atom_site_B_iso_or_equiv
  _atom_site_type_symbol
  Eu1      1.0000 0.89950  0.43986  0.12103  Biso   1.000  Eu
  O1       1.0000 0.74365  0.48339  0.22255  Biso   1.000  O
  O2       1.0000 0.80361  0.51520  0.42781  Biso   1.000  O
  O3       1.0000 0.05140  0.74347  0.80611  Biso   1.000  O
  O4       1.0000 0.17560  0.91506  0.95240  Biso   1.000  O
  H1       1.0000 0.23160  0.86360  0.97880  Biso   1.000  H
  O5       1.0000 0.90732  0.28804  0.94236  Biso   1.000  O
  O6       1.0000 0.03835  0.34681  0.84042  Biso   1.000  O
  O7       1.0000 0.12036  0.45979  0.12928  Biso   1.000  O
  O8       1.0000 0.26526  0.51221  0.04001  Biso   1.000  O
  C1       1.0000 0.71980  0.47840  0.32130  Biso   1.000  C
  C2       1.0000 0.57660  0.42810  0.30430  Biso   1.000  C
  C3       1.0000 0.54130  0.35170  0.37130  Biso   1.000  C
  C4       1.0000 0.40640  0.31970  0.35700  Biso   1.000  C
  H2       1.0000 0.38230  0.27070  0.40210  Biso   1.000  H
  C5       1.0000 0.30740  0.35850  0.27800  Biso   1.000  C
  H3       1.0000 0.21850  0.33770  0.27230  Biso   1.000  H
  C6       1.0000 0.34130  0.42880  0.20690  Biso   1.000  C
  C7       1.0000 0.47540  0.46200  0.22070  Biso   1.000  C
  H4       1.0000 0.49840  0.50830  0.17280  Biso   1.000  H
  C8       1.0000 0.23480  0.46970  0.11930  Biso   1.000  C
  C9       1.0000 0.63890  0.29700  0.45100  Biso   1.000  C
  C10      1.0000 0.72730  0.23210  0.40640  Biso   1.000  C
  H5       1.0000 0.73510  0.23250  0.32980  Biso   1.000  H
  C11      1.0000 0.80370  0.16680  0.47540  Biso   1.000  C
  H6       1.0000 0.85970  0.12160  0.44310  Biso   1.000  H
  C12      1.0000 0.79740  0.16830  0.59260  Biso   1.000  C
  C13      1.0000 0.71480  0.23820  0.63960  Biso   1.000  C
  H7       1.0000 0.71290  0.24400  0.71930  Biso   1.000  H
  C14      1.0000 0.63480  0.29950  0.56850  Biso   1.000  C
  H8       1.0000 0.57740  0.34320  0.60030  Biso   1.000  H
  C15      1.0000 0.87170  0.09050  0.66200  Biso   1.000  C
  C16      1.0000 0.86110  0.96610  0.60050  Biso   1.000  C
  H9       1.0000 0.80910  0.93420  0.51690  Biso   1.000  H
  C17      1.0000 0.92590  0.88980  0.66140  Biso   1.000  C
  H10      1.0000 0.91680  0.80740  0.61900  Biso   1.000  H
  C18      1.0000 0.00470  0.93680  0.78590  Biso   1.000  C
  C19      1.0000 0.01390  0.05920  0.84910  Biso   1.000  C
  H11      1.0000 0.06450  0.09010  0.93320  Biso   1.000  H
  C20      1.0000 0.94870  0.13630  0.78850  Biso   1.000  C
  C21      1.0000 0.96580  0.26874  0.86280  Biso   1.000  C
  C22      1.0000 0.07810  0.85530  0.84890  Biso   1.000  C
  Eu2      1.0000 0.10050  0.56014  0.87897  Biso   1.000  Eu
  O9       1.0000 0.25635  0.51661  0.77745  Biso   1.000  O
  O10      1.0000 0.19639  0.48480  0.57219  Biso   1.000  O
  O11      1.0000 0.94860  0.25653  0.19389  Biso   1.000  O
  O12      1.0000 0.82440  0.08494  0.04760  Biso   1.000  O
  H12      1.0000 0.76840  0.13640  0.02120  Biso   1.000  H
  O13      1.0000 0.09268  0.71196  0.05764  Biso   1.000  O
  O14      1.0000 0.96165  0.65319  0.15958  Biso   1.000  O
  O15      1.0000 0.87964  0.54021  0.87072  Biso   1.000  O
  O16      1.0000 0.73474  0.48779  0.95999  Biso   1.000  O
  C23      1.0000 0.28020  0.52160  0.67870  Biso   1.000  C
  C24      1.0000 0.42340  0.57190  0.69570  Biso   1.000  C
  C25      1.0000 0.45870  0.64830  0.62870  Biso   1.000  C
  C26      1.0000 0.59360  0.68030  0.64300  Biso   1.000  C
  H13      1.0000 0.61770  0.72930  0.59790  Biso   1.000  H
  C27      1.0000 0.69260  0.64150  0.72200  Biso   1.000  C
  H14      1.0000 0.78150  0.66230  0.72770  Biso   1.000  H
  C28      1.0000 0.65870  0.57120  0.79310  Biso   1.000  C
  C29      1.0000 0.52460  0.53800  0.77930  Biso   1.000  C
  H15      1.0000 0.50160  0.49170  0.82720  Biso   1.000  H
  C30      1.0000 0.76520  0.53030  0.88070  Biso   1.000  C
  C31      1.0000 0.36110  0.70300  0.54900  Biso   1.000  C
  C32      1.0000 0.27270  0.76790  0.59360  Biso   1.000  C
  H16      1.0000 0.26490  0.76750  0.67020  Biso   1.000  H
  C33      1.0000 0.19630  0.83320  0.52460  Biso   1.000  C
  H17      1.0000 0.14030  0.87840  0.55690  Biso   1.000  H
  C34      1.0000 0.20260  0.83170  0.40740  Biso   1.000  C
  C35      1.0000 0.28520  0.76180  0.36040  Biso   1.000  C
  H18      1.0000 0.28710  0.75600  0.28070  Biso   1.000  H
  C36      1.0000 0.36520  0.70050  0.43150  Biso   1.000  C
  H19      1.0000 0.42260  0.65680  0.39970  Biso   1.000  H
  C37      1.0000 0.12830  0.90950  0.33800  Biso   1.000  C
  C38      1.0000 0.13890  0.03390  0.39950  Biso   1.000  C
  H20      1.0000 0.19090  0.06580  0.48310  Biso   1.000  H
  C39      1.0000 0.07410  0.11020  0.33860  Biso   1.000  C
  H21      1.0000 0.08320  0.19260  0.38100  Biso   1.000  H
  C40      1.0000 0.99530  0.06320  0.21410  Biso   1.000  C
  C41      1.0000 0.98610  0.94080  0.15090  Biso   1.000  C
  H22      1.0000 0.93550  0.90990  0.06680  Biso   1.000  H
  C42      1.0000 0.05130  0.86370  0.21150  Biso   1.000  C
  C43      1.0000 0.03420  0.73126  0.13720  Biso   1.000  C
  C44      1.0000 0.92190  0.14470  0.15110  Biso   1.000  C
