data_image0
_cell_length_a       10.6201
_cell_length_b       11.402
_cell_length_c       11.713
_cell_angle_alpha    104.804
_cell_angle_beta     106.883
_cell_angle_gamma    95.881

_symmetry_space_group_name_H-M    "P 1"
_symmetry_int_tables_number       1

loop_
  _symmetry_equiv_pos_as_xyz
  'x, y, z'

loop_
  _atom_site_label
  _atom_site_occupancy
  _atom_site_fract_x
  _atom_site_fract_y
  _atom_site_fract_z
  _atom_site_thermal_displace_type
  _atom_site_B_iso_or_equiv
  _atom_site_type_symbol
  Tb1      1.0000 0.39941  0.43949  0.62077  Biso   1.000  Tb
  O1       1.0000 0.24391  0.48332  0.72066  Biso   1.000  O
  O2       1.0000 0.30382  0.51623  0.92639  Biso   1.000  O
  O3       1.0000 0.55259  0.74292  0.30778  Biso   1.000  O
  O4       1.0000 0.67750  0.91558  0.45365  Biso   1.000  O
  H1       1.0000 0.72580  0.86100  0.47960  Biso   1.000  H
  O5       1.0000 0.53866  0.34828  0.34033  Biso   1.000  O
  O6       1.0000 0.40719  0.28982  0.44267  Biso   1.000  O
  O7       1.0000 0.61880  0.45873  0.62988  Biso   1.000  O
  O8       1.0000 0.76257  0.51237  0.53918  Biso   1.000  O
  C1       1.0000 0.21998  0.47890  0.81974  Biso   1.000  C
  C2       1.0000 0.07619  0.42830  0.80281  Biso   1.000  C
  C3       1.0000 0.04159  0.35194  0.87045  Biso   1.000  C
  C4       1.0000 0.90607  0.31900  0.85640  Biso   1.000  C
  H2       1.0000 0.88240  0.26980  0.90200  Biso   1.000  H
  C5       1.0000 0.80653  0.35743  0.77692  Biso   1.000  C
  H3       1.0000 0.71740  0.33590  0.77080  Biso   1.000  H
  C6       1.0000 0.84039  0.42851  0.70612  Biso   1.000  C
  C7       1.0000 0.97480  0.46237  0.71918  Biso   1.000  C
  H4       1.0000 0.99730  0.50890  0.67090  Biso   1.000  H
  C8       1.0000 0.73283  0.46927  0.61897  Biso   1.000  C
  C9       1.0000 0.13962  0.29732  0.95038  Biso   1.000  C
  C10      1.0000 0.22820  0.23216  0.90584  Biso   1.000  C
  H5       1.0000 0.23610  0.23240  0.82890  Biso   1.000  H
  C11      1.0000 0.30450  0.16702  0.97521  Biso   1.000  C
  H6       1.0000 0.36090  0.12160  0.94300  Biso   1.000  H
  C12      1.0000 0.29784  0.16854  0.09292  Biso   1.000  C
  C13      1.0000 0.21490  0.23881  0.13982  Biso   1.000  C
  H7       1.0000 0.21290  0.24470  0.21990  Biso   1.000  H
  C14      1.0000 0.13474  0.30051  0.06874  Biso   1.000  C
  H8       1.0000 0.07710  0.34450  0.10040  Biso   1.000  H
  C15      1.0000 0.37234  0.09065  0.16264  Biso   1.000  C
  C16      1.0000 0.36160  0.96560  0.10137  Biso   1.000  C
  H9       1.0000 0.30960  0.93350  0.01740  Biso   1.000  H
  C17      1.0000 0.42590  0.88872  0.16197  Biso   1.000  C
  H10      1.0000 0.41630  0.80560  0.11960  Biso   1.000  H
  C18      1.0000 0.50523  0.93657  0.28713  Biso   1.000  C
  C19      1.0000 0.51475  0.06001  0.35056  Biso   1.000  C
  H11      1.0000 0.56570  0.09130  0.43480  Biso   1.000  H
  C20      1.0000 0.44890  0.13698  0.28930  Biso   1.000  C
  C21      1.0000 0.46636  0.27029  0.36340  Biso   1.000  C
  C22      1.0000 0.57920  0.85551  0.35025  Biso   1.000  C
  Tb2      1.0000 0.60059  0.56051  0.37923  Biso   1.000  Tb
  O9       1.0000 0.75609  0.51668  0.27934  Biso   1.000  O
  O10      1.0000 0.69618  0.48377  0.07361  Biso   1.000  O
  O11      1.0000 0.44741  0.25708  0.69222  Biso   1.000  O
  O12      1.0000 0.32250  0.08442  0.54635  Biso   1.000  O
  H12      1.0000 0.27420  0.13900  0.52040  Biso   1.000  H
  O13      1.0000 0.46134  0.65172  0.65967  Biso   1.000  O
  O14      1.0000 0.59281  0.71018  0.55733  Biso   1.000  O
  O15      1.0000 0.38120  0.54127  0.37012  Biso   1.000  O
  O16      1.0000 0.23743  0.48763  0.46082  Biso   1.000  O
  C23      1.0000 0.78002  0.52110  0.18026  Biso   1.000  C
  C24      1.0000 0.92381  0.57170  0.19719  Biso   1.000  C
  C25      1.0000 0.95841  0.64806  0.12955  Biso   1.000  C
  C26      1.0000 0.09393  0.68100  0.14360  Biso   1.000  C
  H13      1.0000 0.11760  0.73020  0.09800  Biso   1.000  H
  C27      1.0000 0.19347  0.64257  0.22308  Biso   1.000  C
  H14      1.0000 0.28260  0.66410  0.22920  Biso   1.000  H
  C28      1.0000 0.15961  0.57149  0.29388  Biso   1.000  C
  C29      1.0000 0.02520  0.53763  0.28082  Biso   1.000  C
  H15      1.0000 0.00270  0.49110  0.32910  Biso   1.000  H
  C30      1.0000 0.26717  0.53073  0.38103  Biso   1.000  C
  C31      1.0000 0.86038  0.70268  0.04962  Biso   1.000  C
  C32      1.0000 0.77180  0.76784  0.09416  Biso   1.000  C
  H16      1.0000 0.76390  0.76760  0.17110  Biso   1.000  H
  C33      1.0000 0.69550  0.83298  0.02479  Biso   1.000  C
  H17      1.0000 0.63910  0.87840  0.05700  Biso   1.000  H
  C34      1.0000 0.70216  0.83146  0.90708  Biso   1.000  C
  C35      1.0000 0.78510  0.76119  0.86018  Biso   1.000  C
  H18      1.0000 0.78710  0.75530  0.78010  Biso   1.000  H
  C36      1.0000 0.86526  0.69949  0.93126  Biso   1.000  C
  H19      1.0000 0.92290  0.65550  0.89960  Biso   1.000  H
  C37      1.0000 0.62766  0.90935  0.83736  Biso   1.000  C
  C38      1.0000 0.63840  0.03440  0.89863  Biso   1.000  C
  H20      1.0000 0.69040  0.06650  0.98260  Biso   1.000  H
  C39      1.0000 0.57410  0.11128  0.83803  Biso   1.000  C
  H21      1.0000 0.58370  0.19440  0.88040  Biso   1.000  H
  C40      1.0000 0.49477  0.06343  0.71287  Biso   1.000  C
  C41      1.0000 0.48525  0.93999  0.64944  Biso   1.000  C
  H22      1.0000 0.43430  0.90870  0.56520  Biso   1.000  H
  C42      1.0000 0.55110  0.86302  0.71070  Biso   1.000  C
  C43      1.0000 0.53364  0.72971  0.63660  Biso   1.000  C
  C44      1.0000 0.42080  0.14449  0.64975  Biso   1.000  C
