data_image0
_cell_length_a       10.559
_cell_length_b       11.371
_cell_length_c       11.671
_cell_angle_alpha    104.7
_cell_angle_beta     106.81
_cell_angle_gamma    96.127

_symmetry_space_group_name_H-M    "P 1"
_symmetry_int_tables_number       1

loop_
  _symmetry_equiv_pos_as_xyz
  'x, y, z'

loop_
  _atom_site_label
  _atom_site_occupancy
  _atom_site_fract_x
  _atom_site_fract_y
  _atom_site_fract_z
  _atom_site_thermal_displace_type
  _atom_site_B_iso_or_equiv
  _atom_site_type_symbol
  Dy1      1.0000 0.10058  0.56096  0.37931  Biso   1.000  Dy
  O1       1.0000 0.25566  0.51720  0.28020  Biso   1.000  O
  O2       1.0000 0.19622  0.48260  0.07423  Biso   1.000  O
  O3       1.0000 0.94681  0.25718  0.69171  Biso   1.000  O
  H1       1.0000 0.78710  0.13530  0.50660  Biso   1.000  H
  O4       1.0000 0.82250  0.08400  0.54570  Biso   1.000  O
  O5       1.0000 0.09289  0.70928  0.55690  Biso   1.000  O
  O6       1.0000 0.96132  0.65064  0.65969  Biso   1.000  O
  O7       1.0000 0.88195  0.54143  0.36967  Biso   1.000  O
  O8       1.0000 0.73867  0.48756  0.46148  Biso   1.000  O
  C1       1.0000 0.28003  0.52080  0.18098  Biso   1.000  C
  C2       1.0000 0.42391  0.57162  0.19763  Biso   1.000  C
  C3       1.0000 0.45850  0.64780  0.12990  Biso   1.000  C
  C4       1.0000 0.59400  0.68120  0.14400  Biso   1.000  C
  H2       1.0000 0.61790  0.73110  0.09870  Biso   1.000  H
  C5       1.0000 0.69410  0.64260  0.22330  Biso   1.000  C
  H3       1.0000 0.78360  0.66400  0.22880  Biso   1.000  H
  C6       1.0000 0.66024  0.57166  0.29461  Biso   1.000  C
  C7       1.0000 0.52580  0.53749  0.28145  Biso   1.000  C
  H4       1.0000 0.50300  0.49060  0.32980  Biso   1.000  H
  C8       1.0000 0.76817  0.53057  0.38129  Biso   1.000  C
  C9       1.0000 0.36060  0.70280  0.05020  Biso   1.000  C
  C10      1.0000 0.27150  0.76770  0.09440  Biso   1.000  C
  H5       1.0000 0.26340  0.76760  0.17160  Biso   1.000  H
  C11      1.0000 0.19510  0.83260  0.02470  Biso   1.000  C
  H6       1.0000 0.13820  0.87780  0.05690  Biso   1.000  H
  C12      1.0000 0.20180  0.83119  0.90729  Biso   1.000  C
  C13      1.0000 0.28520  0.76050  0.86010  Biso   1.000  C
  H7       1.0000 0.28700  0.75440  0.77960  Biso   1.000  H
  C14      1.0000 0.36540  0.69920  0.93160  Biso   1.000  C
  H8       1.0000 0.42330  0.65500  0.89990  Biso   1.000  H
  C15      1.0000 0.12750  0.90895  0.83738  Biso   1.000  C
  C16      1.0000 0.13860  0.03430  0.89840  Biso   1.000  C
  H9       1.0000 0.19130  0.06670  0.98240  Biso   1.000  H
  C17      1.0000 0.07390  0.11130  0.83760  Biso   1.000  C
  H10      1.0000 0.08320  0.19450  0.88000  Biso   1.000  H
  C18      1.0000 0.99480  0.06319  0.71260  Biso   1.000  C
  C19      1.0000 0.98530  0.93983  0.64943  Biso   1.000  C
  H11      1.0000 0.93430  0.90850  0.56480  Biso   1.000  H
  C20      1.0000 0.05082  0.86267  0.71059  Biso   1.000  C
  C21      1.0000 0.03371  0.72883  0.63653  Biso   1.000  C
  C22      1.0000 0.92030  0.14460  0.64940  Biso   1.000  C
  Dy2      1.0000 0.89942  0.43904  0.62069  Biso   1.000  Dy
  O9       1.0000 0.74434  0.48280  0.71980  Biso   1.000  O
  O10      1.0000 0.80378  0.51740  0.92577  Biso   1.000  O
  O11      1.0000 0.05319  0.74282  0.30829  Biso   1.000  O
  H12      1.0000 0.21290  0.86470  0.49340  Biso   1.000  H
  O12      1.0000 0.17750  0.91600  0.45430  Biso   1.000  O
  O13      1.0000 0.90711  0.29072  0.44310  Biso   1.000  O
  O14      1.0000 0.03868  0.34936  0.34031  Biso   1.000  O
  O15      1.0000 0.11805  0.45857  0.63033  Biso   1.000  O
  O16      1.0000 0.26133  0.51244  0.53852  Biso   1.000  O
  C23      1.0000 0.71997  0.47920  0.81902  Biso   1.000  C
  C24      1.0000 0.57609  0.42838  0.80237  Biso   1.000  C
  C25      1.0000 0.54150  0.35220  0.87010  Biso   1.000  C
  C26      1.0000 0.40600  0.31880  0.85600  Biso   1.000  C
  H13      1.0000 0.38210  0.26890  0.90130  Biso   1.000  H
  C27      1.0000 0.30590  0.35740  0.77670  Biso   1.000  C
  H14      1.0000 0.21640  0.33600  0.77120  Biso   1.000  H
  C28      1.0000 0.33976  0.42834  0.70539  Biso   1.000  C
  C29      1.0000 0.47420  0.46251  0.71855  Biso   1.000  C
  H15      1.0000 0.49700  0.50940  0.67020  Biso   1.000  H
  C30      1.0000 0.23183  0.46943  0.61871  Biso   1.000  C
  C31      1.0000 0.63940  0.29720  0.94980  Biso   1.000  C
  C32      1.0000 0.72850  0.23230  0.90560  Biso   1.000  C
  H16      1.0000 0.73660  0.23240  0.82840  Biso   1.000  H
  C33      1.0000 0.80490  0.16740  0.97530  Biso   1.000  C
  H17      1.0000 0.86180  0.12220  0.94310  Biso   1.000  H
  C34      1.0000 0.79820  0.16881  0.09271  Biso   1.000  C
  C35      1.0000 0.71480  0.23950  0.13990  Biso   1.000  C
  H18      1.0000 0.71300  0.24560  0.22040  Biso   1.000  H
  C36      1.0000 0.63460  0.30080  0.06840  Biso   1.000  C
  H19      1.0000 0.57670  0.34500  0.10010  Biso   1.000  H
  C37      1.0000 0.87250  0.09105  0.16262  Biso   1.000  C
  C38      1.0000 0.86140  0.96570  0.10160  Biso   1.000  C
  H20      1.0000 0.80870  0.93330  0.01760  Biso   1.000  H
  C39      1.0000 0.92610  0.88870  0.16240  Biso   1.000  C
  H21      1.0000 0.91680  0.80550  0.12000  Biso   1.000  H
  C40      1.0000 0.00520  0.93681  0.28740  Biso   1.000  C
  C41      1.0000 0.01470  0.06017  0.35057  Biso   1.000  C
  H22      1.0000 0.06570  0.09150  0.43520  Biso   1.000  H
  C42      1.0000 0.94918  0.13733  0.28941  Biso   1.000  C
  C43      1.0000 0.96629  0.27117  0.36347  Biso   1.000  C
  C44      1.0000 0.07970  0.85540  0.35060  Biso   1.000  C
