data_image0
_cell_length_a       10.496
_cell_length_b       12.396
_cell_length_c       16.254
_cell_angle_alpha    90
_cell_angle_beta     90
_cell_angle_gamma    90

_symmetry_space_group_name_H-M    "P 1"
_symmetry_int_tables_number       1

loop_
  _symmetry_equiv_pos_as_xyz
  'x, y, z'

loop_
  _atom_site_label
  _atom_site_occupancy
  _atom_site_fract_x
  _atom_site_fract_y
  _atom_site_fract_z
  _atom_site_thermal_displace_type
  _atom_site_B_iso_or_equiv
  _atom_site_type_symbol
  C1       1.0000 0.32890  0.10540  0.98440  Biso   1.000  C
  C2       1.0000 0.35250  0.06290  0.11870  Biso   1.000  C
  C3       1.0000 0.08620  0.83800  0.83420  Biso   1.000  C
  C4       1.0000 0.00420  0.69980  0.75990  Biso   1.000  C
  C5       1.0000 0.44390  0.85810  0.81880  Biso   1.000  C
  C6       1.0000 0.58210  0.71860  0.79400  Biso   1.000  C
  Mn1      1.0000 0.22651  0.04889  0.79988  Biso   1.000  Mn
  N1       1.0000 0.28120  0.10980  0.92240  Biso   1.000  N
  N2       1.0000 0.39090  0.11260  0.05240  Biso   1.000  N
  N3       1.0000 0.32850  0.02290  0.17850  Biso   1.000  N
  N4       1.0000 0.09750  0.92390  0.85710  Biso   1.000  N
  N5       1.0000 0.08650  0.73610  0.81270  Biso   1.000  N
  N6       1.0000 0.93750  0.66010  0.71310  Biso   1.000  N
  N7       1.0000 0.38320  0.92900  0.80870  Biso   1.000  N
  N8       1.0000 0.51650  0.77870  0.84420  Biso   1.000  N
  N9       1.0000 0.64640  0.66530  0.76020  Biso   1.000  N
  C7       1.0000 0.17110  0.89460  0.48440  Biso   1.000  C
  C8       1.0000 0.14750  0.93710  0.61870  Biso   1.000  C
  C9       1.0000 0.41380  0.16200  0.33420  Biso   1.000  C
  C10      1.0000 0.49580  0.30020  0.25990  Biso   1.000  C
  C11      1.0000 0.05610  0.14190  0.31880  Biso   1.000  C
  C12      1.0000 0.91790  0.28140  0.29400  Biso   1.000  C
  Mn2      1.0000 0.27349  0.95111  0.29988  Biso   1.000  Mn
  N10      1.0000 0.21880  0.89020  0.42240  Biso   1.000  N
  N11      1.0000 0.10910  0.88740  0.55240  Biso   1.000  N
  N12      1.0000 0.17150  0.97710  0.67850  Biso   1.000  N
  N13      1.0000 0.40250  0.07610  0.35710  Biso   1.000  N
  N14      1.0000 0.41350  0.26390  0.31270  Biso   1.000  N
  N15      1.0000 0.56250  0.33990  0.21310  Biso   1.000  N
  N16      1.0000 0.11680  0.07100  0.30870  Biso   1.000  N
  N17      1.0000 0.98350  0.22130  0.34420  Biso   1.000  N
  N18      1.0000 0.85360  0.33470  0.26020  Biso   1.000  N
  C13      1.0000 0.67110  0.60540  0.51560  Biso   1.000  C
  C14      1.0000 0.64750  0.56290  0.38130  Biso   1.000  C
  C15      1.0000 0.91380  0.33800  0.66580  Biso   1.000  C
  C16      1.0000 0.99580  0.19980  0.74010  Biso   1.000  C
  C17      1.0000 0.55610  0.35810  0.68120  Biso   1.000  C
  C18      1.0000 0.41790  0.21860  0.70600  Biso   1.000  C
  Mn3      1.0000 0.77349  0.54889  0.70012  Biso   1.000  Mn
  N19      1.0000 0.71880  0.60980  0.57760  Biso   1.000  N
  N20      1.0000 0.60910  0.61260  0.44760  Biso   1.000  N
  N21      1.0000 0.67150  0.52290  0.32150  Biso   1.000  N
  N22      1.0000 0.90250  0.42390  0.64290  Biso   1.000  N
  N23      1.0000 0.91350  0.23610  0.68730  Biso   1.000  N
  N24      1.0000 0.06250  0.16010  0.78690  Biso   1.000  N
  N25      1.0000 0.61680  0.42900  0.69130  Biso   1.000  N
  N26      1.0000 0.48350  0.27870  0.65580  Biso   1.000  N
  N27      1.0000 0.35360  0.16530  0.73980  Biso   1.000  N
  C19      1.0000 0.82890  0.39460  0.01560  Biso   1.000  C
  C20      1.0000 0.85250  0.43710  0.88130  Biso   1.000  C
  C21      1.0000 0.58620  0.66200  0.16580  Biso   1.000  C
  C22      1.0000 0.50420  0.80020  0.24010  Biso   1.000  C
  C23      1.0000 0.94390  0.64190  0.18120  Biso   1.000  C
  C24      1.0000 0.08210  0.78140  0.20600  Biso   1.000  C
  Mn4      1.0000 0.72651  0.45111  0.20012  Biso   1.000  Mn
  N28      1.0000 0.78120  0.39020  0.07760  Biso   1.000  N
  N29      1.0000 0.89090  0.38740  0.94760  Biso   1.000  N
  N30      1.0000 0.82850  0.47710  0.82150  Biso   1.000  N
  N31      1.0000 0.59750  0.57610  0.14290  Biso   1.000  N
  N32      1.0000 0.58650  0.76390  0.18730  Biso   1.000  N
  N33      1.0000 0.43750  0.83990  0.28690  Biso   1.000  N
  N34      1.0000 0.88320  0.57100  0.19130  Biso   1.000  N
  N35      1.0000 0.01650  0.72130  0.15580  Biso   1.000  N
  N36      1.0000 0.14640  0.83470  0.23980  Biso   1.000  N
