data_image0
_cell_length_a       10.098
_cell_length_b       12.156
_cell_length_c       17.119
_cell_angle_alpha    90
_cell_angle_beta     96.32
_cell_angle_gamma    90

_symmetry_space_group_name_H-M    "P 1"
_symmetry_int_tables_number       1

loop_
  _symmetry_equiv_pos_as_xyz
  'x, y, z'

loop_
  _atom_site_label
  _atom_site_occupancy
  _atom_site_fract_x
  _atom_site_fract_y
  _atom_site_fract_z
  _atom_site_thermal_displace_type
  _atom_site_B_iso_or_equiv
  _atom_site_type_symbol
  Mn1      1.0000 0.73110  0.77455  0.21230  Biso   1.000  Mn
  C1       1.0000 0.65260  0.03730  0.19286  Biso   1.000  C
  C2       1.0000 0.82260  0.51310  0.25089  Biso   1.000  C
  C3       1.0000 0.96250  0.36960  0.27910  Biso   1.000  C
  C4       1.0000 0.75860  0.83860  0.40331  Biso   1.000  C
  N1       1.0000 0.67360  0.94640  0.18471  Biso   1.000  N
  N2       1.0000 0.79150  0.60190  0.23928  Biso   1.000  N
  C5       1.0000 0.55000  0.18580  0.23658  Biso   1.000  C
  N3       1.0000 0.63730  0.14330  0.19520  Biso   1.000  N
  N4       1.0000 0.84340  0.40910  0.26420  Biso   1.000  N
  N5       1.0000 0.75710  0.81610  0.33947  Biso   1.000  N
  N6       1.0000 0.76700  0.87570  0.47431  Biso   1.000  N
  N7       1.0000 0.05920  0.32410  0.29390  Biso   1.000  N
  N8       1.0000 0.47860  0.23110  0.27260  Biso   1.000  N
  C6       1.0000 0.73180  0.81660  0.53167  Biso   1.000  C
  N9       1.0000 0.70530  0.77470  0.58670  Biso   1.000  N
  Mn2      1.0000 0.26890  0.27455  0.28770  Biso   1.000  Mn
  C7       1.0000 0.34740  0.53730  0.30714  Biso   1.000  C
  C8       1.0000 0.17740  0.01310  0.24911  Biso   1.000  C
  C9       1.0000 0.03750  0.86960  0.22090  Biso   1.000  C
  C10      1.0000 0.24140  0.33860  0.09669  Biso   1.000  C
  N10      1.0000 0.32640  0.44640  0.31529  Biso   1.000  N
  N11      1.0000 0.20850  0.10190  0.26072  Biso   1.000  N
  C11      1.0000 0.45000  0.68580  0.26342  Biso   1.000  C
  N12      1.0000 0.36270  0.64330  0.30480  Biso   1.000  N
  N13      1.0000 0.15660  0.90910  0.23580  Biso   1.000  N
  N14      1.0000 0.24290  0.31610  0.16053  Biso   1.000  N
  N15      1.0000 0.23300  0.37570  0.02569  Biso   1.000  N
  N16      1.0000 0.94080  0.82410  0.20610  Biso   1.000  N
  N17      1.0000 0.52140  0.73110  0.22740  Biso   1.000  N
  C12      1.0000 0.26820  0.31660  0.96833  Biso   1.000  C
  N18      1.0000 0.29470  0.27470  0.91330  Biso   1.000  N
  Mn3      1.0000 0.26890  0.22545  0.78770  Biso   1.000  Mn
  C13      1.0000 0.34740  0.96270  0.80714  Biso   1.000  C
  C14      1.0000 0.17740  0.48690  0.74911  Biso   1.000  C
  C15      1.0000 0.03750  0.63040  0.72090  Biso   1.000  C
  C16      1.0000 0.24140  0.16140  0.59669  Biso   1.000  C
  N19      1.0000 0.32640  0.05360  0.81529  Biso   1.000  N
  N20      1.0000 0.20850  0.39810  0.76072  Biso   1.000  N
  C17      1.0000 0.45000  0.81420  0.76342  Biso   1.000  C
  N21      1.0000 0.36270  0.85670  0.80480  Biso   1.000  N
  N22      1.0000 0.15660  0.59090  0.73580  Biso   1.000  N
  N23      1.0000 0.24290  0.18390  0.66053  Biso   1.000  N
  N24      1.0000 0.23300  0.12430  0.52569  Biso   1.000  N
  N25      1.0000 0.94080  0.67590  0.70610  Biso   1.000  N
  N26      1.0000 0.52140  0.76890  0.72740  Biso   1.000  N
  C18      1.0000 0.26820  0.18340  0.46833  Biso   1.000  C
  N27      1.0000 0.29470  0.22530  0.41330  Biso   1.000  N
  Mn4      1.0000 0.73110  0.72545  0.71230  Biso   1.000  Mn
  C19      1.0000 0.65260  0.46270  0.69286  Biso   1.000  C
  C20      1.0000 0.82260  0.98690  0.75089  Biso   1.000  C
  C21      1.0000 0.96250  0.13040  0.77910  Biso   1.000  C
  C22      1.0000 0.75860  0.66140  0.90331  Biso   1.000  C
  N28      1.0000 0.67360  0.55360  0.68471  Biso   1.000  N
  N29      1.0000 0.79150  0.89810  0.73928  Biso   1.000  N
  C23      1.0000 0.55000  0.31420  0.73658  Biso   1.000  C
  N30      1.0000 0.63730  0.35670  0.69520  Biso   1.000  N
  N31      1.0000 0.84340  0.09090  0.76420  Biso   1.000  N
  N32      1.0000 0.75710  0.68390  0.83947  Biso   1.000  N
  N33      1.0000 0.76700  0.62430  0.97431  Biso   1.000  N
  N34      1.0000 0.05920  0.17590  0.79390  Biso   1.000  N
  N35      1.0000 0.47860  0.26890  0.77260  Biso   1.000  N
  C24      1.0000 0.73180  0.68340  0.03167  Biso   1.000  C
  N36      1.0000 0.70530  0.72530  0.08670  Biso   1.000  N
