data_image0
_cell_length_a       10.694
_cell_length_b       12.092
_cell_length_c       16.108
_cell_angle_alpha    90
_cell_angle_beta     90
_cell_angle_gamma    90

_symmetry_space_group_name_H-M    "P 1"
_symmetry_int_tables_number       1

loop_
  _symmetry_equiv_pos_as_xyz
  'x, y, z'

loop_
  _atom_site_label
  _atom_site_occupancy
  _atom_site_fract_x
  _atom_site_fract_y
  _atom_site_fract_z
  _atom_site_thermal_displace_type
  _atom_site_B_iso_or_equiv
  _atom_site_type_symbol
  C1       1.0000 0.16700  0.60790  0.01130  Biso   1.000  C
  C2       1.0000 0.41710  0.34000  0.16100  Biso   1.000  C
  N1       1.0000 0.12380  0.42790  0.18710  Biso   1.000  N
  N2       1.0000 0.40270  0.42680  0.13490  Biso   1.000  N
  N3       1.0000 0.21470  0.61730  0.07300  Biso   1.000  N
  Mn1      1.0000 0.27545  0.55427  0.19451  Biso   1.000  Mn
  N4       1.0000 0.42130  0.23780  0.18640  Biso   1.000  N
  N5       1.0000 0.10140  0.60730  0.94350  Biso   1.000  N
  N6       1.0000 0.00190  0.26680  0.15920  Biso   1.000  N
  C3       1.0000 0.06410  0.35480  0.17960  Biso   1.000  C
  C4       1.0000 0.92150  0.21860  0.20980  Biso   1.000  C
  N7       1.0000 0.85160  0.17060  0.24340  Biso   1.000  N
  N8       1.0000 0.16840  0.51760  0.81610  Biso   1.000  N
  C5       1.0000 0.14240  0.55750  0.87680  Biso   1.000  C
  N9       1.0000 0.56520  0.17000  0.29310  Biso   1.000  N
  C6       1.0000 0.50130  0.20670  0.24210  Biso   1.000  C
  C7       1.0000 0.33300  0.39210  0.51130  Biso   1.000  C
  C8       1.0000 0.08290  0.66000  0.66100  Biso   1.000  C
  N10      1.0000 0.37620  0.57210  0.68710  Biso   1.000  N
  N11      1.0000 0.09730  0.57320  0.63490  Biso   1.000  N
  N12      1.0000 0.28530  0.38270  0.57300  Biso   1.000  N
  Mn2      1.0000 0.22455  0.44573  0.69451  Biso   1.000  Mn
  N13      1.0000 0.07870  0.76220  0.68640  Biso   1.000  N
  N14      1.0000 0.39860  0.39270  0.44350  Biso   1.000  N
  N15      1.0000 0.49810  0.73320  0.65920  Biso   1.000  N
  C9       1.0000 0.43590  0.64520  0.67960  Biso   1.000  C
  C10      1.0000 0.57850  0.78140  0.70980  Biso   1.000  C
  N16      1.0000 0.64840  0.82940  0.74340  Biso   1.000  N
  N17      1.0000 0.33160  0.48240  0.31610  Biso   1.000  N
  C11      1.0000 0.35760  0.44250  0.37680  Biso   1.000  C
  N18      1.0000 0.93480  0.83000  0.79310  Biso   1.000  N
  C12      1.0000 0.99870  0.79330  0.74210  Biso   1.000  C
  C13      1.0000 0.83300  0.10790  0.48870  Biso   1.000  C
  C14      1.0000 0.58290  0.84000  0.33900  Biso   1.000  C
  N19      1.0000 0.87620  0.92790  0.31290  Biso   1.000  N
  N20      1.0000 0.59730  0.92680  0.36510  Biso   1.000  N
  N21      1.0000 0.78530  0.11730  0.42700  Biso   1.000  N
  Mn3      1.0000 0.72455  0.05427  0.30549  Biso   1.000  Mn
  N22      1.0000 0.57870  0.73780  0.31360  Biso   1.000  N
  N23      1.0000 0.89860  0.10730  0.55650  Biso   1.000  N
  N24      1.0000 0.99810  0.76680  0.34080  Biso   1.000  N
  C15      1.0000 0.93590  0.85480  0.32040  Biso   1.000  C
  C16      1.0000 0.07850  0.71860  0.29020  Biso   1.000  C
  N25      1.0000 0.14840  0.67060  0.25660  Biso   1.000  N
  N26      1.0000 0.83160  0.01760  0.68390  Biso   1.000  N
  C17      1.0000 0.85760  0.05750  0.62320  Biso   1.000  C
  N27      1.0000 0.43480  0.67000  0.20690  Biso   1.000  N
  C18      1.0000 0.49870  0.70670  0.25790  Biso   1.000  C
  C19      1.0000 0.66700  0.89210  0.98870  Biso   1.000  C
  C20      1.0000 0.91710  0.16000  0.83900  Biso   1.000  C
  N28      1.0000 0.62380  0.07210  0.81290  Biso   1.000  N
  N29      1.0000 0.90270  0.07320  0.86510  Biso   1.000  N
  N30      1.0000 0.71470  0.88270  0.92700  Biso   1.000  N
  Mn4      1.0000 0.77545  0.94573  0.80549  Biso   1.000  Mn
  N31      1.0000 0.92130  0.26220  0.81360  Biso   1.000  N
  N32      1.0000 0.60140  0.89270  0.05650  Biso   1.000  N
  N33      1.0000 0.50190  0.23320  0.84080  Biso   1.000  N
  C21      1.0000 0.56410  0.14520  0.82040  Biso   1.000  C
  C22      1.0000 0.42150  0.28140  0.79020  Biso   1.000  C
  N34      1.0000 0.35160  0.32940  0.75660  Biso   1.000  N
  N35      1.0000 0.66840  0.98240  0.18390  Biso   1.000  N
  C23      1.0000 0.64240  0.94250  0.12320  Biso   1.000  C
  N36      1.0000 0.06520  0.33000  0.70690  Biso   1.000  N
  C24      1.0000 0.00130  0.29330  0.75790  Biso   1.000  C
