data_image0
_cell_length_a       17.4722
_cell_length_b       17.4722
_cell_length_c       14.4508
_cell_angle_alpha    90
_cell_angle_beta     90
_cell_angle_gamma    90

_symmetry_space_group_name_H-M    "P 1"
_symmetry_int_tables_number       1

loop_
  _symmetry_equiv_pos_as_xyz
  'x, y, z'

loop_
  _atom_site_label
  _atom_site_occupancy
  _atom_site_fract_x
  _atom_site_fract_y
  _atom_site_fract_z
  _atom_site_thermal_displace_type
  _atom_site_B_iso_or_equiv
  _atom_site_type_symbol
  Pb1      1.0000 0.03376  0.87644  0.39710  Biso   1.000  Pb
  Pb2      1.0000 0.59636  0.58766  0.25793  Biso   1.000  Pb
  O1       1.0000 0.09240  0.98940  0.41690  Biso   1.000  O
  O2       1.0000 0.12340  0.08750  0.50600  Biso   1.000  O
  O3       1.0000 0.95950  0.06070  0.11780  Biso   1.000  O
  O4       1.0000 0.02450  0.14380  0.03310  Biso   1.000  O
  O5       1.0000 0.16160  0.30160  0.28360  Biso   1.000  O
  O6       1.0000 0.94120  0.79490  0.33730  Biso   1.000  O
  O7       1.0000 0.04430  0.73750  0.38680  Biso   1.000  O
  O8       1.0000 0.71260  0.65290  0.25350  Biso   1.000  O
  O9       1.0000 0.71610  0.53080  0.22260  Biso   1.000  O
  O10      1.0000 0.98540  0.45450  0.34190  Biso   1.000  O
  O11      1.0000 0.63490  0.54620  0.39540  Biso   1.000  O
  O12      1.0000 0.53350  0.56170  0.48390  Biso   1.000  O
  O13      1.0000 0.52930  0.40520  0.77890  Biso   1.000  O
  O14      1.0000 0.63280  0.42300  0.86290  Biso   1.000  O
  O15      1.0000 0.83470  0.43930  0.59890  Biso   1.000  O
  N1       1.0000 0.19870  0.32590  0.04150  Biso   1.000  N
  N2       1.0000 0.93560  0.36840  0.18330  Biso   1.000  N
  N3       1.0000 0.97500  0.29640  0.61180  Biso   1.000  N
  C1       1.0000 0.09800  0.11270  0.34670  Biso   1.000  C
  C2       1.0000 0.05890  0.08810  0.26930  Biso   1.000  C
  H1       1.0000 0.03620  0.04000  0.26820  Biso   1.000  H
  C3       1.0000 0.05380  0.13630  0.19290  Biso   1.000  C
  C4       1.0000 0.09020  0.20850  0.19470  Biso   1.000  C
  H2       1.0000 0.08950  0.23960  0.14250  Biso   1.000  H
  C5       1.0000 0.12680  0.23270  0.27380  Biso   1.000  C
  C6       1.0000 0.13140  0.18430  0.35030  Biso   1.000  C
  H3       1.0000 0.15680  0.20020  0.40350  Biso   1.000  H
  C7       1.0000 0.10380  0.05870  0.42860  Biso   1.000  C
  C8       1.0000 0.01030  0.11230  0.10890  Biso   1.000  C
  C9       1.0000 0.16410  0.35370  0.20710  Biso   1.000  C
  H4       1.0000 0.17710  0.40430  0.22970  Biso   1.000  H
  H5       1.0000 0.11380  0.35650  0.17900  Biso   1.000  H
  C10      1.0000 0.22040  0.33060  0.13630  Biso   1.000  C
  C11      1.0000 0.29790  0.31570  0.15370  Biso   1.000  C
  H6       1.0000 0.31660  0.31900  0.21380  Biso   1.000  H
  C12      1.0000 0.34470  0.29680  0.08490  Biso   1.000  C
  H7       1.0000 0.39480  0.28490  0.10110  Biso   1.000  H
  C13      1.0000 0.32820  0.29310  0.99880  Biso   1.000  C
  H8       1.0000 0.36420  0.28080  0.95380  Biso   1.000  H
  C14      1.0000 0.25430  0.30850  0.97810  Biso   1.000  C
  H9       1.0000 0.24010  0.30720  0.91610  Biso   1.000  H
  C15      1.0000 0.94150  0.65800  0.33160  Biso   1.000  C
  C16      1.0000 0.86880  0.65770  0.29590  Biso   1.000  C
  H10      1.0000 0.84360  0.70360  0.28430  Biso   1.000  H
  C17      1.0000 0.83300  0.58820  0.27710  Biso   1.000  C
  C18      1.0000 0.86850  0.52060  0.29350  Biso   1.000  C
  H11      1.0000 0.84290  0.47470  0.28310  Biso   1.000  H
  C19      1.0000 0.94340  0.52030  0.32600  Biso   1.000  C
  C20      1.0000 0.97990  0.58860  0.34740  Biso   1.000  C
  H12      1.0000 0.02910  0.58840  0.37200  Biso   1.000  H
  C21      1.0000 0.97950  0.73240  0.35240  Biso   1.000  C
  C22      1.0000 0.75010  0.59080  0.24660  Biso   1.000  C
  C23      1.0000 0.94600  0.38380  0.35840  Biso   1.000  C
  H13      1.0000 0.89920  0.39470  0.39210  Biso   1.000  H
  H14      1.0000 0.97780  0.35180  0.39760  Biso   1.000  H
  C24      1.0000 0.92600  0.33980  0.27260  Biso   1.000  C
  C25      1.0000 0.89620  0.26640  0.28040  Biso   1.000  C
  H15      1.0000 0.88900  0.24440  0.33840  Biso   1.000  H
  C26      1.0000 0.87750  0.22660  0.20190  Biso   1.000  C
  H16      1.0000 0.85780  0.17750  0.20880  Biso   1.000  H
  C27      1.0000 0.88560  0.25310  0.11860  Biso   1.000  C
  H17      1.0000 0.87230  0.22430  0.06690  Biso   1.000  H
  C28      1.0000 0.91320  0.32170  0.11110  Biso   1.000  C
  H18      1.0000 0.91840  0.34120  0.05160  Biso   1.000  H
  C29      1.0000 0.64200  0.50220  0.54920  Biso   1.000  C
  C30      1.0000 0.60250  0.47910  0.63000  Biso   1.000  C
  H19      1.0000 0.54990  0.48670  0.63420  Biso   1.000  H
  C31      1.0000 0.64090  0.44570  0.70200  Biso   1.000  C
  C32      1.0000 0.72070  0.43190  0.69650  Biso   1.000  C
  H20      1.0000 0.74720  0.41030  0.74580  Biso   1.000  H
  C33      1.0000 0.75810  0.45170  0.61500  Biso   1.000  C
  C34      1.0000 0.71930  0.48620  0.54410  Biso   1.000  C
  H21      1.0000 0.74580  0.49920  0.49060  Biso   1.000  H
  C35      1.0000 0.59990  0.53980  0.47160  Biso   1.000  C
  C36      1.0000 0.59850  0.42180  0.78720  Biso   1.000  C
  C37      1.0000 0.87330  0.38680  0.65730  Biso   1.000  C
  H22      1.0000 0.84410  0.33980  0.66200  Biso   1.000  H
  H23      1.0000 0.87850  0.40830  0.71890  Biso   1.000  H
  C38      1.0000 0.94920  0.37070  0.61850  Biso   1.000  C
  C39      1.0000 0.99680  0.42700  0.58670  Biso   1.000  C
  H24      1.0000 0.98240  0.47820  0.58700  Biso   1.000  H
  C40      1.0000 0.07040  0.40280  0.55290  Biso   1.000  C
  H25      1.0000 0.10360  0.44140  0.53410  Biso   1.000  H
  C41      1.0000 0.09410  0.33780  0.54620  Biso   1.000  C
  H26      1.0000 0.14210  0.32700  0.52150  Biso   1.000  H
  C42      1.0000 0.04900  0.28430  0.57530  Biso   1.000  C
  H27      1.0000 0.06660  0.23410  0.57190  Biso   1.000  H
  Pb3      1.0000 0.96624  0.12356  0.89710  Biso   1.000  Pb
  Pb4      1.0000 0.40365  0.41234  0.75793  Biso   1.000  Pb
  O16      1.0000 0.90760  0.01060  0.91690  Biso   1.000  O
  O17      1.0000 0.87660  0.91250  0.00600  Biso   1.000  O
  O18      1.0000 0.04050  0.93930  0.61780  Biso   1.000  O
  O19      1.0000 0.97550  0.85620  0.53310  Biso   1.000  O
  O20      1.0000 0.83840  0.69840  0.78360  Biso   1.000  O
  O21      1.0000 0.05880  0.20510  0.83730  Biso   1.000  O
  O22      1.0000 0.95570  0.26250  0.88680  Biso   1.000  O
  O23      1.0000 0.28740  0.34710  0.75350  Biso   1.000  O
  O24      1.0000 0.28390  0.46920  0.72260  Biso   1.000  O
  O25      1.0000 0.01460  0.54550  0.84190  Biso   1.000  O
  O26      1.0000 0.36510  0.45380  0.89540  Biso   1.000  O
  O27      1.0000 0.46650  0.43830  0.98390  Biso   1.000  O
  O28      1.0000 0.47070  0.59480  0.27890  Biso   1.000  O
  O29      1.0000 0.36720  0.57700  0.36290  Biso   1.000  O
  O30      1.0000 0.16530  0.56070  0.09890  Biso   1.000  O
  N4       1.0000 0.80130  0.67410  0.54150  Biso   1.000  N
  N5       1.0000 0.06440  0.63160  0.68330  Biso   1.000  N
  N6       1.0000 0.02500  0.70360  0.11180  Biso   1.000  N
  C43      1.0000 0.90200  0.88730  0.84670  Biso   1.000  C
  C44      1.0000 0.94110  0.91190  0.76930  Biso   1.000  C
  H28      1.0000 0.96380  0.96000  0.76820  Biso   1.000  H
  C45      1.0000 0.94620  0.86370  0.69290  Biso   1.000  C
  C46      1.0000 0.90980  0.79150  0.69470  Biso   1.000  C
  H29      1.0000 0.91050  0.76040  0.64250  Biso   1.000  H
  C47      1.0000 0.87320  0.76730  0.77380  Biso   1.000  C
  C48      1.0000 0.86860  0.81570  0.85030  Biso   1.000  C
  H30      1.0000 0.84320  0.79980  0.90350  Biso   1.000  H
  C49      1.0000 0.89620  0.94130  0.92860  Biso   1.000  C
  C50      1.0000 0.98970  0.88770  0.60890  Biso   1.000  C
  C51      1.0000 0.83590  0.64630  0.70710  Biso   1.000  C
  H31      1.0000 0.82290  0.59570  0.72970  Biso   1.000  H
  H32      1.0000 0.88620  0.64350  0.67900  Biso   1.000  H
  C52      1.0000 0.77960  0.66940  0.63630  Biso   1.000  C
  C53      1.0000 0.70210  0.68430  0.65370  Biso   1.000  C
  H33      1.0000 0.68340  0.68100  0.71380  Biso   1.000  H
  C54      1.0000 0.65530  0.70320  0.58490  Biso   1.000  C
  H34      1.0000 0.60520  0.71510  0.60110  Biso   1.000  H
  C55      1.0000 0.67180  0.70690  0.49880  Biso   1.000  C
  H35      1.0000 0.63580  0.71920  0.45380  Biso   1.000  H
  C56      1.0000 0.74570  0.69150  0.47810  Biso   1.000  C
  H36      1.0000 0.75990  0.69280  0.41610  Biso   1.000  H
  C57      1.0000 0.05850  0.34200  0.83160  Biso   1.000  C
  C58      1.0000 0.13120  0.34230  0.79590  Biso   1.000  C
  H37      1.0000 0.15640  0.29640  0.78430  Biso   1.000  H
  C59      1.0000 0.16700  0.41180  0.77710  Biso   1.000  C
  C60      1.0000 0.13150  0.47940  0.79350  Biso   1.000  C
  H38      1.0000 0.15710  0.52530  0.78310  Biso   1.000  H
  C61      1.0000 0.05660  0.47970  0.82600  Biso   1.000  C
  C62      1.0000 0.02010  0.41140  0.84740  Biso   1.000  C
  H39      1.0000 0.97090  0.41160  0.87200  Biso   1.000  H
  C63      1.0000 0.02050  0.26760  0.85240  Biso   1.000  C
  C64      1.0000 0.24990  0.40920  0.74660  Biso   1.000  C
  C65      1.0000 0.05400  0.61620  0.85840  Biso   1.000  C
  H40      1.0000 0.10080  0.60530  0.89210  Biso   1.000  H
  H41      1.0000 0.02220  0.64820  0.89760  Biso   1.000  H
  C66      1.0000 0.07400  0.66020  0.77260  Biso   1.000  C
  C67      1.0000 0.10380  0.73360  0.78040  Biso   1.000  C
  H42      1.0000 0.11100  0.75560  0.83840  Biso   1.000  H
  C68      1.0000 0.12250  0.77340  0.70190  Biso   1.000  C
  H43      1.0000 0.14220  0.82250  0.70880  Biso   1.000  H
  C69      1.0000 0.11440  0.74690  0.61860  Biso   1.000  C
  H44      1.0000 0.12770  0.77570  0.56690  Biso   1.000  H
  C70      1.0000 0.08680  0.67830  0.61110  Biso   1.000  C
  H45      1.0000 0.08160  0.65880  0.55160  Biso   1.000  H
  C71      1.0000 0.35800  0.49780  0.04920  Biso   1.000  C
  C72      1.0000 0.39750  0.52090  0.13000  Biso   1.000  C
  H46      1.0000 0.45010  0.51330  0.13420  Biso   1.000  H
  C73      1.0000 0.35910  0.55430  0.20200  Biso   1.000  C
  C74      1.0000 0.27930  0.56810  0.19650  Biso   1.000  C
  H47      1.0000 0.25280  0.58970  0.24580  Biso   1.000  H
  C75      1.0000 0.24190  0.54830  0.11500  Biso   1.000  C
  C76      1.0000 0.28070  0.51380  0.04410  Biso   1.000  C
  H48      1.0000 0.25420  0.50080  0.99060  Biso   1.000  H
  C77      1.0000 0.40010  0.46020  0.97160  Biso   1.000  C
  C78      1.0000 0.40150  0.57820  0.28720  Biso   1.000  C
  C79      1.0000 0.12670  0.61320  0.15730  Biso   1.000  C
  H49      1.0000 0.15590  0.66020  0.16200  Biso   1.000  H
  H50      1.0000 0.12150  0.59170  0.21890  Biso   1.000  H
  C80      1.0000 0.05080  0.62930  0.11850  Biso   1.000  C
  C81      1.0000 0.00320  0.57300  0.08670  Biso   1.000  C
  H51      1.0000 0.01760  0.52180  0.08700  Biso   1.000  H
  C82      1.0000 0.92960  0.59720  0.05290  Biso   1.000  C
  H52      1.0000 0.89640  0.55860  0.03410  Biso   1.000  H
  C83      1.0000 0.90590  0.66220  0.04620  Biso   1.000  C
  H53      1.0000 0.85790  0.67300  0.02150  Biso   1.000  H
  C84      1.0000 0.95100  0.71570  0.07530  Biso   1.000  C
  H54      1.0000 0.93340  0.76590  0.07190  Biso   1.000  H
  Pb5      1.0000 0.12356  0.03376  0.64710  Biso   1.000  Pb
  Pb6      1.0000 0.41234  0.59636  0.50793  Biso   1.000  Pb
  O31      1.0000 0.01060  0.09240  0.66690  Biso   1.000  O
  O32      1.0000 0.91250  0.12340  0.75600  Biso   1.000  O
  O33      1.0000 0.93930  0.95950  0.36780  Biso   1.000  O
  O34      1.0000 0.85620  0.02450  0.28310  Biso   1.000  O
  O35      1.0000 0.69840  0.16160  0.53360  Biso   1.000  O
  O36      1.0000 0.20510  0.94120  0.58730  Biso   1.000  O
  O37      1.0000 0.26250  0.04430  0.63680  Biso   1.000  O
  O38      1.0000 0.34710  0.71260  0.50350  Biso   1.000  O
  O39      1.0000 0.46920  0.71610  0.47260  Biso   1.000  O
  O40      1.0000 0.54550  0.98540  0.59190  Biso   1.000  O
  O41      1.0000 0.45380  0.63490  0.64540  Biso   1.000  O
  O42      1.0000 0.43830  0.53350  0.73390  Biso   1.000  O
  O43      1.0000 0.59480  0.52930  0.02890  Biso   1.000  O
  O44      1.0000 0.57700  0.63280  0.11290  Biso   1.000  O
  O45      1.0000 0.56070  0.83470  0.84890  Biso   1.000  O
  N7       1.0000 0.67410  0.19870  0.29150  Biso   1.000  N
  N8       1.0000 0.63160  0.93560  0.43330  Biso   1.000  N
  N9       1.0000 0.70360  0.97500  0.86180  Biso   1.000  N
  C85      1.0000 0.88730  0.09800  0.59670  Biso   1.000  C
  C86      1.0000 0.91190  0.05890  0.51930  Biso   1.000  C
  H55      1.0000 0.96000  0.03620  0.51820  Biso   1.000  H
  C87      1.0000 0.86370  0.05380  0.44290  Biso   1.000  C
  C88      1.0000 0.79150  0.09020  0.44470  Biso   1.000  C
  H56      1.0000 0.76040  0.08950  0.39250  Biso   1.000  H
  C89      1.0000 0.76730  0.12680  0.52380  Biso   1.000  C
  C90      1.0000 0.81570  0.13140  0.60030  Biso   1.000  C
  H57      1.0000 0.79980  0.15680  0.65350  Biso   1.000  H
  C91      1.0000 0.94130  0.10380  0.67860  Biso   1.000  C
  C92      1.0000 0.88770  0.01030  0.35890  Biso   1.000  C
  C93      1.0000 0.64630  0.16410  0.45710  Biso   1.000  C
  H58      1.0000 0.59570  0.17710  0.47970  Biso   1.000  H
  H59      1.0000 0.64350  0.11380  0.42900  Biso   1.000  H
  C94      1.0000 0.66940  0.22040  0.38630  Biso   1.000  C
  C95      1.0000 0.68430  0.29790  0.40370  Biso   1.000  C
  H60      1.0000 0.68100  0.31660  0.46380  Biso   1.000  H
  C96      1.0000 0.70320  0.34470  0.33490  Biso   1.000  C
  H61      1.0000 0.71510  0.39480  0.35110  Biso   1.000  H
  C97      1.0000 0.70690  0.32820  0.24880  Biso   1.000  C
  H62      1.0000 0.71920  0.36420  0.20380  Biso   1.000  H
  C98      1.0000 0.69150  0.25430  0.22810  Biso   1.000  C
  H63      1.0000 0.69280  0.24010  0.16610  Biso   1.000  H
  C99      1.0000 0.34200  0.94150  0.58160  Biso   1.000  C
  C100     1.0000 0.34230  0.86880  0.54590  Biso   1.000  C
  H64      1.0000 0.29640  0.84360  0.53430  Biso   1.000  H
  C101     1.0000 0.41180  0.83300  0.52710  Biso   1.000  C
  C102     1.0000 0.47940  0.86850  0.54350  Biso   1.000  C
  H65      1.0000 0.52530  0.84290  0.53310  Biso   1.000  H
  C103     1.0000 0.47970  0.94340  0.57600  Biso   1.000  C
  C104     1.0000 0.41140  0.97990  0.59740  Biso   1.000  C
  H66      1.0000 0.41160  0.02910  0.62200  Biso   1.000  H
  C105     1.0000 0.26760  0.97950  0.60240  Biso   1.000  C
  C106     1.0000 0.40920  0.75010  0.49660  Biso   1.000  C
  C107     1.0000 0.61620  0.94600  0.60840  Biso   1.000  C
  H67      1.0000 0.60530  0.89920  0.64210  Biso   1.000  H
  H68      1.0000 0.64820  0.97780  0.64760  Biso   1.000  H
  C108     1.0000 0.66020  0.92600  0.52260  Biso   1.000  C
  C109     1.0000 0.73360  0.89620  0.53040  Biso   1.000  C
  H69      1.0000 0.75560  0.88900  0.58840  Biso   1.000  H
  C110     1.0000 0.77340  0.87750  0.45190  Biso   1.000  C
  H70      1.0000 0.82250  0.85780  0.45880  Biso   1.000  H
  C111     1.0000 0.74690  0.88560  0.36860  Biso   1.000  C
  H71      1.0000 0.77570  0.87230  0.31690  Biso   1.000  H
  C112     1.0000 0.67830  0.91320  0.36110  Biso   1.000  C
  H72      1.0000 0.65880  0.91840  0.30160  Biso   1.000  H
  C113     1.0000 0.49780  0.64200  0.79920  Biso   1.000  C
  C114     1.0000 0.52090  0.60250  0.88000  Biso   1.000  C
  H73      1.0000 0.51330  0.54990  0.88420  Biso   1.000  H
  C115     1.0000 0.55430  0.64090  0.95200  Biso   1.000  C
  C116     1.0000 0.56810  0.72070  0.94650  Biso   1.000  C
  H74      1.0000 0.58970  0.74720  0.99580  Biso   1.000  H
  C117     1.0000 0.54830  0.75810  0.86500  Biso   1.000  C
  C118     1.0000 0.51380  0.71930  0.79410  Biso   1.000  C
  H75      1.0000 0.50080  0.74580  0.74060  Biso   1.000  H
  C119     1.0000 0.46020  0.59990  0.72160  Biso   1.000  C
  C120     1.0000 0.57820  0.59850  0.03720  Biso   1.000  C
  C121     1.0000 0.61320  0.87330  0.90730  Biso   1.000  C
  H76      1.0000 0.66020  0.84410  0.91200  Biso   1.000  H
  H77      1.0000 0.59170  0.87850  0.96890  Biso   1.000  H
  C122     1.0000 0.62930  0.94920  0.86850  Biso   1.000  C
  C123     1.0000 0.57300  0.99680  0.83670  Biso   1.000  C
  H78      1.0000 0.52180  0.98240  0.83700  Biso   1.000  H
  C124     1.0000 0.59720  0.07040  0.80290  Biso   1.000  C
  H79      1.0000 0.55860  0.10360  0.78410  Biso   1.000  H
  C125     1.0000 0.66220  0.09410  0.79620  Biso   1.000  C
  H80      1.0000 0.67300  0.14210  0.77150  Biso   1.000  H
  C126     1.0000 0.71570  0.04900  0.82530  Biso   1.000  C
  H81      1.0000 0.76590  0.06660  0.82190  Biso   1.000  H
  Pb7      1.0000 0.87644  0.96624  0.14710  Biso   1.000  Pb
  Pb8      1.0000 0.58766  0.40365  0.00793  Biso   1.000  Pb
  O46      1.0000 0.98940  0.90760  0.16690  Biso   1.000  O
  O47      1.0000 0.08750  0.87660  0.25600  Biso   1.000  O
  O48      1.0000 0.06070  0.04050  0.86780  Biso   1.000  O
  O49      1.0000 0.14380  0.97550  0.78310  Biso   1.000  O
  O50      1.0000 0.30160  0.83840  0.03360  Biso   1.000  O
  O51      1.0000 0.79490  0.05880  0.08730  Biso   1.000  O
  O52      1.0000 0.73750  0.95570  0.13680  Biso   1.000  O
  O53      1.0000 0.65290  0.28740  0.00350  Biso   1.000  O
  O54      1.0000 0.53080  0.28390  0.97260  Biso   1.000  O
  O55      1.0000 0.45450  0.01460  0.09190  Biso   1.000  O
  O56      1.0000 0.54620  0.36510  0.14540  Biso   1.000  O
  O57      1.0000 0.56170  0.46650  0.23390  Biso   1.000  O
  O58      1.0000 0.40520  0.47070  0.52890  Biso   1.000  O
  O59      1.0000 0.42300  0.36720  0.61290  Biso   1.000  O
  O60      1.0000 0.43930  0.16530  0.34890  Biso   1.000  O
  N10      1.0000 0.32590  0.80130  0.79150  Biso   1.000  N
  N11      1.0000 0.36840  0.06440  0.93330  Biso   1.000  N
  N12      1.0000 0.29640  0.02500  0.36180  Biso   1.000  N
  C127     1.0000 0.11270  0.90200  0.09670  Biso   1.000  C
  C128     1.0000 0.08810  0.94110  0.01930  Biso   1.000  C
  H82      1.0000 0.04000  0.96380  0.01820  Biso   1.000  H
  C129     1.0000 0.13630  0.94620  0.94290  Biso   1.000  C
  C130     1.0000 0.20850  0.90980  0.94470  Biso   1.000  C
  H83      1.0000 0.23960  0.91050  0.89250  Biso   1.000  H
  C131     1.0000 0.23270  0.87320  0.02380  Biso   1.000  C
  C132     1.0000 0.18430  0.86860  0.10030  Biso   1.000  C
  H84      1.0000 0.20020  0.84320  0.15350  Biso   1.000  H
  C133     1.0000 0.05870  0.89620  0.17860  Biso   1.000  C
  C134     1.0000 0.11230  0.98970  0.85890  Biso   1.000  C
  C135     1.0000 0.35370  0.83590  0.95710  Biso   1.000  C
  H85      1.0000 0.40430  0.82290  0.97970  Biso   1.000  H
  H86      1.0000 0.35650  0.88620  0.92900  Biso   1.000  H
  C136     1.0000 0.33060  0.77960  0.88630  Biso   1.000  C
  C137     1.0000 0.31570  0.70210  0.90370  Biso   1.000  C
  H87      1.0000 0.31900  0.68340  0.96380  Biso   1.000  H
  C138     1.0000 0.29680  0.65530  0.83490  Biso   1.000  C
  H88      1.0000 0.28490  0.60520  0.85110  Biso   1.000  H
  C139     1.0000 0.29310  0.67180  0.74880  Biso   1.000  C
  H89      1.0000 0.28080  0.63580  0.70380  Biso   1.000  H
  C140     1.0000 0.30850  0.74570  0.72810  Biso   1.000  C
  H90      1.0000 0.30720  0.75990  0.66610  Biso   1.000  H
  C141     1.0000 0.65800  0.05850  0.08160  Biso   1.000  C
  C142     1.0000 0.65770  0.13120  0.04590  Biso   1.000  C
  H91      1.0000 0.70360  0.15640  0.03430  Biso   1.000  H
  C143     1.0000 0.58820  0.16700  0.02710  Biso   1.000  C
  C144     1.0000 0.52060  0.13150  0.04350  Biso   1.000  C
  H92      1.0000 0.47470  0.15710  0.03310  Biso   1.000  H
  C145     1.0000 0.52030  0.05660  0.07600  Biso   1.000  C
  C146     1.0000 0.58860  0.02010  0.09740  Biso   1.000  C
  H93      1.0000 0.58840  0.97090  0.12200  Biso   1.000  H
  C147     1.0000 0.73240  0.02050  0.10240  Biso   1.000  C
  C148     1.0000 0.59080  0.24990  0.99660  Biso   1.000  C
  C149     1.0000 0.38380  0.05400  0.10840  Biso   1.000  C
  H94      1.0000 0.39470  0.10080  0.14210  Biso   1.000  H
  H95      1.0000 0.35180  0.02220  0.14760  Biso   1.000  H
  C150     1.0000 0.33980  0.07400  0.02260  Biso   1.000  C
  C151     1.0000 0.26640  0.10380  0.03040  Biso   1.000  C
  H96      1.0000 0.24440  0.11100  0.08840  Biso   1.000  H
  C152     1.0000 0.22660  0.12250  0.95190  Biso   1.000  C
  H97      1.0000 0.17750  0.14220  0.95880  Biso   1.000  H
  C153     1.0000 0.25310  0.11440  0.86860  Biso   1.000  C
  H98      1.0000 0.22430  0.12770  0.81690  Biso   1.000  H
  C154     1.0000 0.32170  0.08680  0.86110  Biso   1.000  C
  H99      1.0000 0.34120  0.08160  0.80160  Biso   1.000  H
  C155     1.0000 0.50220  0.35800  0.29920  Biso   1.000  C
  C156     1.0000 0.47910  0.39750  0.38000  Biso   1.000  C
  H100     1.0000 0.48670  0.45010  0.38420  Biso   1.000  H
  C157     1.0000 0.44570  0.35910  0.45200  Biso   1.000  C
  C158     1.0000 0.43190  0.27930  0.44650  Biso   1.000  C
  H101     1.0000 0.41030  0.25280  0.49580  Biso   1.000  H
  C159     1.0000 0.45170  0.24190  0.36500  Biso   1.000  C
  C160     1.0000 0.48620  0.28070  0.29410  Biso   1.000  C
  H102     1.0000 0.49920  0.25420  0.24060  Biso   1.000  H
  C161     1.0000 0.53980  0.40010  0.22160  Biso   1.000  C
  C162     1.0000 0.42180  0.40150  0.53720  Biso   1.000  C
  C163     1.0000 0.38680  0.12670  0.40730  Biso   1.000  C
  H103     1.0000 0.33980  0.15590  0.41200  Biso   1.000  H
  H104     1.0000 0.40830  0.12150  0.46890  Biso   1.000  H
  C164     1.0000 0.37070  0.05080  0.36850  Biso   1.000  C
  C165     1.0000 0.42700  0.00320  0.33670  Biso   1.000  C
  H105     1.0000 0.47820  0.01760  0.33700  Biso   1.000  H
  C166     1.0000 0.40280  0.92960  0.30290  Biso   1.000  C
  H106     1.0000 0.44140  0.89640  0.28410  Biso   1.000  H
  C167     1.0000 0.33780  0.90590  0.29620  Biso   1.000  C
  H107     1.0000 0.32700  0.85790  0.27150  Biso   1.000  H
  C168     1.0000 0.28430  0.95100  0.32530  Biso   1.000  C
  H108     1.0000 0.23410  0.93340  0.32190  Biso   1.000  H
