data_image0
_cell_length_a       21.4934
_cell_length_b       21.4934
_cell_length_c       21.4934
_cell_angle_alpha    90
_cell_angle_beta     90
_cell_angle_gamma    90

_symmetry_space_group_name_H-M    "P 1"
_symmetry_int_tables_number       1

loop_
  _symmetry_equiv_pos_as_xyz
  'x, y, z'

loop_
  _atom_site_label
  _atom_site_occupancy
  _atom_site_fract_x
  _atom_site_fract_y
  _atom_site_fract_z
  _atom_site_thermal_displace_type
  _atom_site_B_iso_or_equiv
  _atom_site_type_symbol
  Al1      1.0000 0.26072  0.19852  0.31923  Biso   1.000  Al
  C1       1.0000 0.45670  0.21435  0.33007  Biso   1.000  C
  C2       1.0000 0.51089  0.21889  0.29435  Biso   1.000  C
  H1       1.0000 0.50890  0.23010  0.25160  Biso   1.000  H
  C3       1.0000 0.56837  0.20653  0.32299  Biso   1.000  C
  C4       1.0000 0.57052  0.19520  0.38539  Biso   1.000  C
  H2       1.0000 0.60960  0.18870  0.40500  Biso   1.000  H
  C5       1.0000 0.51682  0.19300  0.42029  Biso   1.000  C
  C6       1.0000 0.45909  0.20230  0.39172  Biso   1.000  C
  H3       1.0000 0.42190  0.20030  0.41550  Biso   1.000  H
  C7       1.0000 0.39346  0.22341  0.30089  Biso   1.000  C
  C8       1.0000 0.62813  0.20719  0.28809  Biso   1.000  C
  N1       1.0000 0.52400  0.19120  0.48586  Biso   1.000  N
  O1       1.0000 0.34830  0.19978  0.33058  Biso   1.000  O
  O2       1.0000 0.38945  0.25297  0.25128  Biso   1.000  O
  O3       1.0000 0.67323  0.18120  0.31413  Biso   1.000  O
  O4       1.0000 0.62961  0.23320  0.23604  Biso   1.000  O
  Al2      1.0000 0.73928  0.80148  0.31923  Biso   1.000  Al
  C9       1.0000 0.54330  0.78565  0.33007  Biso   1.000  C
  C10      1.0000 0.48911  0.78111  0.29435  Biso   1.000  C
  H4       1.0000 0.49110  0.76990  0.25160  Biso   1.000  H
  C11      1.0000 0.43163  0.79347  0.32299  Biso   1.000  C
  C12      1.0000 0.42948  0.80480  0.38539  Biso   1.000  C
  H5       1.0000 0.39040  0.81130  0.40500  Biso   1.000  H
  C13      1.0000 0.48318  0.80700  0.42029  Biso   1.000  C
  C14      1.0000 0.54091  0.79770  0.39172  Biso   1.000  C
  H6       1.0000 0.57810  0.79970  0.41550  Biso   1.000  H
  C15      1.0000 0.60654  0.77659  0.30089  Biso   1.000  C
  C16      1.0000 0.37187  0.79281  0.28809  Biso   1.000  C
  N2       1.0000 0.47600  0.80880  0.48586  Biso   1.000  N
  O5       1.0000 0.65170  0.80022  0.33058  Biso   1.000  O
  O6       1.0000 0.61055  0.74703  0.25128  Biso   1.000  O
  O7       1.0000 0.32677  0.81880  0.31413  Biso   1.000  O
  O8       1.0000 0.37039  0.76680  0.23604  Biso   1.000  O
  Al3      1.0000 0.73928  0.19852  0.68077  Biso   1.000  Al
  C17      1.0000 0.54330  0.21435  0.66993  Biso   1.000  C
  C18      1.0000 0.48911  0.21889  0.70565  Biso   1.000  C
  H7       1.0000 0.49110  0.23010  0.74840  Biso   1.000  H
  C19      1.0000 0.43163  0.20653  0.67701  Biso   1.000  C
  C20      1.0000 0.42948  0.19520  0.61461  Biso   1.000  C
  H8       1.0000 0.39040  0.18870  0.59500  Biso   1.000  H
  C21      1.0000 0.48318  0.19300  0.57971  Biso   1.000  C
  C22      1.0000 0.54091  0.20230  0.60828  Biso   1.000  C
  H9       1.0000 0.57810  0.20030  0.58450  Biso   1.000  H
  C23      1.0000 0.60654  0.22341  0.69911  Biso   1.000  C
  C24      1.0000 0.37187  0.20719  0.71191  Biso   1.000  C
  N3       1.0000 0.47600  0.19120  0.51414  Biso   1.000  N
  O9       1.0000 0.65170  0.19978  0.66942  Biso   1.000  O
  O10      1.0000 0.61055  0.25297  0.74872  Biso   1.000  O
  O11      1.0000 0.32677  0.18120  0.68587  Biso   1.000  O
  O12      1.0000 0.37039  0.23320  0.76396  Biso   1.000  O
  Al4      1.0000 0.26072  0.80148  0.68077  Biso   1.000  Al
  C25      1.0000 0.45670  0.78565  0.66993  Biso   1.000  C
  C26      1.0000 0.51089  0.78111  0.70565  Biso   1.000  C
  H10      1.0000 0.50890  0.76990  0.74840  Biso   1.000  H
  C27      1.0000 0.56837  0.79347  0.67701  Biso   1.000  C
  C28      1.0000 0.57052  0.80480  0.61461  Biso   1.000  C
  H11      1.0000 0.60960  0.81130  0.59500  Biso   1.000  H
  C29      1.0000 0.51682  0.80700  0.57971  Biso   1.000  C
  C30      1.0000 0.45909  0.79770  0.60828  Biso   1.000  C
  H12      1.0000 0.42190  0.79970  0.58450  Biso   1.000  H
  C31      1.0000 0.39346  0.77659  0.69911  Biso   1.000  C
  C32      1.0000 0.62813  0.79281  0.71191  Biso   1.000  C
  N4       1.0000 0.52400  0.80880  0.51414  Biso   1.000  N
  O13      1.0000 0.34830  0.80022  0.66942  Biso   1.000  O
  O14      1.0000 0.38945  0.74703  0.74872  Biso   1.000  O
  O15      1.0000 0.67323  0.81880  0.68587  Biso   1.000  O
  O16      1.0000 0.62961  0.76680  0.76396  Biso   1.000  O
  Al5      1.0000 0.31923  0.26072  0.19852  Biso   1.000  Al
  C33      1.0000 0.33007  0.45670  0.21435  Biso   1.000  C
  C34      1.0000 0.29435  0.51089  0.21889  Biso   1.000  C
  H13      1.0000 0.25160  0.50890  0.23010  Biso   1.000  H
  C35      1.0000 0.32299  0.56837  0.20653  Biso   1.000  C
  C36      1.0000 0.38539  0.57052  0.19520  Biso   1.000  C
  H14      1.0000 0.40500  0.60960  0.18870  Biso   1.000  H
  C37      1.0000 0.42029  0.51682  0.19300  Biso   1.000  C
  C38      1.0000 0.39172  0.45909  0.20230  Biso   1.000  C
  H15      1.0000 0.41550  0.42190  0.20030  Biso   1.000  H
  C39      1.0000 0.30089  0.39346  0.22341  Biso   1.000  C
  C40      1.0000 0.28809  0.62813  0.20719  Biso   1.000  C
  N5       1.0000 0.48586  0.52400  0.19120  Biso   1.000  N
  O17      1.0000 0.33058  0.34830  0.19978  Biso   1.000  O
  O18      1.0000 0.25128  0.38945  0.25297  Biso   1.000  O
  O19      1.0000 0.31413  0.67323  0.18120  Biso   1.000  O
  O20      1.0000 0.23604  0.62961  0.23320  Biso   1.000  O
  Al6      1.0000 0.31923  0.73928  0.80148  Biso   1.000  Al
  C41      1.0000 0.33007  0.54330  0.78565  Biso   1.000  C
  C42      1.0000 0.29435  0.48911  0.78111  Biso   1.000  C
  H16      1.0000 0.25160  0.49110  0.76990  Biso   1.000  H
  C43      1.0000 0.32299  0.43163  0.79347  Biso   1.000  C
  C44      1.0000 0.38539  0.42948  0.80480  Biso   1.000  C
  H17      1.0000 0.40500  0.39040  0.81130  Biso   1.000  H
  C45      1.0000 0.42029  0.48318  0.80700  Biso   1.000  C
  C46      1.0000 0.39172  0.54091  0.79770  Biso   1.000  C
  H18      1.0000 0.41550  0.57810  0.79970  Biso   1.000  H
  C47      1.0000 0.30089  0.60654  0.77659  Biso   1.000  C
  C48      1.0000 0.28809  0.37187  0.79281  Biso   1.000  C
  N6       1.0000 0.48586  0.47600  0.80880  Biso   1.000  N
  O21      1.0000 0.33058  0.65170  0.80022  Biso   1.000  O
  O22      1.0000 0.25128  0.61055  0.74703  Biso   1.000  O
  O23      1.0000 0.31413  0.32677  0.81880  Biso   1.000  O
  O24      1.0000 0.23604  0.37039  0.76680  Biso   1.000  O
  Al7      1.0000 0.68077  0.73928  0.19852  Biso   1.000  Al
  C49      1.0000 0.66993  0.54330  0.21435  Biso   1.000  C
  C50      1.0000 0.70565  0.48911  0.21889  Biso   1.000  C
  H19      1.0000 0.74840  0.49110  0.23010  Biso   1.000  H
  C51      1.0000 0.67701  0.43163  0.20653  Biso   1.000  C
  C52      1.0000 0.61461  0.42948  0.19520  Biso   1.000  C
  H20      1.0000 0.59500  0.39040  0.18870  Biso   1.000  H
  C53      1.0000 0.57971  0.48318  0.19300  Biso   1.000  C
  C54      1.0000 0.60828  0.54091  0.20230  Biso   1.000  C
  H21      1.0000 0.58450  0.57810  0.20030  Biso   1.000  H
  C55      1.0000 0.69911  0.60654  0.22341  Biso   1.000  C
  C56      1.0000 0.71191  0.37187  0.20719  Biso   1.000  C
  N7       1.0000 0.51414  0.47600  0.19120  Biso   1.000  N
  O25      1.0000 0.66942  0.65170  0.19978  Biso   1.000  O
  O26      1.0000 0.74872  0.61055  0.25297  Biso   1.000  O
  O27      1.0000 0.68587  0.32677  0.18120  Biso   1.000  O
  O28      1.0000 0.76396  0.37039  0.23320  Biso   1.000  O
  Al8      1.0000 0.68077  0.26072  0.80148  Biso   1.000  Al
  C57      1.0000 0.66993  0.45670  0.78565  Biso   1.000  C
  C58      1.0000 0.70565  0.51089  0.78111  Biso   1.000  C
  H22      1.0000 0.74840  0.50890  0.76990  Biso   1.000  H
  C59      1.0000 0.67701  0.56837  0.79347  Biso   1.000  C
  C60      1.0000 0.61461  0.57052  0.80480  Biso   1.000  C
  H23      1.0000 0.59500  0.60960  0.81130  Biso   1.000  H
  C61      1.0000 0.57971  0.51682  0.80700  Biso   1.000  C
  C62      1.0000 0.60828  0.45909  0.79770  Biso   1.000  C
  H24      1.0000 0.58450  0.42190  0.79970  Biso   1.000  H
  C63      1.0000 0.69911  0.39346  0.77659  Biso   1.000  C
  C64      1.0000 0.71191  0.62813  0.79281  Biso   1.000  C
  N8       1.0000 0.51414  0.52400  0.80880  Biso   1.000  N
  O29      1.0000 0.66942  0.34830  0.80022  Biso   1.000  O
  O30      1.0000 0.74872  0.38945  0.74703  Biso   1.000  O
  O31      1.0000 0.68587  0.67323  0.81880  Biso   1.000  O
  O32      1.0000 0.76396  0.62961  0.76680  Biso   1.000  O
  Al9      1.0000 0.19852  0.31923  0.26072  Biso   1.000  Al
  C65      1.0000 0.21435  0.33007  0.45670  Biso   1.000  C
  C66      1.0000 0.21889  0.29435  0.51089  Biso   1.000  C
  H25      1.0000 0.23010  0.25160  0.50890  Biso   1.000  H
  C67      1.0000 0.20653  0.32299  0.56837  Biso   1.000  C
  C68      1.0000 0.19520  0.38539  0.57052  Biso   1.000  C
  H26      1.0000 0.18870  0.40500  0.60960  Biso   1.000  H
  C69      1.0000 0.19300  0.42029  0.51682  Biso   1.000  C
  C70      1.0000 0.20230  0.39172  0.45909  Biso   1.000  C
  H27      1.0000 0.20030  0.41550  0.42190  Biso   1.000  H
  C71      1.0000 0.22341  0.30089  0.39346  Biso   1.000  C
  C72      1.0000 0.20719  0.28809  0.62813  Biso   1.000  C
  N9       1.0000 0.19120  0.48586  0.52400  Biso   1.000  N
  O33      1.0000 0.19978  0.33058  0.34830  Biso   1.000  O
  O34      1.0000 0.25297  0.25128  0.38945  Biso   1.000  O
  O35      1.0000 0.18120  0.31413  0.67323  Biso   1.000  O
  O36      1.0000 0.23320  0.23604  0.62961  Biso   1.000  O
  Al10     1.0000 0.80148  0.31923  0.73928  Biso   1.000  Al
  C73      1.0000 0.78565  0.33007  0.54330  Biso   1.000  C
  C74      1.0000 0.78111  0.29435  0.48911  Biso   1.000  C
  H28      1.0000 0.76990  0.25160  0.49110  Biso   1.000  H
  C75      1.0000 0.79347  0.32299  0.43163  Biso   1.000  C
  C76      1.0000 0.80480  0.38539  0.42948  Biso   1.000  C
  H29      1.0000 0.81130  0.40500  0.39040  Biso   1.000  H
  C77      1.0000 0.80700  0.42029  0.48318  Biso   1.000  C
  C78      1.0000 0.79770  0.39172  0.54091  Biso   1.000  C
  H30      1.0000 0.79970  0.41550  0.57810  Biso   1.000  H
  C79      1.0000 0.77659  0.30089  0.60654  Biso   1.000  C
  C80      1.0000 0.79281  0.28809  0.37187  Biso   1.000  C
  N10      1.0000 0.80880  0.48586  0.47600  Biso   1.000  N
  O37      1.0000 0.80022  0.33058  0.65170  Biso   1.000  O
  O38      1.0000 0.74703  0.25128  0.61055  Biso   1.000  O
  O39      1.0000 0.81880  0.31413  0.32677  Biso   1.000  O
  O40      1.0000 0.76680  0.23604  0.37039  Biso   1.000  O
  Al11     1.0000 0.19852  0.68077  0.73928  Biso   1.000  Al
  C81      1.0000 0.21435  0.66993  0.54330  Biso   1.000  C
  C82      1.0000 0.21889  0.70565  0.48911  Biso   1.000  C
  H31      1.0000 0.23010  0.74840  0.49110  Biso   1.000  H
  C83      1.0000 0.20653  0.67701  0.43163  Biso   1.000  C
  C84      1.0000 0.19520  0.61461  0.42948  Biso   1.000  C
  H32      1.0000 0.18870  0.59500  0.39040  Biso   1.000  H
  C85      1.0000 0.19300  0.57971  0.48318  Biso   1.000  C
  C86      1.0000 0.20230  0.60828  0.54091  Biso   1.000  C
  H33      1.0000 0.20030  0.58450  0.57810  Biso   1.000  H
  C87      1.0000 0.22341  0.69911  0.60654  Biso   1.000  C
  C88      1.0000 0.20719  0.71191  0.37187  Biso   1.000  C
  N11      1.0000 0.19120  0.51414  0.47600  Biso   1.000  N
  O41      1.0000 0.19978  0.66942  0.65170  Biso   1.000  O
  O42      1.0000 0.25297  0.74872  0.61055  Biso   1.000  O
  O43      1.0000 0.18120  0.68587  0.32677  Biso   1.000  O
  O44      1.0000 0.23320  0.76396  0.37039  Biso   1.000  O
  Al12     1.0000 0.80148  0.68077  0.26072  Biso   1.000  Al
  C89      1.0000 0.78565  0.66993  0.45670  Biso   1.000  C
  C90      1.0000 0.78111  0.70565  0.51089  Biso   1.000  C
  H34      1.0000 0.76990  0.74840  0.50890  Biso   1.000  H
  C91      1.0000 0.79347  0.67701  0.56837  Biso   1.000  C
  C92      1.0000 0.80480  0.61461  0.57052  Biso   1.000  C
  H35      1.0000 0.81130  0.59500  0.60960  Biso   1.000  H
  C93      1.0000 0.80700  0.57971  0.51682  Biso   1.000  C
  C94      1.0000 0.79770  0.60828  0.45909  Biso   1.000  C
  H36      1.0000 0.79970  0.58450  0.42190  Biso   1.000  H
  C95      1.0000 0.77659  0.69911  0.39346  Biso   1.000  C
  C96      1.0000 0.79281  0.71191  0.62813  Biso   1.000  C
  N12      1.0000 0.80880  0.51414  0.52400  Biso   1.000  N
  O45      1.0000 0.80022  0.66942  0.34830  Biso   1.000  O
  O46      1.0000 0.74703  0.74872  0.38945  Biso   1.000  O
  O47      1.0000 0.81880  0.68587  0.67323  Biso   1.000  O
  O48      1.0000 0.76680  0.76396  0.62961  Biso   1.000  O
  Al13     1.0000 0.69852  0.76072  0.81923  Biso   1.000  Al
  C97      1.0000 0.71435  0.95670  0.83007  Biso   1.000  C
  C98      1.0000 0.71889  0.01089  0.79435  Biso   1.000  C
  H37      1.0000 0.73010  0.00890  0.75160  Biso   1.000  H
  C99      1.0000 0.70653  0.06837  0.82299  Biso   1.000  C
  C100     1.0000 0.69520  0.07052  0.88539  Biso   1.000  C
  H38      1.0000 0.68870  0.10960  0.90500  Biso   1.000  H
  C101     1.0000 0.69300  0.01682  0.92029  Biso   1.000  C
  C102     1.0000 0.70230  0.95909  0.89172  Biso   1.000  C
  H39      1.0000 0.70030  0.92190  0.91550  Biso   1.000  H
  C103     1.0000 0.72341  0.89346  0.80089  Biso   1.000  C
  C104     1.0000 0.70719  0.12813  0.78809  Biso   1.000  C
  N13      1.0000 0.69120  0.02400  0.98586  Biso   1.000  N
  O49      1.0000 0.69978  0.84830  0.83058  Biso   1.000  O
  O50      1.0000 0.75297  0.88945  0.75128  Biso   1.000  O
  O51      1.0000 0.68120  0.17323  0.81413  Biso   1.000  O
  O52      1.0000 0.73320  0.12961  0.73604  Biso   1.000  O
  Al14     1.0000 0.30148  0.23928  0.81923  Biso   1.000  Al
  C105     1.0000 0.28565  0.04330  0.83007  Biso   1.000  C
  C106     1.0000 0.28111  0.98911  0.79435  Biso   1.000  C
  H40      1.0000 0.26990  0.99110  0.75160  Biso   1.000  H
  C107     1.0000 0.29347  0.93163  0.82299  Biso   1.000  C
  C108     1.0000 0.30480  0.92948  0.88539  Biso   1.000  C
  H41      1.0000 0.31130  0.89040  0.90500  Biso   1.000  H
  C109     1.0000 0.30700  0.98318  0.92029  Biso   1.000  C
  C110     1.0000 0.29770  0.04091  0.89172  Biso   1.000  C
  H42      1.0000 0.29970  0.07810  0.91550  Biso   1.000  H
  C111     1.0000 0.27659  0.10654  0.80089  Biso   1.000  C
  C112     1.0000 0.29281  0.87187  0.78809  Biso   1.000  C
  N14      1.0000 0.30880  0.97600  0.98586  Biso   1.000  N
  O53      1.0000 0.30022  0.15170  0.83058  Biso   1.000  O
  O54      1.0000 0.24703  0.11055  0.75128  Biso   1.000  O
  O55      1.0000 0.31880  0.82677  0.81413  Biso   1.000  O
  O56      1.0000 0.26680  0.87039  0.73604  Biso   1.000  O
  Al15     1.0000 0.69852  0.23928  0.18077  Biso   1.000  Al
  C113     1.0000 0.71435  0.04330  0.16993  Biso   1.000  C
  C114     1.0000 0.71889  0.98911  0.20565  Biso   1.000  C
  H43      1.0000 0.73010  0.99110  0.24840  Biso   1.000  H
  C115     1.0000 0.70653  0.93163  0.17701  Biso   1.000  C
  C116     1.0000 0.69520  0.92948  0.11461  Biso   1.000  C
  H44      1.0000 0.68870  0.89040  0.09500  Biso   1.000  H
  C117     1.0000 0.69300  0.98318  0.07971  Biso   1.000  C
  C118     1.0000 0.70230  0.04091  0.10828  Biso   1.000  C
  H45      1.0000 0.70030  0.07810  0.08450  Biso   1.000  H
  C119     1.0000 0.72341  0.10654  0.19911  Biso   1.000  C
  C120     1.0000 0.70719  0.87187  0.21191  Biso   1.000  C
  N15      1.0000 0.69120  0.97600  0.01414  Biso   1.000  N
  O57      1.0000 0.69978  0.15170  0.16942  Biso   1.000  O
  O58      1.0000 0.75297  0.11055  0.24872  Biso   1.000  O
  O59      1.0000 0.68120  0.82677  0.18587  Biso   1.000  O
  O60      1.0000 0.73320  0.87039  0.26396  Biso   1.000  O
  Al16     1.0000 0.30148  0.76072  0.18077  Biso   1.000  Al
  C121     1.0000 0.28565  0.95670  0.16993  Biso   1.000  C
  C122     1.0000 0.28111  0.01089  0.20565  Biso   1.000  C
  H46      1.0000 0.26990  0.00890  0.24840  Biso   1.000  H
  C123     1.0000 0.29347  0.06837  0.17701  Biso   1.000  C
  C124     1.0000 0.30480  0.07052  0.11461  Biso   1.000  C
  H47      1.0000 0.31130  0.10960  0.09500  Biso   1.000  H
  C125     1.0000 0.30700  0.01682  0.07971  Biso   1.000  C
  C126     1.0000 0.29770  0.95909  0.10828  Biso   1.000  C
  H48      1.0000 0.29970  0.92190  0.08450  Biso   1.000  H
  C127     1.0000 0.27659  0.89346  0.19911  Biso   1.000  C
  C128     1.0000 0.29281  0.12813  0.21191  Biso   1.000  C
  N16      1.0000 0.30880  0.02400  0.01414  Biso   1.000  N
  O61      1.0000 0.30022  0.84830  0.16942  Biso   1.000  O
  O62      1.0000 0.24703  0.88945  0.24872  Biso   1.000  O
  O63      1.0000 0.31880  0.17323  0.18587  Biso   1.000  O
  O64      1.0000 0.26680  0.12961  0.26396  Biso   1.000  O
  Al17     1.0000 0.76072  0.81923  0.69852  Biso   1.000  Al
  C129     1.0000 0.95670  0.83007  0.71435  Biso   1.000  C
  C130     1.0000 0.01089  0.79435  0.71889  Biso   1.000  C
  H49      1.0000 0.00890  0.75160  0.73010  Biso   1.000  H
  C131     1.0000 0.06837  0.82299  0.70653  Biso   1.000  C
  C132     1.0000 0.07052  0.88539  0.69520  Biso   1.000  C
  H50      1.0000 0.10960  0.90500  0.68870  Biso   1.000  H
  C133     1.0000 0.01682  0.92029  0.69300  Biso   1.000  C
  C134     1.0000 0.95909  0.89172  0.70230  Biso   1.000  C
  H51      1.0000 0.92190  0.91550  0.70030  Biso   1.000  H
  C135     1.0000 0.89346  0.80089  0.72341  Biso   1.000  C
  C136     1.0000 0.12813  0.78809  0.70719  Biso   1.000  C
  N17      1.0000 0.02400  0.98586  0.69120  Biso   1.000  N
  O65      1.0000 0.84830  0.83058  0.69978  Biso   1.000  O
  O66      1.0000 0.88945  0.75128  0.75297  Biso   1.000  O
  O67      1.0000 0.17323  0.81413  0.68120  Biso   1.000  O
  O68      1.0000 0.12961  0.73604  0.73320  Biso   1.000  O
  Al18     1.0000 0.23928  0.81923  0.30148  Biso   1.000  Al
  C137     1.0000 0.04330  0.83007  0.28565  Biso   1.000  C
  C138     1.0000 0.98911  0.79435  0.28111  Biso   1.000  C
  H52      1.0000 0.99110  0.75160  0.26990  Biso   1.000  H
  C139     1.0000 0.93163  0.82299  0.29347  Biso   1.000  C
  C140     1.0000 0.92948  0.88539  0.30480  Biso   1.000  C
  H53      1.0000 0.89040  0.90500  0.31130  Biso   1.000  H
  C141     1.0000 0.98318  0.92029  0.30700  Biso   1.000  C
  C142     1.0000 0.04091  0.89172  0.29770  Biso   1.000  C
  H54      1.0000 0.07810  0.91550  0.29970  Biso   1.000  H
  C143     1.0000 0.10654  0.80089  0.27659  Biso   1.000  C
  C144     1.0000 0.87187  0.78809  0.29281  Biso   1.000  C
  N18      1.0000 0.97600  0.98586  0.30880  Biso   1.000  N
  O69      1.0000 0.15170  0.83058  0.30022  Biso   1.000  O
  O70      1.0000 0.11055  0.75128  0.24703  Biso   1.000  O
  O71      1.0000 0.82677  0.81413  0.31880  Biso   1.000  O
  O72      1.0000 0.87039  0.73604  0.26680  Biso   1.000  O
  Al19     1.0000 0.23928  0.18077  0.69852  Biso   1.000  Al
  C145     1.0000 0.04330  0.16993  0.71435  Biso   1.000  C
  C146     1.0000 0.98911  0.20565  0.71889  Biso   1.000  C
  H55      1.0000 0.99110  0.24840  0.73010  Biso   1.000  H
  C147     1.0000 0.93163  0.17701  0.70653  Biso   1.000  C
  C148     1.0000 0.92948  0.11461  0.69520  Biso   1.000  C
  H56      1.0000 0.89040  0.09500  0.68870  Biso   1.000  H
  C149     1.0000 0.98318  0.07971  0.69300  Biso   1.000  C
  C150     1.0000 0.04091  0.10828  0.70230  Biso   1.000  C
  H57      1.0000 0.07810  0.08450  0.70030  Biso   1.000  H
  C151     1.0000 0.10654  0.19911  0.72341  Biso   1.000  C
  C152     1.0000 0.87187  0.21191  0.70719  Biso   1.000  C
  N19      1.0000 0.97600  0.01414  0.69120  Biso   1.000  N
  O73      1.0000 0.15170  0.16942  0.69978  Biso   1.000  O
  O74      1.0000 0.11055  0.24872  0.75297  Biso   1.000  O
  O75      1.0000 0.82677  0.18587  0.68120  Biso   1.000  O
  O76      1.0000 0.87039  0.26396  0.73320  Biso   1.000  O
  Al20     1.0000 0.76072  0.18077  0.30148  Biso   1.000  Al
  C153     1.0000 0.95670  0.16993  0.28565  Biso   1.000  C
  C154     1.0000 0.01089  0.20565  0.28111  Biso   1.000  C
  H58      1.0000 0.00890  0.24840  0.26990  Biso   1.000  H
  C155     1.0000 0.06837  0.17701  0.29347  Biso   1.000  C
  C156     1.0000 0.07052  0.11461  0.30480  Biso   1.000  C
  H59      1.0000 0.10960  0.09500  0.31130  Biso   1.000  H
  C157     1.0000 0.01682  0.07971  0.30700  Biso   1.000  C
  C158     1.0000 0.95909  0.10828  0.29770  Biso   1.000  C
  H60      1.0000 0.92190  0.08450  0.29970  Biso   1.000  H
  C159     1.0000 0.89346  0.19911  0.27659  Biso   1.000  C
  C160     1.0000 0.12813  0.21191  0.29281  Biso   1.000  C
  N20      1.0000 0.02400  0.01414  0.30880  Biso   1.000  N
  O77      1.0000 0.84830  0.16942  0.30022  Biso   1.000  O
  O78      1.0000 0.88945  0.24872  0.24703  Biso   1.000  O
  O79      1.0000 0.17323  0.18587  0.31880  Biso   1.000  O
  O80      1.0000 0.12961  0.26396  0.26680  Biso   1.000  O
  Al21     1.0000 0.81923  0.69852  0.76072  Biso   1.000  Al
  C161     1.0000 0.83007  0.71435  0.95670  Biso   1.000  C
  C162     1.0000 0.79435  0.71889  0.01089  Biso   1.000  C
  H61      1.0000 0.75160  0.73010  0.00890  Biso   1.000  H
  C163     1.0000 0.82299  0.70653  0.06837  Biso   1.000  C
  C164     1.0000 0.88539  0.69520  0.07052  Biso   1.000  C
  H62      1.0000 0.90500  0.68870  0.10960  Biso   1.000  H
  C165     1.0000 0.92029  0.69300  0.01682  Biso   1.000  C
  C166     1.0000 0.89172  0.70230  0.95909  Biso   1.000  C
  H63      1.0000 0.91550  0.70030  0.92190  Biso   1.000  H
  C167     1.0000 0.80089  0.72341  0.89346  Biso   1.000  C
  C168     1.0000 0.78809  0.70719  0.12813  Biso   1.000  C
  N21      1.0000 0.98586  0.69120  0.02400  Biso   1.000  N
  O81      1.0000 0.83058  0.69978  0.84830  Biso   1.000  O
  O82      1.0000 0.75128  0.75297  0.88945  Biso   1.000  O
  O83      1.0000 0.81413  0.68120  0.17323  Biso   1.000  O
  O84      1.0000 0.73604  0.73320  0.12961  Biso   1.000  O
  Al22     1.0000 0.81923  0.30148  0.23928  Biso   1.000  Al
  C169     1.0000 0.83007  0.28565  0.04330  Biso   1.000  C
  C170     1.0000 0.79435  0.28111  0.98911  Biso   1.000  C
  H64      1.0000 0.75160  0.26990  0.99110  Biso   1.000  H
  C171     1.0000 0.82299  0.29347  0.93163  Biso   1.000  C
  C172     1.0000 0.88539  0.30480  0.92948  Biso   1.000  C
  H65      1.0000 0.90500  0.31130  0.89040  Biso   1.000  H
  C173     1.0000 0.92029  0.30700  0.98318  Biso   1.000  C
  C174     1.0000 0.89172  0.29770  0.04091  Biso   1.000  C
  H66      1.0000 0.91550  0.29970  0.07810  Biso   1.000  H
  C175     1.0000 0.80089  0.27659  0.10654  Biso   1.000  C
  C176     1.0000 0.78809  0.29281  0.87187  Biso   1.000  C
  N22      1.0000 0.98586  0.30880  0.97600  Biso   1.000  N
  O85      1.0000 0.83058  0.30022  0.15170  Biso   1.000  O
  O86      1.0000 0.75128  0.24703  0.11055  Biso   1.000  O
  O87      1.0000 0.81413  0.31880  0.82677  Biso   1.000  O
  O88      1.0000 0.73604  0.26680  0.87039  Biso   1.000  O
  Al23     1.0000 0.18077  0.69852  0.23928  Biso   1.000  Al
  C177     1.0000 0.16993  0.71435  0.04330  Biso   1.000  C
  C178     1.0000 0.20565  0.71889  0.98911  Biso   1.000  C
  H67      1.0000 0.24840  0.73010  0.99110  Biso   1.000  H
  C179     1.0000 0.17701  0.70653  0.93163  Biso   1.000  C
  C180     1.0000 0.11461  0.69520  0.92948  Biso   1.000  C
  H68      1.0000 0.09500  0.68870  0.89040  Biso   1.000  H
  C181     1.0000 0.07971  0.69300  0.98318  Biso   1.000  C
  C182     1.0000 0.10828  0.70230  0.04091  Biso   1.000  C
  H69      1.0000 0.08450  0.70030  0.07810  Biso   1.000  H
  C183     1.0000 0.19911  0.72341  0.10654  Biso   1.000  C
  C184     1.0000 0.21191  0.70719  0.87187  Biso   1.000  C
  N23      1.0000 0.01414  0.69120  0.97600  Biso   1.000  N
  O89      1.0000 0.16942  0.69978  0.15170  Biso   1.000  O
  O90      1.0000 0.24872  0.75297  0.11055  Biso   1.000  O
  O91      1.0000 0.18587  0.68120  0.82677  Biso   1.000  O
  O92      1.0000 0.26396  0.73320  0.87039  Biso   1.000  O
  Al24     1.0000 0.18077  0.30148  0.76072  Biso   1.000  Al
  C185     1.0000 0.16993  0.28565  0.95670  Biso   1.000  C
  C186     1.0000 0.20565  0.28111  0.01089  Biso   1.000  C
  H70      1.0000 0.24840  0.26990  0.00890  Biso   1.000  H
  C187     1.0000 0.17701  0.29347  0.06837  Biso   1.000  C
  C188     1.0000 0.11461  0.30480  0.07052  Biso   1.000  C
  H71      1.0000 0.09500  0.31130  0.10960  Biso   1.000  H
  C189     1.0000 0.07971  0.30700  0.01682  Biso   1.000  C
  C190     1.0000 0.10828  0.29770  0.95909  Biso   1.000  C
  H72      1.0000 0.08450  0.29970  0.92190  Biso   1.000  H
  C191     1.0000 0.19911  0.27659  0.89346  Biso   1.000  C
  C192     1.0000 0.21191  0.29281  0.12813  Biso   1.000  C
  N24      1.0000 0.01414  0.30880  0.02400  Biso   1.000  N
  O93      1.0000 0.16942  0.30022  0.84830  Biso   1.000  O
  O94      1.0000 0.24872  0.24703  0.88945  Biso   1.000  O
  O95      1.0000 0.18587  0.31880  0.17323  Biso   1.000  O
  O96      1.0000 0.26396  0.26680  0.12961  Biso   1.000  O
  O97      1.0000 0.25938  0.25938  0.25938  Biso   1.000  O
  O98      1.0000 0.74062  0.74062  0.25938  Biso   1.000  O
  O99      1.0000 0.74062  0.25938  0.74062  Biso   1.000  O
  O100     1.0000 0.25938  0.74062  0.74062  Biso   1.000  O
  O101     1.0000 0.75938  0.75938  0.75938  Biso   1.000  O
  O102     1.0000 0.24062  0.24062  0.75938  Biso   1.000  O
  O103     1.0000 0.75938  0.24062  0.24062  Biso   1.000  O
  O104     1.0000 0.24062  0.75938  0.24062  Biso   1.000  O
