data_image0
_cell_length_a       20.124
_cell_length_b       7.0312
_cell_length_c       17.2274
_cell_angle_alpha    90
_cell_angle_beta     90
_cell_angle_gamma    90

_symmetry_space_group_name_H-M    "P 1"
_symmetry_int_tables_number       1

loop_
  _symmetry_equiv_pos_as_xyz
  'x, y, z'

loop_
  _atom_site_label
  _atom_site_occupancy
  _atom_site_fract_x
  _atom_site_fract_y
  _atom_site_fract_z
  _atom_site_thermal_displace_type
  _atom_site_B_iso_or_equiv
  _atom_site_type_symbol
  Cu1      1.0000 0.50856  0.84551  0.59478  Biso   1.000  Cu
  O1       1.0000 0.42778  0.70450  0.55876  Biso   1.000  O
  O2       1.0000 0.50707  0.77990  0.48281  Biso   1.000  O
  O3       1.0000 0.48812  0.63010  0.20139  Biso   1.000  O
  O4       1.0000 0.40764  0.44270  0.16102  Biso   1.000  O
  N1       1.0000 0.10176  0.41290  0.39683  Biso   1.000  N
  C1       1.0000 0.45157  0.70690  0.49152  Biso   1.000  C
  C2       1.0000 0.43531  0.53550  0.21189  Biso   1.000  C
  C3       1.0000 0.41301  0.62700  0.42602  Biso   1.000  C
  C4       1.0000 0.44345  0.61130  0.35367  Biso   1.000  C
  H1       1.0000 0.48790  0.64400  0.34700  Biso   1.000  H
  C5       1.0000 0.40589  0.54570  0.29220  Biso   1.000  C
  C6       1.0000 0.34023  0.50240  0.30228  Biso   1.000  C
  H2       1.0000 0.31590  0.45770  0.26020  Biso   1.000  H
  C7       1.0000 0.30879  0.52310  0.37373  Biso   1.000  C
  C8       1.0000 0.34796  0.58490  0.43535  Biso   1.000  C
  H3       1.0000 0.32890  0.59750  0.48420  Biso   1.000  H
  C9       1.0000 0.23753  0.48900  0.38229  Biso   1.000  C
  C10      1.0000 0.19454  0.49540  0.31957  Biso   1.000  C
  H4       1.0000 0.21130  0.52450  0.27070  Biso   1.000  H
  C11      1.0000 0.12903  0.46040  0.32773  Biso   1.000  C
  H5       1.0000 0.10170  0.46920  0.28440  Biso   1.000  H
  C12      1.0000 0.14247  0.40760  0.45853  Biso   1.000  C
  H6       1.0000 0.12480  0.37710  0.50680  Biso   1.000  H
  C13      1.0000 0.20864  0.44510  0.45313  Biso   1.000  C
  H7       1.0000 0.23480  0.44130  0.49760  Biso   1.000  H
  Cu2      1.0000 0.00856  0.15449  0.90521  Biso   1.000  Cu
  O5       1.0000 0.92778  0.29550  0.94124  Biso   1.000  O
  O6       1.0000 0.00707  0.22010  0.01719  Biso   1.000  O
  O7       1.0000 0.98812  0.36990  0.29861  Biso   1.000  O
  O8       1.0000 0.90764  0.55730  0.33898  Biso   1.000  O
  N2       1.0000 0.60176  0.58710  0.10317  Biso   1.000  N
  C14      1.0000 0.95157  0.29310  0.00848  Biso   1.000  C
  C15      1.0000 0.93531  0.46450  0.28811  Biso   1.000  C
  C16      1.0000 0.91301  0.37300  0.07398  Biso   1.000  C
  C17      1.0000 0.94345  0.38870  0.14633  Biso   1.000  C
  H8       1.0000 0.98790  0.35600  0.15300  Biso   1.000  H
  C18      1.0000 0.90589  0.45430  0.20780  Biso   1.000  C
  C19      1.0000 0.84023  0.49760  0.19772  Biso   1.000  C
  H9       1.0000 0.81590  0.54230  0.23980  Biso   1.000  H
  C20      1.0000 0.80879  0.47690  0.12627  Biso   1.000  C
  C21      1.0000 0.84796  0.41510  0.06465  Biso   1.000  C
  H10      1.0000 0.82890  0.40250  0.01580  Biso   1.000  H
  C22      1.0000 0.73753  0.51100  0.11771  Biso   1.000  C
  C23      1.0000 0.69454  0.50460  0.18043  Biso   1.000  C
  H11      1.0000 0.71130  0.47550  0.22930  Biso   1.000  H
  C24      1.0000 0.62903  0.53960  0.17227  Biso   1.000  C
  H12      1.0000 0.60170  0.53080  0.21560  Biso   1.000  H
  C25      1.0000 0.64247  0.59240  0.04147  Biso   1.000  C
  H13      1.0000 0.62480  0.62290  0.99320  Biso   1.000  H
  C26      1.0000 0.70864  0.55490  0.04687  Biso   1.000  C
  H14      1.0000 0.73480  0.55870  0.00240  Biso   1.000  H
  Cu3      1.0000 0.00856  0.34551  0.40522  Biso   1.000  Cu
  O9       1.0000 0.92778  0.20450  0.44124  Biso   1.000  O
  O10      1.0000 0.00707  0.27990  0.51719  Biso   1.000  O
  O11      1.0000 0.98812  0.13010  0.79861  Biso   1.000  O
  O12      1.0000 0.90764  0.94270  0.83898  Biso   1.000  O
  N3       1.0000 0.60176  0.91290  0.60317  Biso   1.000  N
  C27      1.0000 0.95157  0.20690  0.50848  Biso   1.000  C
  C28      1.0000 0.93531  0.03550  0.78811  Biso   1.000  C
  C29      1.0000 0.91301  0.12700  0.57398  Biso   1.000  C
  C30      1.0000 0.94345  0.11130  0.64633  Biso   1.000  C
  H15      1.0000 0.98790  0.14400  0.65300  Biso   1.000  H
  C31      1.0000 0.90589  0.04570  0.70780  Biso   1.000  C
  C32      1.0000 0.84023  0.00240  0.69772  Biso   1.000  C
  H16      1.0000 0.81590  0.95770  0.73980  Biso   1.000  H
  C33      1.0000 0.80879  0.02310  0.62627  Biso   1.000  C
  C34      1.0000 0.84796  0.08490  0.56465  Biso   1.000  C
  H17      1.0000 0.82890  0.09750  0.51580  Biso   1.000  H
  C35      1.0000 0.73753  0.98900  0.61771  Biso   1.000  C
  C36      1.0000 0.69454  0.99540  0.68043  Biso   1.000  C
  H18      1.0000 0.71130  0.02450  0.72930  Biso   1.000  H
  C37      1.0000 0.62903  0.96040  0.67227  Biso   1.000  C
  H19      1.0000 0.60170  0.96920  0.71560  Biso   1.000  H
  C38      1.0000 0.64247  0.90760  0.54147  Biso   1.000  C
  H20      1.0000 0.62480  0.87710  0.49320  Biso   1.000  H
  C39      1.0000 0.70864  0.94510  0.54687  Biso   1.000  C
  H21      1.0000 0.73480  0.94130  0.50240  Biso   1.000  H
  Cu4      1.0000 0.50856  0.65449  0.09478  Biso   1.000  Cu
  O13      1.0000 0.42778  0.79550  0.05876  Biso   1.000  O
  O14      1.0000 0.50707  0.72010  0.98281  Biso   1.000  O
  O15      1.0000 0.48812  0.86990  0.70139  Biso   1.000  O
  O16      1.0000 0.40764  0.05730  0.66102  Biso   1.000  O
  N4       1.0000 0.10176  0.08710  0.89683  Biso   1.000  N
  C40      1.0000 0.45157  0.79310  0.99152  Biso   1.000  C
  C41      1.0000 0.43531  0.96450  0.71189  Biso   1.000  C
  C42      1.0000 0.41301  0.87300  0.92602  Biso   1.000  C
  C43      1.0000 0.44345  0.88870  0.85367  Biso   1.000  C
  H22      1.0000 0.48790  0.85600  0.84700  Biso   1.000  H
  C44      1.0000 0.40589  0.95430  0.79220  Biso   1.000  C
  C45      1.0000 0.34023  0.99760  0.80228  Biso   1.000  C
  H23      1.0000 0.31590  0.04230  0.76020  Biso   1.000  H
  C46      1.0000 0.30879  0.97690  0.87373  Biso   1.000  C
  C47      1.0000 0.34796  0.91510  0.93535  Biso   1.000  C
  H24      1.0000 0.32890  0.90250  0.98420  Biso   1.000  H
  C48      1.0000 0.23753  0.01100  0.88229  Biso   1.000  C
  C49      1.0000 0.19454  0.00460  0.81957  Biso   1.000  C
  H25      1.0000 0.21130  0.97550  0.77070  Biso   1.000  H
  C50      1.0000 0.12903  0.03960  0.82773  Biso   1.000  C
  H26      1.0000 0.10170  0.03080  0.78440  Biso   1.000  H
  C51      1.0000 0.14247  0.09240  0.95853  Biso   1.000  C
  H27      1.0000 0.12480  0.12290  0.00680  Biso   1.000  H
  C52      1.0000 0.20864  0.05490  0.95313  Biso   1.000  C
  H28      1.0000 0.23480  0.05870  0.99760  Biso   1.000  H
  Cu5      1.0000 0.99144  0.65449  0.59478  Biso   1.000  Cu
  O17      1.0000 0.07222  0.79550  0.55876  Biso   1.000  O
  O18      1.0000 0.99293  0.72010  0.48281  Biso   1.000  O
  O19      1.0000 0.01188  0.86990  0.20139  Biso   1.000  O
  O20      1.0000 0.09236  0.05730  0.16102  Biso   1.000  O
  N5       1.0000 0.39824  0.08710  0.39683  Biso   1.000  N
  C53      1.0000 0.04843  0.79310  0.49152  Biso   1.000  C
  C54      1.0000 0.06469  0.96450  0.21189  Biso   1.000  C
  C55      1.0000 0.08699  0.87300  0.42602  Biso   1.000  C
  C56      1.0000 0.05655  0.88870  0.35367  Biso   1.000  C
  H29      1.0000 0.01210  0.85600  0.34700  Biso   1.000  H
  C57      1.0000 0.09411  0.95430  0.29220  Biso   1.000  C
  C58      1.0000 0.15977  0.99760  0.30228  Biso   1.000  C
  H30      1.0000 0.18410  0.04230  0.26020  Biso   1.000  H
  C59      1.0000 0.19121  0.97690  0.37373  Biso   1.000  C
  C60      1.0000 0.15204  0.91510  0.43535  Biso   1.000  C
  H31      1.0000 0.17110  0.90250  0.48420  Biso   1.000  H
  C61      1.0000 0.26247  0.01100  0.38229  Biso   1.000  C
  C62      1.0000 0.30546  0.00460  0.31957  Biso   1.000  C
  H32      1.0000 0.28870  0.97550  0.27070  Biso   1.000  H
  C63      1.0000 0.37097  0.03960  0.32773  Biso   1.000  C
  H33      1.0000 0.39830  0.03080  0.28440  Biso   1.000  H
  C64      1.0000 0.35753  0.09240  0.45853  Biso   1.000  C
  H34      1.0000 0.37520  0.12290  0.50680  Biso   1.000  H
  C65      1.0000 0.29136  0.05490  0.45313  Biso   1.000  C
  H35      1.0000 0.26520  0.05870  0.49760  Biso   1.000  H
  Cu6      1.0000 0.49144  0.34551  0.90521  Biso   1.000  Cu
  O21      1.0000 0.57222  0.20450  0.94124  Biso   1.000  O
  O22      1.0000 0.49293  0.27990  0.01719  Biso   1.000  O
  O23      1.0000 0.51188  0.13010  0.29861  Biso   1.000  O
  O24      1.0000 0.59236  0.94270  0.33898  Biso   1.000  O
  N6       1.0000 0.89824  0.91290  0.10317  Biso   1.000  N
  C66      1.0000 0.54843  0.20690  0.00848  Biso   1.000  C
  C67      1.0000 0.56469  0.03550  0.28811  Biso   1.000  C
  C68      1.0000 0.58699  0.12700  0.07398  Biso   1.000  C
  C69      1.0000 0.55655  0.11130  0.14633  Biso   1.000  C
  H36      1.0000 0.51210  0.14400  0.15300  Biso   1.000  H
  C70      1.0000 0.59411  0.04570  0.20780  Biso   1.000  C
  C71      1.0000 0.65977  0.00240  0.19772  Biso   1.000  C
  H37      1.0000 0.68410  0.95770  0.23980  Biso   1.000  H
  C72      1.0000 0.69121  0.02310  0.12627  Biso   1.000  C
  C73      1.0000 0.65204  0.08490  0.06465  Biso   1.000  C
  H38      1.0000 0.67110  0.09750  0.01580  Biso   1.000  H
  C74      1.0000 0.76247  0.98900  0.11771  Biso   1.000  C
  C75      1.0000 0.80546  0.99540  0.18043  Biso   1.000  C
  H39      1.0000 0.78870  0.02450  0.22930  Biso   1.000  H
  C76      1.0000 0.87097  0.96040  0.17227  Biso   1.000  C
  H40      1.0000 0.89830  0.96920  0.21560  Biso   1.000  H
  C77      1.0000 0.85753  0.90760  0.04147  Biso   1.000  C
  H41      1.0000 0.87520  0.87710  0.99320  Biso   1.000  H
  C78      1.0000 0.79136  0.94510  0.04687  Biso   1.000  C
  H42      1.0000 0.76520  0.94130  0.00240  Biso   1.000  H
  Cu7      1.0000 0.49144  0.15449  0.40522  Biso   1.000  Cu
  O25      1.0000 0.57222  0.29550  0.44124  Biso   1.000  O
  O26      1.0000 0.49293  0.22010  0.51719  Biso   1.000  O
  O27      1.0000 0.51188  0.36990  0.79861  Biso   1.000  O
  O28      1.0000 0.59236  0.55730  0.83898  Biso   1.000  O
  N7       1.0000 0.89824  0.58710  0.60317  Biso   1.000  N
  C79      1.0000 0.54843  0.29310  0.50848  Biso   1.000  C
  C80      1.0000 0.56469  0.46450  0.78811  Biso   1.000  C
  C81      1.0000 0.58699  0.37300  0.57398  Biso   1.000  C
  C82      1.0000 0.55655  0.38870  0.64633  Biso   1.000  C
  H43      1.0000 0.51210  0.35600  0.65300  Biso   1.000  H
  C83      1.0000 0.59411  0.45430  0.70780  Biso   1.000  C
  C84      1.0000 0.65977  0.49760  0.69772  Biso   1.000  C
  H44      1.0000 0.68410  0.54230  0.73980  Biso   1.000  H
  C85      1.0000 0.69121  0.47690  0.62627  Biso   1.000  C
  C86      1.0000 0.65204  0.41510  0.56465  Biso   1.000  C
  H45      1.0000 0.67110  0.40250  0.51580  Biso   1.000  H
  C87      1.0000 0.76247  0.51100  0.61771  Biso   1.000  C
  C88      1.0000 0.80546  0.50460  0.68043  Biso   1.000  C
  H46      1.0000 0.78870  0.47550  0.72930  Biso   1.000  H
  C89      1.0000 0.87097  0.53960  0.67227  Biso   1.000  C
  H47      1.0000 0.89830  0.53080  0.71560  Biso   1.000  H
  C90      1.0000 0.85753  0.59240  0.54147  Biso   1.000  C
  H48      1.0000 0.87520  0.62290  0.49320  Biso   1.000  H
  C91      1.0000 0.79136  0.55490  0.54687  Biso   1.000  C
  H49      1.0000 0.76520  0.55870  0.50240  Biso   1.000  H
  Cu8      1.0000 0.99144  0.84551  0.09478  Biso   1.000  Cu
  O29      1.0000 0.07222  0.70450  0.05876  Biso   1.000  O
  O30      1.0000 0.99293  0.77990  0.98281  Biso   1.000  O
  O31      1.0000 0.01188  0.63010  0.70139  Biso   1.000  O
  O32      1.0000 0.09236  0.44270  0.66102  Biso   1.000  O
  N8       1.0000 0.39824  0.41290  0.89683  Biso   1.000  N
  C92      1.0000 0.04843  0.70690  0.99152  Biso   1.000  C
  C93      1.0000 0.06469  0.53550  0.71189  Biso   1.000  C
  C94      1.0000 0.08699  0.62700  0.92602  Biso   1.000  C
  C95      1.0000 0.05655  0.61130  0.85367  Biso   1.000  C
  H50      1.0000 0.01210  0.64400  0.84700  Biso   1.000  H
  C96      1.0000 0.09411  0.54570  0.79220  Biso   1.000  C
  C97      1.0000 0.15977  0.50240  0.80228  Biso   1.000  C
  H51      1.0000 0.18410  0.45770  0.76020  Biso   1.000  H
  C98      1.0000 0.19121  0.52310  0.87373  Biso   1.000  C
  C99      1.0000 0.15204  0.58490  0.93535  Biso   1.000  C
  H52      1.0000 0.17110  0.59750  0.98420  Biso   1.000  H
  C100     1.0000 0.26247  0.48900  0.88229  Biso   1.000  C
  C101     1.0000 0.30546  0.49540  0.81957  Biso   1.000  C
  H53      1.0000 0.28870  0.52450  0.77070  Biso   1.000  H
  C102     1.0000 0.37097  0.46040  0.82773  Biso   1.000  C
  H54      1.0000 0.39830  0.46920  0.78440  Biso   1.000  H
  C103     1.0000 0.35753  0.40760  0.95853  Biso   1.000  C
  H55      1.0000 0.37520  0.37710  0.00680  Biso   1.000  H
  C104     1.0000 0.29136  0.44510  0.95313  Biso   1.000  C
  H56      1.0000 0.26520  0.44130  0.99760  Biso   1.000  H
