data_JASNEX_clean
_audit_creation_date              2014-07-02
_audit_creation_method            'Materials Studio'
_symmetry_space_group_name_H-M    'P1'
_symmetry_Int_Tables_number       1
_symmetry_cell_setting            triclinic
loop_
_symmetry_equiv_pos_as_xyz
  x,y,z
_cell_length_a                    7.7530
_cell_length_b                    10.4580
_cell_length_c                    11.2386
_cell_angle_alpha                 62.2721
_cell_angle_beta                  85.3336
_cell_angle_gamma                 79.9299
loop_
_atom_site_label
_atom_site_type_symbol
_atom_site_fract_x
_atom_site_fract_y
_atom_site_fract_z
_atom_site_U_iso_or_equiv
_atom_site_adp_type
_atom_site_occupancy
Zn1    Zn    0.11240   0.60011   1.00000   0.01267  Uiso   1.00
Zn2    Zn    0.88760   0.39989   0.00000   0.01267  Uiso   1.00
H1     H     0.77160   0.14590   0.42680   0.01267  Uiso   1.00
H2     H     0.89970   0.97180   0.62040   0.01267  Uiso   1.00
H3     H     0.49340   0.74710   0.72220   0.01267  Uiso   1.00
H4     H     0.22840   0.42730   0.42680   0.01267  Uiso   1.00
H5     H     0.10030   0.40780   0.62040   0.01267  Uiso   1.00
H6     H     0.50660   0.53070   0.72220   0.01267  Uiso   1.00
H7     H     0.22840   0.85410   0.57320   0.01267  Uiso   1.00
H8     H     0.10030   0.02820   0.37960   0.01267  Uiso   1.00
H9     H     0.50660   0.25290   0.27780   0.01267  Uiso   1.00
H10    H     0.77160   0.57270   0.57320   0.01267  Uiso   1.00
H11    H     0.89970   0.59220   0.37960   0.01267  Uiso   1.00
H12    H     0.49340   0.46930   0.27780   0.01267  Uiso   1.00
H13    H     0.03610   0.90320   1.00000   0.01267  Uiso   1.00
H14    H     0.19730   0.07150   0.00000   0.01267  Uiso   1.00
H15    H     0.64620   0.80960   1.00000   0.01267  Uiso   1.00
H16    H     0.48510   0.64130   1.00000   0.01267  Uiso   1.00
H17    H     0.96390   0.09680   0.00000   0.01267  Uiso   1.00
H18    H     0.80270   0.92850   1.00000   0.01267  Uiso   1.00
H19    H     0.35380   0.19040   0.00000   0.01267  Uiso   1.00
H20    H     0.51490   0.35870   0.00000   0.01267  Uiso   1.00
C1     C     0.53930   0.06300   0.45300   0.01267  Uiso   1.00
C2     C     0.71240   0.06850   0.48520   0.01267  Uiso   1.00
C3     C     0.78920   0.96260   0.59900   0.01267  Uiso   1.00
C4     C     0.54760   0.82730   0.66280   0.01267  Uiso   1.00
C5     C     0.71500   0.83760   0.68940   0.01267  Uiso   1.00
C6     C     0.80700   0.71540   0.80920   0.01267  Uiso   1.00
C7     C     0.46070   0.48400   0.45300   0.01267  Uiso   1.00
C8     C     0.28760   0.44630   0.48520   0.01267  Uiso   1.00
C9     C     0.21080   0.43840   0.59900   0.01267  Uiso   1.00
C10    C     0.45240   0.50990   0.66280   0.01267  Uiso   1.00
C11    C     0.28500   0.47300   0.68940   0.01267  Uiso   1.00
C12    C     0.19300   0.47540   0.80920   0.01267  Uiso   1.00
C13    C     0.46070   0.93700   0.54700   0.01267  Uiso   1.00
C14    C     0.28760   0.93150   0.51480   0.01267  Uiso   1.00
C15    C     0.21080   0.03740   0.40100   0.01267  Uiso   1.00
C16    C     0.45240   0.17270   0.33720   0.01267  Uiso   1.00
C17    C     0.28500   0.16240   0.31060   0.01267  Uiso   1.00
C18    C     0.19300   0.28460   0.19080   0.01267  Uiso   1.00
C19    C     0.53930   0.51600   0.54700   0.01267  Uiso   1.00
C20    C     0.71240   0.55370   0.51480   0.01267  Uiso   1.00
C21    C     0.78920   0.56160   0.40100   0.01267  Uiso   1.00
C22    C     0.54760   0.49010   0.33720   0.01267  Uiso   1.00
C23    C     0.71500   0.52700   0.31060   0.01267  Uiso   1.00
C24    C     0.80700   0.52460   0.19080   0.01267  Uiso   1.00
C25    C     0.15920   0.88430   1.00000   0.01267  Uiso   1.00
C26    C     0.25530   0.98480   0.00000   0.01267  Uiso   1.00
C27    C     0.43730   0.95680   1.00000   0.01267  Uiso   1.00
C28    C     0.52310   0.82850   1.00000   0.01267  Uiso   1.00
C29    C     0.42700   0.72810   0.00000   0.01267  Uiso   1.00
C30    C     0.84080   0.11570   0.00000   0.01267  Uiso   1.00
C31    C     0.74470   0.01520   0.00000   0.01267  Uiso   1.00
C32    C     0.56270   0.04320   0.00000   0.01267  Uiso   1.00
C33    C     0.47690   0.17150   0.00000   0.01267  Uiso   1.00
C34    C     0.57300   0.27190   0.00000   0.01267  Uiso   1.00
N1     N     0.24500   0.75600   0.00000   0.01267  Uiso   1.00
N2     N     0.75500   0.24400   0.00000   0.01267  Uiso   1.00
O1     O     0.93290   0.74140   0.85380   0.01267  Uiso   1.00
O2     O     0.76080   0.59160   0.85940   0.01267  Uiso   1.00
O3     O     0.06710   0.40480   0.85380   0.01267  Uiso   1.00
O4     O     0.23920   0.54900   0.85940   0.01267  Uiso   1.00
O5     O     0.06710   0.25860   0.14620   0.01267  Uiso   1.00
O6     O     0.23920   0.40840   0.14060   0.01267  Uiso   1.00
O7     O     0.93290   0.59520   0.14620   0.01267  Uiso   1.00
O8     O     0.76080   0.45100   0.14060   0.01267  Uiso   1.00
