data_JASNAT_clean
_audit_creation_date              2014-07-02
_audit_creation_method            'Materials Studio'
_symmetry_space_group_name_H-M    'P1'
_symmetry_Int_Tables_number       1
_symmetry_cell_setting            triclinic
loop_
_symmetry_equiv_pos_as_xyz
  x,y,z
_cell_length_a                    10.8830
_cell_length_b                    10.9258
_cell_length_c                    14.0658
_cell_angle_alpha                 92.4170
_cell_angle_beta                  90.0990
_cell_angle_gamma                 101.7230
loop_
_atom_site_label
_atom_site_type_symbol
_atom_site_fract_x
_atom_site_fract_y
_atom_site_fract_z
_atom_site_U_iso_or_equiv
_atom_site_adp_type
_atom_site_occupancy
Zn1    Zn    0.26504   0.34438   0.89078   0.01267  Uiso   1.00
Zn2    Zn    0.26209   0.33156   0.68186   0.01267  Uiso   1.00
H1     H     0.66180   0.35680   0.93060   0.01267  Uiso   1.00
H2     H     0.87370   0.34920   0.92980   0.01267  Uiso   1.00
H3     H     0.65400   0.32650   0.64390   0.01267  Uiso   1.00
H4     H     0.25520   0.71740   0.64370   0.01267  Uiso   1.00
H5     H     0.26520   0.74440   0.92710   0.01267  Uiso   1.00
H6     H     0.25030   0.95300   0.92420   0.01267  Uiso   1.00
H7     H     0.23780   0.92740   0.63930   0.01267  Uiso   1.00
H8     H     0.86570   0.31950   0.64330   0.01267  Uiso   1.00
H9     H     0.08490   0.31950   0.52130   0.01267  Uiso   1.00
H10    H     0.07910   0.31480   0.35860   0.01267  Uiso   1.00
H11    H     0.44790   0.36230   0.35950   0.01267  Uiso   1.00
H12    H     0.44340   0.35850   0.52260   0.01267  Uiso   1.00
H13    H     0.07500   0.32420   0.21220   0.01267  Uiso   1.00
H14    H     0.45120   0.35330   0.21440   0.01267  Uiso   1.00
H15    H     0.08190   0.32390   0.04960   0.01267  Uiso   1.00
H16    H     0.44550   0.35120   0.05160   0.01267  Uiso   1.00
C1     C     0.49970   0.34950   0.78760   0.01267  Uiso   1.00
C2     C     0.63630   0.34290   0.78790   0.01267  Uiso   1.00
C3     C     0.70260   0.34920   0.87250   0.01267  Uiso   1.00
C4     C     0.82910   0.34460   0.87200   0.01267  Uiso   1.00
C5     C     0.69850   0.33130   0.70180   0.01267  Uiso   1.00
C6     C     0.27930   0.57740   0.78760   0.01267  Uiso   1.00
C7     C     0.26660   0.71160   0.78600   0.01267  Uiso   1.00
C8     C     0.25560   0.76530   0.70080   0.01267  Uiso   1.00
C9     C     0.26180   0.78150   0.86830   0.01267  Uiso   1.00
C10    C     0.24240   0.09850   0.77820   0.01267  Uiso   1.00
C11    C     0.24510   0.96120   0.78200   0.01267  Uiso   1.00
C12    C     0.25210   0.90630   0.86670   0.01267  Uiso   1.00
C13    C     0.24490   0.89120   0.69790   0.01267  Uiso   1.00
C14    C     0.02790   0.32830   0.78720   0.01267  Uiso   1.00
C15    C     0.88950   0.33310   0.78720   0.01267  Uiso   1.00
C16    C     0.82430   0.32680   0.70130   0.01267  Uiso   1.00
C17    C     0.16070   0.32590   0.48820   0.01267  Uiso   1.00
C18    C     0.15690   0.32460   0.39020   0.01267  Uiso   1.00
C19    C     0.26340   0.33720   0.33880   0.01267  Uiso   1.00
C20    C     0.37030   0.35120   0.39060   0.01267  Uiso   1.00
C21    C     0.36710   0.34930   0.48900   0.01267  Uiso   1.00
C22    C     0.26290   0.33760   0.23440   0.01267  Uiso   1.00
C23    C     0.15230   0.32980   0.18120   0.01267  Uiso   1.00
C24    C     0.37400   0.34690   0.18250   0.01267  Uiso   1.00
C25    C     0.15740   0.33050   0.08390   0.01267  Uiso   1.00
C26    C     0.36990   0.34660   0.08480   0.01267  Uiso   1.00
N1     N     0.26380   0.33530   0.53700   0.01267  Uiso   1.00
N2     N     0.26510   0.34020   0.03480   0.01267  Uiso   1.00
O1     O     0.44970   0.35720   0.86690   0.01267  Uiso   1.00
O2     O     0.44680   0.34500   0.70790   0.01267  Uiso   1.00
O3     O     0.28390   0.53170   0.86770   0.01267  Uiso   1.00
O4     O     0.28580   0.52110   0.71060   0.01267  Uiso   1.00
O5     O     0.24390   0.15720   0.85770   0.01267  Uiso   1.00
O6     O     0.23960   0.14500   0.69880   0.01267  Uiso   1.00
O7     O     0.08050   0.33120   0.86590   0.01267  Uiso   1.00
O8     O     0.07870   0.32380   0.70740   0.01267  Uiso   1.00
Zn3    Zn    0.73496   0.65562   0.10922   0.01267  Uiso   1.00
Zn4    Zn    0.73791   0.66844   0.31814   0.01267  Uiso   1.00
H17    H     0.33820   0.64320   0.06940   0.01267  Uiso   1.00
H18    H     0.12630   0.65080   0.07020   0.01267  Uiso   1.00
H19    H     0.34600   0.67350   0.35610   0.01267  Uiso   1.00
H20    H     0.74480   0.28260   0.35630   0.01267  Uiso   1.00
H21    H     0.73480   0.25560   0.07290   0.01267  Uiso   1.00
H22    H     0.74970   0.04700   0.07580   0.01267  Uiso   1.00
H23    H     0.76220   0.07260   0.36070   0.01267  Uiso   1.00
H24    H     0.13430   0.68050   0.35670   0.01267  Uiso   1.00
H25    H     0.91510   0.68050   0.47870   0.01267  Uiso   1.00
H26    H     0.92090   0.68520   0.64140   0.01267  Uiso   1.00
H27    H     0.55210   0.63770   0.64050   0.01267  Uiso   1.00
H28    H     0.55660   0.64150   0.47740   0.01267  Uiso   1.00
H29    H     0.92500   0.67580   0.78780   0.01267  Uiso   1.00
H30    H     0.54880   0.64670   0.78560   0.01267  Uiso   1.00
H31    H     0.91810   0.67610   0.95040   0.01267  Uiso   1.00
H32    H     0.55450   0.64880   0.94840   0.01267  Uiso   1.00
C27    C     0.50030   0.65050   0.21240   0.01267  Uiso   1.00
C28    C     0.36370   0.65710   0.21210   0.01267  Uiso   1.00
C29    C     0.29740   0.65080   0.12750   0.01267  Uiso   1.00
C30    C     0.17090   0.65540   0.12800   0.01267  Uiso   1.00
C31    C     0.30150   0.66870   0.29820   0.01267  Uiso   1.00
C32    C     0.72070   0.42260   0.21240   0.01267  Uiso   1.00
C33    C     0.73340   0.28840   0.21400   0.01267  Uiso   1.00
C34    C     0.74440   0.23470   0.29920   0.01267  Uiso   1.00
C35    C     0.73820   0.21850   0.13170   0.01267  Uiso   1.00
C36    C     0.75760   0.90150   0.22180   0.01267  Uiso   1.00
C37    C     0.75490   0.03880   0.21800   0.01267  Uiso   1.00
C38    C     0.74790   0.09370   0.13330   0.01267  Uiso   1.00
C39    C     0.75510   0.10880   0.30210   0.01267  Uiso   1.00
C40    C     0.97210   0.67170   0.21280   0.01267  Uiso   1.00
C41    C     0.11050   0.66690   0.21280   0.01267  Uiso   1.00
C42    C     0.17570   0.67320   0.29870   0.01267  Uiso   1.00
C43    C     0.83930   0.67410   0.51180   0.01267  Uiso   1.00
C44    C     0.84310   0.67540   0.60980   0.01267  Uiso   1.00
C45    C     0.73660   0.66280   0.66120   0.01267  Uiso   1.00
C46    C     0.62970   0.64880   0.60940   0.01267  Uiso   1.00
C47    C     0.63290   0.65070   0.51100   0.01267  Uiso   1.00
C48    C     0.73710   0.66240   0.76560   0.01267  Uiso   1.00
C49    C     0.84770   0.67020   0.81880   0.01267  Uiso   1.00
C50    C     0.62600   0.65310   0.81750   0.01267  Uiso   1.00
C51    C     0.84260   0.66950   0.91610   0.01267  Uiso   1.00
C52    C     0.63010   0.65340   0.91520   0.01267  Uiso   1.00
N3     N     0.73620   0.66470   0.46300   0.01267  Uiso   1.00
N4     N     0.73490   0.65980   0.96520   0.01267  Uiso   1.00
O9     O     0.55030   0.64280   0.13310   0.01267  Uiso   1.00
O10    O     0.55320   0.65500   0.29210   0.01267  Uiso   1.00
O11    O     0.71610   0.46830   0.13230   0.01267  Uiso   1.00
O12    O     0.71420   0.47890   0.28940   0.01267  Uiso   1.00
O13    O     0.75610   0.84280   0.14230   0.01267  Uiso   1.00
O14    O     0.76040   0.85500   0.30120   0.01267  Uiso   1.00
O15    O     0.91950   0.66880   0.13410   0.01267  Uiso   1.00
O16    O     0.92130   0.67620   0.29260   0.01267  Uiso   1.00
