data_JAVNIE_clean
_audit_creation_date              2014-07-02
_audit_creation_method            'Materials Studio'
_symmetry_space_group_name_H-M    'P1'
_symmetry_Int_Tables_number       1
_symmetry_cell_setting            triclinic
loop_
_symmetry_equiv_pos_as_xyz
  x,y,z
_cell_length_a                    12.3305
_cell_length_b                    15.5069
_cell_length_c                    15.6412
_cell_angle_alpha                 90.0000
_cell_angle_beta                  90.0000
_cell_angle_gamma                 90.0000
loop_
_atom_site_label
_atom_site_type_symbol
_atom_site_fract_x
_atom_site_fract_y
_atom_site_fract_z
_atom_site_U_iso_or_equiv
_atom_site_adp_type
_atom_site_occupancy
Cu1    Cu    0.00000   0.00000   0.00000   0.01267  Uiso   1.00
Cu2    Cu    0.50000   0.50000   0.50000   0.01267  Uiso   1.00
Cu3    Cu    0.15251   0.00000   0.19216   0.01267  Uiso   1.00
Cu4    Cu    0.84749   0.00000   0.80784   0.01267  Uiso   1.00
Cu5    Cu    0.34749   0.50000   0.69216   0.01267  Uiso   1.00
Cu6    Cu    0.65251   0.50000   0.30784   0.01267  Uiso   1.00
H1     H     0.77370   0.71620   0.09730   0.01267  Uiso   1.00
H2     H     0.67860   0.60050   0.15010   0.01267  Uiso   1.00
H3     H     0.84240   0.60390   0.35850   0.01267  Uiso   1.00
H4     H     0.94330   0.71880   0.31120   0.01267  Uiso   1.00
H5     H     0.22630   0.71620   0.90270   0.01267  Uiso   1.00
H6     H     0.32140   0.60050   0.84990   0.01267  Uiso   1.00
H7     H     0.15760   0.60390   0.64150   0.01267  Uiso   1.00
H8     H     0.05670   0.71880   0.68880   0.01267  Uiso   1.00
H9     H     0.72630   0.78380   0.59730   0.01267  Uiso   1.00
H10    H     0.82140   0.89950   0.65010   0.01267  Uiso   1.00
H11    H     0.65760   0.89610   0.85850   0.01267  Uiso   1.00
H12    H     0.55670   0.78120   0.81120   0.01267  Uiso   1.00
H13    H     0.27370   0.78380   0.40270   0.01267  Uiso   1.00
H14    H     0.17860   0.89950   0.34990   0.01267  Uiso   1.00
H15    H     0.34240   0.89610   0.14150   0.01267  Uiso   1.00
H16    H     0.44330   0.78120   0.18880   0.01267  Uiso   1.00
H17    H     0.22630   0.28380   0.90270   0.01267  Uiso   1.00
H18    H     0.32140   0.39950   0.84990   0.01267  Uiso   1.00
H19    H     0.15760   0.39610   0.64150   0.01267  Uiso   1.00
H20    H     0.05670   0.28120   0.68880   0.01267  Uiso   1.00
H21    H     0.77370   0.28380   0.09730   0.01267  Uiso   1.00
H22    H     0.67860   0.39950   0.15010   0.01267  Uiso   1.00
H23    H     0.84240   0.39610   0.35850   0.01267  Uiso   1.00
H24    H     0.94330   0.28120   0.31120   0.01267  Uiso   1.00
H25    H     0.27370   0.21620   0.40270   0.01267  Uiso   1.00
H26    H     0.17860   0.10050   0.34990   0.01267  Uiso   1.00
H27    H     0.34240   0.10390   0.14150   0.01267  Uiso   1.00
H28    H     0.44330   0.21880   0.18880   0.01267  Uiso   1.00
H29    H     0.72630   0.21620   0.59730   0.01267  Uiso   1.00
H30    H     0.82140   0.10050   0.65010   0.01267  Uiso   1.00
H31    H     0.65760   0.10390   0.85850   0.01267  Uiso   1.00
H32    H     0.55670   0.21880   0.81120   0.01267  Uiso   1.00
C1     C     0.93350   0.80540   0.16690   0.01267  Uiso   1.00
C2     C     0.87160   0.72990   0.19860   0.01267  Uiso   1.00
C3     C     0.79020   0.69430   0.15110   0.01267  Uiso   1.00
C4     C     0.73240   0.62500   0.18390   0.01267  Uiso   1.00
C5     C     0.82770   0.62680   0.30480   0.01267  Uiso   1.00
C6     C     0.88940   0.69590   0.27640   0.01267  Uiso   1.00
C7     C     0.06650   0.80540   0.83310   0.01267  Uiso   1.00
C8     C     0.12840   0.72990   0.80140   0.01267  Uiso   1.00
C9     C     0.20980   0.69430   0.84890   0.01267  Uiso   1.00
C10    C     0.26760   0.62500   0.81610   0.01267  Uiso   1.00
C11    C     0.17230   0.62680   0.69520   0.01267  Uiso   1.00
C12    C     0.11060   0.69590   0.72360   0.01267  Uiso   1.00
C13    C     0.56650   0.69460   0.66690   0.01267  Uiso   1.00
C14    C     0.62840   0.77010   0.69860   0.01267  Uiso   1.00
C15    C     0.70980   0.80570   0.65110   0.01267  Uiso   1.00
C16    C     0.76760   0.87500   0.68390   0.01267  Uiso   1.00
C17    C     0.67230   0.87320   0.80480   0.01267  Uiso   1.00
C18    C     0.61060   0.80410   0.77640   0.01267  Uiso   1.00
C19    C     0.43350   0.69460   0.33310   0.01267  Uiso   1.00
C20    C     0.37160   0.77010   0.30140   0.01267  Uiso   1.00
C21    C     0.29020   0.80570   0.34890   0.01267  Uiso   1.00
C22    C     0.23240   0.87500   0.31610   0.01267  Uiso   1.00
C23    C     0.32770   0.87320   0.19520   0.01267  Uiso   1.00
C24    C     0.38940   0.80410   0.22360   0.01267  Uiso   1.00
C25    C     0.06650   0.19460   0.83310   0.01267  Uiso   1.00
C26    C     0.12840   0.27010   0.80140   0.01267  Uiso   1.00
C27    C     0.20980   0.30570   0.84890   0.01267  Uiso   1.00
C28    C     0.26760   0.37500   0.81610   0.01267  Uiso   1.00
C29    C     0.17230   0.37320   0.69520   0.01267  Uiso   1.00
C30    C     0.11060   0.30410   0.72360   0.01267  Uiso   1.00
C31    C     0.93350   0.19460   0.16690   0.01267  Uiso   1.00
C32    C     0.87160   0.27010   0.19860   0.01267  Uiso   1.00
C33    C     0.79020   0.30570   0.15110   0.01267  Uiso   1.00
C34    C     0.73240   0.37500   0.18390   0.01267  Uiso   1.00
C35    C     0.82770   0.37320   0.30480   0.01267  Uiso   1.00
C36    C     0.88940   0.30410   0.27640   0.01267  Uiso   1.00
C37    C     0.43350   0.30540   0.33310   0.01267  Uiso   1.00
C38    C     0.37160   0.22990   0.30140   0.01267  Uiso   1.00
C39    C     0.29020   0.19430   0.34890   0.01267  Uiso   1.00
C40    C     0.23240   0.12500   0.31610   0.01267  Uiso   1.00
C41    C     0.32770   0.12680   0.19520   0.01267  Uiso   1.00
C42    C     0.38940   0.19590   0.22360   0.01267  Uiso   1.00
C43    C     0.56650   0.30540   0.66690   0.01267  Uiso   1.00
C44    C     0.62840   0.22990   0.69860   0.01267  Uiso   1.00
C45    C     0.70980   0.19430   0.65110   0.01267  Uiso   1.00
C46    C     0.76760   0.12500   0.68390   0.01267  Uiso   1.00
C47    C     0.67230   0.12680   0.80480   0.01267  Uiso   1.00
C48    C     0.61060   0.19590   0.77640   0.01267  Uiso   1.00
N1     N     0.98520   0.90816   0.09105   0.01267  Uiso   1.00
N2     N     0.04000   0.90936   0.16389   0.01267  Uiso   1.00
N3     N     0.00870   0.84487   0.21320   0.01267  Uiso   1.00
N4     N     0.91640   0.84209   0.09141   0.01267  Uiso   1.00
N5     N     0.74970   0.59244   0.25951   0.01267  Uiso   1.00
N6     N     0.01480   0.90816   0.90895   0.01267  Uiso   1.00
N7     N     0.96000   0.90936   0.83611   0.01267  Uiso   1.00
N8     N     0.99130   0.84487   0.78680   0.01267  Uiso   1.00
N9     N     0.08360   0.84209   0.90859   0.01267  Uiso   1.00
N10    N     0.25030   0.59244   0.74049   0.01267  Uiso   1.00
N11    N     0.51480   0.59184   0.59105   0.01267  Uiso   1.00
N12    N     0.46000   0.59064   0.66389   0.01267  Uiso   1.00
N13    N     0.49130   0.65513   0.71320   0.01267  Uiso   1.00
N14    N     0.58360   0.65791   0.59141   0.01267  Uiso   1.00
N15    N     0.75030   0.90756   0.75951   0.01267  Uiso   1.00
N16    N     0.48520   0.59184   0.40895   0.01267  Uiso   1.00
N17    N     0.54000   0.59064   0.33611   0.01267  Uiso   1.00
N18    N     0.50870   0.65513   0.28680   0.01267  Uiso   1.00
N19    N     0.41640   0.65791   0.40859   0.01267  Uiso   1.00
N20    N     0.24970   0.90756   0.24049   0.01267  Uiso   1.00
N21    N     0.01480   0.09184   0.90895   0.01267  Uiso   1.00
N22    N     0.96000   0.09064   0.83611   0.01267  Uiso   1.00
N23    N     0.99130   0.15513   0.78680   0.01267  Uiso   1.00
N24    N     0.08360   0.15791   0.90859   0.01267  Uiso   1.00
N25    N     0.25030   0.40756   0.74049   0.01267  Uiso   1.00
N26    N     0.98520   0.09184   0.09105   0.01267  Uiso   1.00
N27    N     0.04000   0.09064   0.16389   0.01267  Uiso   1.00
N28    N     0.00870   0.15513   0.21320   0.01267  Uiso   1.00
N29    N     0.91640   0.15791   0.09141   0.01267  Uiso   1.00
N30    N     0.74970   0.40756   0.25951   0.01267  Uiso   1.00
N31    N     0.48520   0.40816   0.40895   0.01267  Uiso   1.00
N32    N     0.54000   0.40936   0.33611   0.01267  Uiso   1.00
N33    N     0.50870   0.34487   0.28680   0.01267  Uiso   1.00
N34    N     0.41640   0.34209   0.40859   0.01267  Uiso   1.00
N35    N     0.24970   0.09244   0.24049   0.01267  Uiso   1.00
N36    N     0.51480   0.40816   0.59105   0.01267  Uiso   1.00
N37    N     0.46000   0.40936   0.66389   0.01267  Uiso   1.00
N38    N     0.49130   0.34487   0.71320   0.01267  Uiso   1.00
N39    N     0.58360   0.34209   0.59141   0.01267  Uiso   1.00
N40    N     0.75030   0.09244   0.75951   0.01267  Uiso   1.00
Cl1    Cl    0.21617   0.00000   0.03771   0.01267  Uiso   1.00
Cl2    Cl    0.78383   0.00000   0.96229   0.01267  Uiso   1.00
Cl3    Cl    0.28383   0.50000   0.53771   0.01267  Uiso   1.00
Cl4    Cl    0.71617   0.50000   0.46229   0.01267  Uiso   1.00
