data_JEBDOK_clean
_audit_creation_date              2014-07-02
_audit_creation_method            'Materials Studio'
_symmetry_space_group_name_H-M    'P1'
_symmetry_Int_Tables_number       1
_symmetry_cell_setting            triclinic
loop_
_symmetry_equiv_pos_as_xyz
  x,y,z
_cell_length_a                    7.9530
_cell_length_b                    11.0992
_cell_length_c                    11.0992
_cell_angle_alpha                 65.5166
_cell_angle_beta                  76.1816
_cell_angle_gamma                 103.8180
loop_
_atom_site_label
_atom_site_type_symbol
_atom_site_fract_x
_atom_site_fract_y
_atom_site_fract_z
_atom_site_U_iso_or_equiv
_atom_site_adp_type
_atom_site_occupancy
In1    In    0.95190   0.59722   0.39772   0.01267  Uiso   1.00
In2    In    0.34962   0.39772   0.00506   0.01267  Uiso   1.00
In3    In    0.35468   0.00506   0.59722   0.01267  Uiso   1.00
In4    In    0.84962   0.99494   0.60228   0.01267  Uiso   1.00
In5    In    0.85468   0.40278   0.99494   0.01267  Uiso   1.00
In6    In    0.45190   0.60228   0.40278   0.01267  Uiso   1.00
H1     H     0.69920   0.66620   0.48920   0.01267  Uiso   1.00
H2     H     0.18840   0.48920   0.84460   0.01267  Uiso   1.00
H3     H     0.03300   0.84460   0.66620   0.01267  Uiso   1.00
H4     H     0.68840   0.15540   0.51080   0.01267  Uiso   1.00
H5     H     0.53300   0.33380   0.15540   0.01267  Uiso   1.00
H6     H     0.19920   0.51080   0.33380   0.01267  Uiso   1.00
C1     C     0.93140   0.57410   0.68210   0.01267  Uiso   1.00
C2     C     0.86220   0.41700   0.71700   0.01267  Uiso   1.00
C3     C     0.61350   0.68210   0.74380   0.01267  Uiso   1.00
C4     C     0.57920   0.71700   0.86600   0.01267  Uiso   1.00
C5     C     0.35730   0.74380   0.57410   0.01267  Uiso   1.00
C6     C     0.44520   0.86600   0.41700   0.01267  Uiso   1.00
C7     C     0.11350   0.25620   0.31790   0.01267  Uiso   1.00
C8     C     0.07920   0.13400   0.28300   0.01267  Uiso   1.00
C9     C     0.85730   0.42590   0.25620   0.01267  Uiso   1.00
C10    C     0.94520   0.58300   0.13400   0.01267  Uiso   1.00
C11    C     0.43140   0.31790   0.42590   0.01267  Uiso   1.00
C12    C     0.36220   0.28300   0.58300   0.01267  Uiso   1.00
O1     O     0.70990   0.63880   0.43060   0.01267  Uiso   1.00
O2     O     0.99360   0.66990   0.55110   0.01267  Uiso   1.00
O3     O     0.84470   0.39460   0.61930   0.01267  Uiso   1.00
O4     O     0.32950   0.62000   0.59630   0.01267  Uiso   1.00
O5     O     0.49380   0.83270   0.32480   0.01267  Uiso   1.00
O6     O     0.14050   0.43060   0.93060   0.01267  Uiso   1.00
O7     O     0.54470   0.55110   0.77900   0.01267  Uiso   1.00
O8     O     0.46400   0.61930   0.98610   0.01267  Uiso   1.00
O9     O     0.92580   0.59630   0.78370   0.01267  Uiso   1.00
O10    O     0.81860   0.32480   0.84250   0.01267  Uiso   1.00
O11    O     0.07110   0.93060   0.63880   0.01267  Uiso   1.00
O12    O     0.32370   0.77900   0.66990   0.01267  Uiso   1.00
O13    O     0.45010   0.98610   0.39460   0.01267  Uiso   1.00
O14    O     0.70950   0.78370   0.62000   0.01267  Uiso   1.00
O15    O     0.66110   0.84250   0.83270   0.01267  Uiso   1.00
O16    O     0.64050   0.06940   0.56940   0.01267  Uiso   1.00
O17    O     0.04470   0.22100   0.44890   0.01267  Uiso   1.00
O18    O     0.96400   0.01390   0.38070   0.01267  Uiso   1.00
O19    O     0.42580   0.21630   0.40370   0.01267  Uiso   1.00
O20    O     0.31860   0.15750   0.67520   0.01267  Uiso   1.00
O21    O     0.57110   0.36120   0.06940   0.01267  Uiso   1.00
O22    O     0.82370   0.33010   0.22100   0.01267  Uiso   1.00
O23    O     0.95010   0.60540   0.01390   0.01267  Uiso   1.00
O24    O     0.20950   0.38000   0.21630   0.01267  Uiso   1.00
O25    O     0.16110   0.16730   0.15750   0.01267  Uiso   1.00
O26    O     0.20990   0.56940   0.36120   0.01267  Uiso   1.00
O27    O     0.49360   0.44890   0.33010   0.01267  Uiso   1.00
O28    O     0.34470   0.38070   0.60540   0.01267  Uiso   1.00
O29    O     0.82950   0.40370   0.38000   0.01267  Uiso   1.00
O30    O     0.99380   0.67520   0.16730   0.01267  Uiso   1.00
