data_JEDJUY_clean
_audit_creation_date              2014-07-02
_audit_creation_method            'Materials Studio'
_symmetry_space_group_name_H-M    'P1'
_symmetry_Int_Tables_number       1
_symmetry_cell_setting            triclinic
loop_
_symmetry_equiv_pos_as_xyz
  x,y,z
_cell_length_a                    7.1190
_cell_length_b                    8.7830
_cell_length_c                    15.0670
_cell_angle_alpha                 79.6100
_cell_angle_beta                  87.5200
_cell_angle_gamma                 83.2100
loop_
_atom_site_label
_atom_site_type_symbol
_atom_site_fract_x
_atom_site_fract_y
_atom_site_fract_z
_atom_site_U_iso_or_equiv
_atom_site_adp_type
_atom_site_occupancy
K1     K     0.01373   0.55182   0.12751   0.01267  Uiso   1.00
K2     K     0.98627   0.44818   0.87249   0.01267  Uiso   1.00
Gd1    Gd    0.52396   0.39018   0.22509   0.01267  Uiso   1.00
Gd2    Gd    0.47604   0.60982   0.77491   0.01267  Uiso   1.00
H1     H     0.32460   0.49120   0.48610   0.01267  Uiso   1.00
H2     H     0.62660   0.03460   0.85420   0.01267  Uiso   1.00
H3     H     0.67540   0.50880   0.51390   0.01267  Uiso   1.00
H4     H     0.37340   0.96540   0.14580   0.01267  Uiso   1.00
C1     C     0.19360   0.49450   0.49190   0.01267  Uiso   1.00
C2     C     0.09210   0.46630   0.42150   0.01267  Uiso   1.00
C3     C     0.10440   0.52760   0.57090   0.01267  Uiso   1.00
C4     C     0.20780   0.42920   0.34000   0.01267  Uiso   1.00
C5     C     0.22200   0.55860   0.64460   0.01267  Uiso   1.00
C6     C     0.48800   0.14930   0.94680   0.01267  Uiso   1.00
C7     C     0.29860   0.26210   0.07030   0.01267  Uiso   1.00
C8     C     0.41030   0.12730   0.03510   0.01267  Uiso   1.00
C9     C     0.57620   0.02090   0.91270   0.01267  Uiso   1.00
C10    C     0.48770   0.30800   0.89100   0.01267  Uiso   1.00
C11    C     0.80640   0.50550   0.50810   0.01267  Uiso   1.00
C12    C     0.90790   0.53370   0.57850   0.01267  Uiso   1.00
C13    C     0.89560   0.47240   0.42910   0.01267  Uiso   1.00
C14    C     0.79220   0.57080   0.66000   0.01267  Uiso   1.00
C15    C     0.77800   0.44140   0.35540   0.01267  Uiso   1.00
C16    C     0.51200   0.85070   0.05320   0.01267  Uiso   1.00
C17    C     0.70140   0.73790   0.92970   0.01267  Uiso   1.00
C18    C     0.58970   0.87270   0.96490   0.01267  Uiso   1.00
C19    C     0.42380   0.97910   0.08730   0.01267  Uiso   1.00
C20    C     0.51230   0.69200   0.10900   0.01267  Uiso   1.00
O1     O     0.28770   0.29360   0.34228   0.01267  Uiso   1.00
O2     O     0.23910   0.53780   0.27620   0.01267  Uiso   1.00
O3     O     0.14590   0.59180   0.71631   0.01267  Uiso   1.00
O4     O     0.39800   0.55280   0.63079   0.01267  Uiso   1.00
O5     O     0.32000   0.27010   0.15227   0.01267  Uiso   1.00
O6     O     0.19320   0.35440   0.01776   0.01267  Uiso   1.00
O7     O     0.58440   0.40440   0.91417   0.01267  Uiso   1.00
O8     O     0.39380   0.34260   0.81896   0.01267  Uiso   1.00
O9     O     0.73080   0.34380   0.09740   0.01267  Uiso   1.00
O10    O     0.71230   0.70640   0.65772   0.01267  Uiso   1.00
O11    O     0.76090   0.46220   0.72380   0.01267  Uiso   1.00
O12    O     0.85410   0.40820   0.28369   0.01267  Uiso   1.00
O13    O     0.60200   0.44720   0.36921   0.01267  Uiso   1.00
O14    O     0.68000   0.72990   0.84773   0.01267  Uiso   1.00
O15    O     0.80680   0.64560   0.98224   0.01267  Uiso   1.00
O16    O     0.41560   0.59560   0.08583   0.01267  Uiso   1.00
O17    O     0.60620   0.65740   0.18104   0.01267  Uiso   1.00
O18    O     0.26920   0.65620   0.90260   0.01267  Uiso   1.00
