data_JEDKEJ_clean
_audit_creation_date              2014-07-02
_audit_creation_method            'Materials Studio'
_symmetry_space_group_name_H-M    'P1'
_symmetry_Int_Tables_number       1
_symmetry_cell_setting            triclinic
loop_
_symmetry_equiv_pos_as_xyz
  x,y,z
_cell_length_a                    18.0050
_cell_length_b                    23.2350
_cell_length_c                    23.7320
_cell_angle_alpha                 90.0000
_cell_angle_beta                  90.0000
_cell_angle_gamma                 90.4600
loop_
_atom_site_label
_atom_site_type_symbol
_atom_site_fract_x
_atom_site_fract_y
_atom_site_fract_z
_atom_site_U_iso_or_equiv
_atom_site_adp_type
_atom_site_occupancy
Cr1    Cr    0.99259   0.14725   0.34799   0.01267  Uiso   1.00
Cr2    Cr    0.00741   0.35275   0.84799   0.01267  Uiso   1.00
Cr3    Cr    0.00741   0.85275   0.65201   0.01267  Uiso   1.00
Cr4    Cr    0.99259   0.64725   0.15201   0.01267  Uiso   1.00
Cr5    Cr    0.50000   0.50000   0.50000   0.01267  Uiso   1.00
Cr6    Cr    0.50000   0.00000   0.00000   0.01267  Uiso   1.00
Cr7    Cr    0.00000   0.50000   0.50000   0.01267  Uiso   1.00
Cr8    Cr    0.00000   0.00000   0.00000   0.01267  Uiso   1.00
Cu1    Cu    0.74313   0.59892   0.44359   0.01267  Uiso   1.00
Cu2    Cu    0.87734   0.29351   0.48569   0.01267  Uiso   1.00
Cu3    Cu    0.91219   0.50928   0.71269   0.01267  Uiso   1.00
Cu4    Cu    0.25687   0.90108   0.94359   0.01267  Uiso   1.00
Cu5    Cu    0.12266   0.20649   0.98569   0.01267  Uiso   1.00
Cu6    Cu    0.08781   0.99072   0.21269   0.01267  Uiso   1.00
Cu7    Cu    0.25687   0.40108   0.55641   0.01267  Uiso   1.00
Cu8    Cu    0.12266   0.70649   0.51431   0.01267  Uiso   1.00
Cu9    Cu    0.08781   0.49072   0.28731   0.01267  Uiso   1.00
Cu10   Cu    0.74313   0.09892   0.05641   0.01267  Uiso   1.00
Cu11   Cu    0.87734   0.79351   0.01431   0.01267  Uiso   1.00
Cu12   Cu    0.91219   0.00928   0.78731   0.01267  Uiso   1.00
H1     H     0.65990   0.64270   0.54750   0.01267  Uiso   1.00
H2     H     0.67130   0.71380   0.61620   0.01267  Uiso   1.00
H3     H     0.77430   0.75110   0.62210   0.01267  Uiso   1.00
H4     H     0.86010   0.75760   0.55430   0.01267  Uiso   1.00
H5     H     0.88900   0.70760   0.43430   0.01267  Uiso   1.00
H6     H     0.90340   0.64590   0.45900   0.01267  Uiso   1.00
H7     H     0.89940   0.59570   0.38900   0.01267  Uiso   1.00
H8     H     0.88770   0.64420   0.34350   0.01267  Uiso   1.00
H9     H     0.86560   0.57440   0.26430   0.01267  Uiso   1.00
H10    H     0.78790   0.51570   0.22590   0.01267  Uiso   1.00
H11    H     0.68240   0.48050   0.27000   0.01267  Uiso   1.00
H12    H     0.65910   0.52200   0.36330   0.01267  Uiso   1.00
H13    H     0.81360   0.27360   0.36540   0.01267  Uiso   1.00
H14    H     0.72740   0.31250   0.30700   0.01267  Uiso   1.00
H15    H     0.65130   0.38340   0.34290   0.01267  Uiso   1.00
H16    H     0.66950   0.41870   0.43290   0.01267  Uiso   1.00
H17    H     0.81050   0.41660   0.50960   0.01267  Uiso   1.00
H18    H     0.73180   0.39610   0.53070   0.01267  Uiso   1.00
H19    H     0.82230   0.35710   0.62040   0.01267  Uiso   1.00
H20    H     0.88210   0.38560   0.58070   0.01267  Uiso   1.00
H21    H     0.92120   0.32170   0.68350   0.01267  Uiso   1.00
H22    H     0.00620   0.25050   0.69520   0.01267  Uiso   1.00
H23    H     0.04120   0.18310   0.62390   0.01267  Uiso   1.00
H24    H     0.98880   0.20430   0.53330   0.01267  Uiso   1.00
H25    H     0.81030   0.41140   0.74120   0.01267  Uiso   1.00
H26    H     0.69340   0.37530   0.72160   0.01267  Uiso   1.00
H27    H     0.63760   0.42130   0.65470   0.01267  Uiso   1.00
H28    H     0.67030   0.50800   0.61360   0.01267  Uiso   1.00
H29    H     0.84150   0.55620   0.60140   0.01267  Uiso   1.00
H30    H     0.78140   0.59550   0.62960   0.01267  Uiso   1.00
H31    H     0.91280   0.65640   0.65410   0.01267  Uiso   1.00
H32    H     0.94510   0.60360   0.62100   0.01267  Uiso   1.00
H33    H     0.04230   0.69060   0.68620   0.01267  Uiso   1.00
H34    H     0.14240   0.67240   0.74720   0.01267  Uiso   1.00
H35    H     0.14060   0.59160   0.80410   0.01267  Uiso   1.00
H36    H     0.04970   0.52350   0.78870   0.01267  Uiso   1.00
H37    H     0.77240   0.65300   0.40580   0.01267  Uiso   1.00
H38    H     0.80430   0.30090   0.52930   0.01267  Uiso   1.00
H39    H     0.86310   0.57050   0.71260   0.01267  Uiso   1.00
H40    H     0.34010   0.85730   0.04750   0.01267  Uiso   1.00
H41    H     0.32870   0.78620   0.11620   0.01267  Uiso   1.00
H42    H     0.22570   0.74890   0.12210   0.01267  Uiso   1.00
H43    H     0.13990   0.74240   0.05430   0.01267  Uiso   1.00
H44    H     0.11100   0.79240   0.93430   0.01267  Uiso   1.00
H45    H     0.09660   0.85410   0.95900   0.01267  Uiso   1.00
H46    H     0.10060   0.90430   0.88900   0.01267  Uiso   1.00
H47    H     0.11230   0.85580   0.84350   0.01267  Uiso   1.00
H48    H     0.13440   0.92560   0.76430   0.01267  Uiso   1.00
H49    H     0.21210   0.98430   0.72590   0.01267  Uiso   1.00
H50    H     0.31760   0.01950   0.77000   0.01267  Uiso   1.00
H51    H     0.34090   0.97800   0.86330   0.01267  Uiso   1.00
H52    H     0.18640   0.22640   0.86540   0.01267  Uiso   1.00
H53    H     0.27260   0.18750   0.80700   0.01267  Uiso   1.00
H54    H     0.34870   0.11660   0.84290   0.01267  Uiso   1.00
H55    H     0.33050   0.08130   0.93290   0.01267  Uiso   1.00
H56    H     0.18950   0.08340   0.00960   0.01267  Uiso   1.00
H57    H     0.26820   0.10390   0.03070   0.01267  Uiso   1.00
H58    H     0.17770   0.14290   0.12040   0.01267  Uiso   1.00
H59    H     0.11790   0.11440   0.08070   0.01267  Uiso   1.00
H60    H     0.07880   0.17830   0.18350   0.01267  Uiso   1.00
H61    H     0.99380   0.24950   0.19520   0.01267  Uiso   1.00
H62    H     0.95880   0.31690   0.12390   0.01267  Uiso   1.00
H63    H     0.01120   0.29570   0.03330   0.01267  Uiso   1.00
H64    H     0.18970   0.08860   0.24120   0.01267  Uiso   1.00
H65    H     0.30660   0.12470   0.22160   0.01267  Uiso   1.00
H66    H     0.36240   0.07870   0.15470   0.01267  Uiso   1.00
H67    H     0.32970   0.99200   0.11360   0.01267  Uiso   1.00
H68    H     0.15850   0.94380   0.10140   0.01267  Uiso   1.00
H69    H     0.21860   0.90450   0.12960   0.01267  Uiso   1.00
H70    H     0.08720   0.84360   0.15410   0.01267  Uiso   1.00
H71    H     0.05490   0.89640   0.12100   0.01267  Uiso   1.00
H72    H     0.95770   0.80940   0.18620   0.01267  Uiso   1.00
H73    H     0.85760   0.82760   0.24720   0.01267  Uiso   1.00
H74    H     0.85940   0.90840   0.30410   0.01267  Uiso   1.00
H75    H     0.95030   0.97650   0.28870   0.01267  Uiso   1.00
H76    H     0.22760   0.84700   0.90580   0.01267  Uiso   1.00
H77    H     0.19570   0.19910   0.02930   0.01267  Uiso   1.00
H78    H     0.13690   0.92950   0.21260   0.01267  Uiso   1.00
H79    H     0.34010   0.35730   0.45250   0.01267  Uiso   1.00
H80    H     0.32870   0.28620   0.38380   0.01267  Uiso   1.00
H81    H     0.22570   0.24890   0.37790   0.01267  Uiso   1.00
H82    H     0.13990   0.24240   0.44570   0.01267  Uiso   1.00
H83    H     0.11100   0.29240   0.56570   0.01267  Uiso   1.00
H84    H     0.09660   0.35410   0.54100   0.01267  Uiso   1.00
H85    H     0.10060   0.40430   0.61100   0.01267  Uiso   1.00
H86    H     0.11230   0.35580   0.65650   0.01267  Uiso   1.00
H87    H     0.13440   0.42560   0.73570   0.01267  Uiso   1.00
H88    H     0.21210   0.48430   0.77410   0.01267  Uiso   1.00
H89    H     0.31760   0.51950   0.73000   0.01267  Uiso   1.00
H90    H     0.34090   0.47800   0.63670   0.01267  Uiso   1.00
H91    H     0.18640   0.72640   0.63460   0.01267  Uiso   1.00
H92    H     0.27260   0.68750   0.69300   0.01267  Uiso   1.00
H93    H     0.34870   0.61660   0.65710   0.01267  Uiso   1.00
H94    H     0.33050   0.58130   0.56710   0.01267  Uiso   1.00
H95    H     0.18950   0.58340   0.49040   0.01267  Uiso   1.00
H96    H     0.26820   0.60390   0.46930   0.01267  Uiso   1.00
H97    H     0.17770   0.64290   0.37960   0.01267  Uiso   1.00
H98    H     0.11790   0.61440   0.41930   0.01267  Uiso   1.00
H99    H     0.07880   0.67830   0.31650   0.01267  Uiso   1.00
H100   H     0.99380   0.74950   0.30480   0.01267  Uiso   1.00
H101   H     0.95880   0.81690   0.37610   0.01267  Uiso   1.00
H102   H     0.01120   0.79570   0.46670   0.01267  Uiso   1.00
H103   H     0.18970   0.58860   0.25880   0.01267  Uiso   1.00
H104   H     0.30660   0.62470   0.27840   0.01267  Uiso   1.00
H105   H     0.36240   0.57870   0.34530   0.01267  Uiso   1.00
H106   H     0.32970   0.49200   0.38640   0.01267  Uiso   1.00
H107   H     0.15850   0.44380   0.39860   0.01267  Uiso   1.00
H108   H     0.21860   0.40450   0.37040   0.01267  Uiso   1.00
H109   H     0.08720   0.34360   0.34590   0.01267  Uiso   1.00
H110   H     0.05490   0.39640   0.37900   0.01267  Uiso   1.00
H111   H     0.95770   0.30940   0.31380   0.01267  Uiso   1.00
H112   H     0.85760   0.32760   0.25280   0.01267  Uiso   1.00
H113   H     0.85940   0.40840   0.19590   0.01267  Uiso   1.00
H114   H     0.95030   0.47650   0.21130   0.01267  Uiso   1.00
H115   H     0.22760   0.34700   0.59420   0.01267  Uiso   1.00
H116   H     0.19570   0.69910   0.47070   0.01267  Uiso   1.00
H117   H     0.13690   0.42950   0.28740   0.01267  Uiso   1.00
H118   H     0.65990   0.14270   0.95250   0.01267  Uiso   1.00
H119   H     0.67130   0.21380   0.88380   0.01267  Uiso   1.00
H120   H     0.77430   0.25110   0.87790   0.01267  Uiso   1.00
H121   H     0.86010   0.25760   0.94570   0.01267  Uiso   1.00
H122   H     0.88900   0.20760   0.06570   0.01267  Uiso   1.00
H123   H     0.90340   0.14590   0.04100   0.01267  Uiso   1.00
H124   H     0.89940   0.09570   0.11100   0.01267  Uiso   1.00
H125   H     0.88770   0.14420   0.15650   0.01267  Uiso   1.00
H126   H     0.86560   0.07440   0.23570   0.01267  Uiso   1.00
H127   H     0.78790   0.01570   0.27410   0.01267  Uiso   1.00
H128   H     0.68240   0.98050   0.23000   0.01267  Uiso   1.00
H129   H     0.65910   0.02200   0.13670   0.01267  Uiso   1.00
H130   H     0.81360   0.77360   0.13460   0.01267  Uiso   1.00
H131   H     0.72740   0.81250   0.19300   0.01267  Uiso   1.00
H132   H     0.65130   0.88340   0.15710   0.01267  Uiso   1.00
H133   H     0.66950   0.91870   0.06710   0.01267  Uiso   1.00
H134   H     0.81050   0.91660   0.99040   0.01267  Uiso   1.00
H135   H     0.73180   0.89610   0.96930   0.01267  Uiso   1.00
H136   H     0.82230   0.85710   0.87960   0.01267  Uiso   1.00
H137   H     0.88210   0.88560   0.91930   0.01267  Uiso   1.00
H138   H     0.92120   0.82170   0.81650   0.01267  Uiso   1.00
H139   H     0.00620   0.75050   0.80480   0.01267  Uiso   1.00
H140   H     0.04120   0.68310   0.87610   0.01267  Uiso   1.00
H141   H     0.98880   0.70430   0.96670   0.01267  Uiso   1.00
H142   H     0.81030   0.91140   0.75880   0.01267  Uiso   1.00
H143   H     0.69340   0.87530   0.77840   0.01267  Uiso   1.00
H144   H     0.63760   0.92130   0.84530   0.01267  Uiso   1.00
H145   H     0.67030   0.00800   0.88640   0.01267  Uiso   1.00
H146   H     0.84150   0.05620   0.89860   0.01267  Uiso   1.00
H147   H     0.78140   0.09550   0.87040   0.01267  Uiso   1.00
H148   H     0.91280   0.15640   0.84590   0.01267  Uiso   1.00
H149   H     0.94510   0.10360   0.87900   0.01267  Uiso   1.00
H150   H     0.04230   0.19060   0.81380   0.01267  Uiso   1.00
H151   H     0.14240   0.17240   0.75280   0.01267  Uiso   1.00
H152   H     0.14060   0.09160   0.69590   0.01267  Uiso   1.00
H153   H     0.04970   0.02350   0.71130   0.01267  Uiso   1.00
H154   H     0.77240   0.15300   0.09420   0.01267  Uiso   1.00
H155   H     0.80430   0.80090   0.97070   0.01267  Uiso   1.00
H156   H     0.86310   0.07050   0.78740   0.01267  Uiso   1.00
C1     C     0.70230   0.66590   0.54750   0.01267  Uiso   1.00
C2     C     0.70870   0.70630   0.59020   0.01267  Uiso   1.00
C3     C     0.76490   0.72950   0.58990   0.01267  Uiso   1.00
C4     C     0.82090   0.73140   0.55120   0.01267  Uiso   1.00
C5     C     0.81610   0.68830   0.50280   0.01267  Uiso   1.00
C6     C     0.86500   0.67300   0.44870   0.01267  Uiso   1.00
C7     C     0.86250   0.61840   0.36940   0.01267  Uiso   1.00
C8     C     0.81140   0.58190   0.34000   0.01267  Uiso   1.00
C9     C     0.82400   0.56220   0.28430   0.01267  Uiso   1.00
C10    C     0.77790   0.52800   0.26240   0.01267  Uiso   1.00
C11    C     0.71420   0.50690   0.28700   0.01267  Uiso   1.00
C12    C     0.70250   0.53140   0.34400   0.01267  Uiso   1.00
C13    C     0.78570   0.30420   0.37880   0.01267  Uiso   1.00
C14    C     0.73310   0.32590   0.34370   0.01267  Uiso   1.00
C15    C     0.68900   0.36840   0.36510   0.01267  Uiso   1.00
C16    C     0.69950   0.38940   0.41910   0.01267  Uiso   1.00
C17    C     0.75740   0.36550   0.45370   0.01267  Uiso   1.00
C18    C     0.77620   0.38420   0.51100   0.01267  Uiso   1.00
C19    C     0.85440   0.35050   0.58820   0.01267  Uiso   1.00
C20    C     0.90770   0.30220   0.60140   0.01267  Uiso   1.00
C21    C     0.93500   0.29770   0.65410   0.01267  Uiso   1.00
C22    C     0.98480   0.25440   0.65980   0.01267  Uiso   1.00
C23    C     0.00890   0.21340   0.61730   0.01267  Uiso   1.00
C24    C     0.97580   0.22640   0.56440   0.01267  Uiso   1.00
C25    C     0.78100   0.43090   0.71530   0.01267  Uiso   1.00
C26    C     0.71350   0.40780   0.70430   0.01267  Uiso   1.00
C27    C     0.68240   0.43710   0.66690   0.01267  Uiso   1.00
C28    C     0.70130   0.48970   0.63930   0.01267  Uiso   1.00
C29    C     0.77370   0.51170   0.65530   0.01267  Uiso   1.00
C30    C     0.81580   0.56430   0.63640   0.01267  Uiso   1.00
C31    C     0.92890   0.61690   0.65780   0.01267  Uiso   1.00
C32    C     0.99260   0.61340   0.69950   0.01267  Uiso   1.00
C33    C     0.04520   0.65620   0.70610   0.01267  Uiso   1.00
C34    C     0.10370   0.64590   0.74420   0.01267  Uiso   1.00
C35    C     0.10430   0.59730   0.77680   0.01267  Uiso   1.00
C36    C     0.04920   0.55730   0.76770   0.01267  Uiso   1.00
C37    C     0.60040   0.53760   0.48280   0.01267  Uiso   1.00
C38    C     0.55290   0.42550   0.52910   0.01267  Uiso   1.00
C39    C     0.49940   0.46590   0.41790   0.01267  Uiso   1.00
C40    C     0.88960   0.52410   0.48850   0.01267  Uiso   1.00
C41    C     0.97290   0.41540   0.48250   0.01267  Uiso   1.00
C42    C     0.97840   0.48640   0.58390   0.01267  Uiso   1.00
C43    C     0.95130   0.20530   0.40500   0.01267  Uiso   1.00
C44    C     0.06460   0.12260   0.40770   0.01267  Uiso   1.00
C45    C     0.06850   0.20550   0.31690   0.01267  Uiso   1.00
C46    C     0.91720   0.18030   0.29070   0.01267  Uiso   1.00
C47    C     0.91810   0.08500   0.37150   0.01267  Uiso   1.00
C48    C     0.96690   0.41030   0.79250   0.01267  Uiso   1.00
C49    C     0.29770   0.83410   0.04750   0.01267  Uiso   1.00
C50    C     0.29130   0.79370   0.09020   0.01267  Uiso   1.00
C51    C     0.23510   0.77050   0.08990   0.01267  Uiso   1.00
C52    C     0.17910   0.76860   0.05120   0.01267  Uiso   1.00
C53    C     0.18390   0.81170   0.00280   0.01267  Uiso   1.00
C54    C     0.13500   0.82700   0.94870   0.01267  Uiso   1.00
C55    C     0.13750   0.88160   0.86940   0.01267  Uiso   1.00
C56    C     0.18860   0.91810   0.84000   0.01267  Uiso   1.00
C57    C     0.17600   0.93780   0.78430   0.01267  Uiso   1.00
C58    C     0.22210   0.97200   0.76240   0.01267  Uiso   1.00
C59    C     0.28580   0.99310   0.78700   0.01267  Uiso   1.00
C60    C     0.29750   0.96860   0.84400   0.01267  Uiso   1.00
C61    C     0.21430   0.19580   0.87880   0.01267  Uiso   1.00
C62    C     0.26690   0.17410   0.84370   0.01267  Uiso   1.00
C63    C     0.31100   0.13160   0.86510   0.01267  Uiso   1.00
C64    C     0.30050   0.11060   0.91910   0.01267  Uiso   1.00
C65    C     0.24260   0.13450   0.95370   0.01267  Uiso   1.00
C66    C     0.22380   0.11580   0.01100   0.01267  Uiso   1.00
C67    C     0.14560   0.14950   0.08820   0.01267  Uiso   1.00
C68    C     0.09230   0.19780   0.10140   0.01267  Uiso   1.00
C69    C     0.06500   0.20230   0.15410   0.01267  Uiso   1.00
C70    C     0.01520   0.24560   0.15980   0.01267  Uiso   1.00
C71    C     0.99110   0.28660   0.11730   0.01267  Uiso   1.00
C72    C     0.02420   0.27360   0.06440   0.01267  Uiso   1.00
C73    C     0.21900   0.06910   0.21530   0.01267  Uiso   1.00
C74    C     0.28650   0.09220   0.20430   0.01267  Uiso   1.00
C75    C     0.31760   0.06290   0.16690   0.01267  Uiso   1.00
C76    C     0.29870   0.01030   0.13930   0.01267  Uiso   1.00
C77    C     0.22630   0.98830   0.15530   0.01267  Uiso   1.00
C78    C     0.18420   0.93570   0.13640   0.01267  Uiso   1.00
C79    C     0.07110   0.88310   0.15780   0.01267  Uiso   1.00
C80    C     0.00740   0.88660   0.19950   0.01267  Uiso   1.00
C81    C     0.95480   0.84380   0.20610   0.01267  Uiso   1.00
C82    C     0.89630   0.85410   0.24420   0.01267  Uiso   1.00
C83    C     0.89570   0.90270   0.27680   0.01267  Uiso   1.00
C84    C     0.95080   0.94270   0.26770   0.01267  Uiso   1.00
C85    C     0.39960   0.96240   0.98280   0.01267  Uiso   1.00
C86    C     0.44710   0.07450   0.02910   0.01267  Uiso   1.00
C87    C     0.50060   0.03410   0.91790   0.01267  Uiso   1.00
C88    C     0.11040   0.97590   0.98850   0.01267  Uiso   1.00
C89    C     0.02710   0.08460   0.98250   0.01267  Uiso   1.00
C90    C     0.02160   0.01360   0.08390   0.01267  Uiso   1.00
C91    C     0.04870   0.29470   0.90500   0.01267  Uiso   1.00
C92    C     0.93540   0.37740   0.90770   0.01267  Uiso   1.00
C93    C     0.93150   0.29450   0.81690   0.01267  Uiso   1.00
C94    C     0.08280   0.31970   0.79070   0.01267  Uiso   1.00
C95    C     0.08190   0.41500   0.87150   0.01267  Uiso   1.00
C96    C     0.03310   0.08970   0.29250   0.01267  Uiso   1.00
C97    C     0.29770   0.33410   0.45250   0.01267  Uiso   1.00
C98    C     0.29130   0.29370   0.40980   0.01267  Uiso   1.00
C99    C     0.23510   0.27050   0.41010   0.01267  Uiso   1.00
C100   C     0.17910   0.26860   0.44880   0.01267  Uiso   1.00
C101   C     0.18390   0.31170   0.49720   0.01267  Uiso   1.00
C102   C     0.13500   0.32700   0.55130   0.01267  Uiso   1.00
C103   C     0.13750   0.38160   0.63060   0.01267  Uiso   1.00
C104   C     0.18860   0.41810   0.66000   0.01267  Uiso   1.00
C105   C     0.17600   0.43780   0.71570   0.01267  Uiso   1.00
C106   C     0.22210   0.47200   0.73760   0.01267  Uiso   1.00
C107   C     0.28580   0.49310   0.71300   0.01267  Uiso   1.00
C108   C     0.29750   0.46860   0.65600   0.01267  Uiso   1.00
C109   C     0.21430   0.69580   0.62120   0.01267  Uiso   1.00
C110   C     0.26690   0.67410   0.65630   0.01267  Uiso   1.00
C111   C     0.31100   0.63160   0.63490   0.01267  Uiso   1.00
C112   C     0.30050   0.61060   0.58090   0.01267  Uiso   1.00
C113   C     0.24260   0.63450   0.54630   0.01267  Uiso   1.00
C114   C     0.22380   0.61580   0.48900   0.01267  Uiso   1.00
C115   C     0.14560   0.64950   0.41180   0.01267  Uiso   1.00
C116   C     0.09230   0.69780   0.39860   0.01267  Uiso   1.00
C117   C     0.06500   0.70230   0.34590   0.01267  Uiso   1.00
C118   C     0.01520   0.74560   0.34020   0.01267  Uiso   1.00
C119   C     0.99110   0.78660   0.38270   0.01267  Uiso   1.00
C120   C     0.02420   0.77360   0.43560   0.01267  Uiso   1.00
C121   C     0.21900   0.56910   0.28470   0.01267  Uiso   1.00
C122   C     0.28650   0.59220   0.29570   0.01267  Uiso   1.00
C123   C     0.31760   0.56290   0.33310   0.01267  Uiso   1.00
C124   C     0.29870   0.51030   0.36070   0.01267  Uiso   1.00
C125   C     0.22630   0.48830   0.34470   0.01267  Uiso   1.00
C126   C     0.18420   0.43570   0.36360   0.01267  Uiso   1.00
C127   C     0.07110   0.38310   0.34220   0.01267  Uiso   1.00
C128   C     0.00740   0.38660   0.30050   0.01267  Uiso   1.00
C129   C     0.95480   0.34380   0.29390   0.01267  Uiso   1.00
C130   C     0.89630   0.35410   0.25580   0.01267  Uiso   1.00
C131   C     0.89570   0.40270   0.22320   0.01267  Uiso   1.00
C132   C     0.95080   0.44270   0.23230   0.01267  Uiso   1.00
C133   C     0.39960   0.46240   0.51720   0.01267  Uiso   1.00
C134   C     0.44710   0.57450   0.47090   0.01267  Uiso   1.00
C135   C     0.50060   0.53410   0.58210   0.01267  Uiso   1.00
C136   C     0.11040   0.47590   0.51150   0.01267  Uiso   1.00
C137   C     0.02710   0.58460   0.51750   0.01267  Uiso   1.00
C138   C     0.02160   0.51360   0.41610   0.01267  Uiso   1.00
C139   C     0.04870   0.79470   0.59500   0.01267  Uiso   1.00
C140   C     0.93540   0.87740   0.59230   0.01267  Uiso   1.00
C141   C     0.93150   0.79450   0.68310   0.01267  Uiso   1.00
C142   C     0.08280   0.81970   0.70930   0.01267  Uiso   1.00
C143   C     0.08190   0.91500   0.62850   0.01267  Uiso   1.00
C144   C     0.03310   0.58970   0.20750   0.01267  Uiso   1.00
C145   C     0.70230   0.16590   0.95250   0.01267  Uiso   1.00
C146   C     0.70870   0.20630   0.90980   0.01267  Uiso   1.00
C147   C     0.76490   0.22950   0.91010   0.01267  Uiso   1.00
C148   C     0.82090   0.23140   0.94880   0.01267  Uiso   1.00
C149   C     0.81610   0.18830   0.99720   0.01267  Uiso   1.00
C150   C     0.86500   0.17300   0.05130   0.01267  Uiso   1.00
C151   C     0.86250   0.11840   0.13060   0.01267  Uiso   1.00
C152   C     0.81140   0.08190   0.16000   0.01267  Uiso   1.00
C153   C     0.82400   0.06220   0.21570   0.01267  Uiso   1.00
C154   C     0.77790   0.02800   0.23760   0.01267  Uiso   1.00
C155   C     0.71420   0.00690   0.21300   0.01267  Uiso   1.00
C156   C     0.70250   0.03140   0.15600   0.01267  Uiso   1.00
C157   C     0.78570   0.80420   0.12120   0.01267  Uiso   1.00
C158   C     0.73310   0.82590   0.15630   0.01267  Uiso   1.00
C159   C     0.68900   0.86840   0.13490   0.01267  Uiso   1.00
C160   C     0.69950   0.88940   0.08090   0.01267  Uiso   1.00
C161   C     0.75740   0.86550   0.04630   0.01267  Uiso   1.00
C162   C     0.77620   0.88420   0.98900   0.01267  Uiso   1.00
C163   C     0.85440   0.85050   0.91180   0.01267  Uiso   1.00
C164   C     0.90770   0.80220   0.89860   0.01267  Uiso   1.00
C165   C     0.93500   0.79770   0.84590   0.01267  Uiso   1.00
C166   C     0.98480   0.75440   0.84020   0.01267  Uiso   1.00
C167   C     0.00890   0.71340   0.88270   0.01267  Uiso   1.00
C168   C     0.97580   0.72640   0.93560   0.01267  Uiso   1.00
C169   C     0.78100   0.93090   0.78470   0.01267  Uiso   1.00
C170   C     0.71350   0.90780   0.79570   0.01267  Uiso   1.00
C171   C     0.68240   0.93710   0.83310   0.01267  Uiso   1.00
C172   C     0.70130   0.98970   0.86070   0.01267  Uiso   1.00
C173   C     0.77370   0.01170   0.84470   0.01267  Uiso   1.00
C174   C     0.81580   0.06430   0.86360   0.01267  Uiso   1.00
C175   C     0.92890   0.11690   0.84220   0.01267  Uiso   1.00
C176   C     0.99260   0.11340   0.80050   0.01267  Uiso   1.00
C177   C     0.04520   0.15620   0.79390   0.01267  Uiso   1.00
C178   C     0.10370   0.14590   0.75580   0.01267  Uiso   1.00
C179   C     0.10430   0.09730   0.72320   0.01267  Uiso   1.00
C180   C     0.04920   0.05730   0.73230   0.01267  Uiso   1.00
C181   C     0.60040   0.03760   0.01720   0.01267  Uiso   1.00
C182   C     0.55290   0.92550   0.97090   0.01267  Uiso   1.00
C183   C     0.49940   0.96590   0.08210   0.01267  Uiso   1.00
C184   C     0.88960   0.02410   0.01150   0.01267  Uiso   1.00
C185   C     0.97290   0.91540   0.01750   0.01267  Uiso   1.00
C186   C     0.97840   0.98640   0.91610   0.01267  Uiso   1.00
C187   C     0.95130   0.70530   0.09500   0.01267  Uiso   1.00
C188   C     0.06460   0.62260   0.09230   0.01267  Uiso   1.00
C189   C     0.06850   0.70550   0.18310   0.01267  Uiso   1.00
C190   C     0.91720   0.68030   0.20930   0.01267  Uiso   1.00
C191   C     0.91810   0.58500   0.12850   0.01267  Uiso   1.00
C192   C     0.96690   0.91030   0.70750   0.01267  Uiso   1.00
N1     N     0.75030   0.65740   0.50760   0.01267  Uiso   1.00
N2     N     0.81980   0.64920   0.40750   0.01267  Uiso   1.00
N3     N     0.74850   0.56420   0.36710   0.01267  Uiso   1.00
N4     N     0.80120   0.32310   0.43150   0.01267  Uiso   1.00
N5     N     0.81030   0.33590   0.54020   0.01267  Uiso   1.00
N6     N     0.92600   0.26960   0.55710   0.01267  Uiso   1.00
N7     N     0.81000   0.47860   0.69310   0.01267  Uiso   1.00
N8     N     0.86740   0.58080   0.67790   0.01267  Uiso   1.00
N9     N     0.99610   0.56450   0.73090   0.01267  Uiso   1.00
N10    N     0.65390   0.55850   0.47030   0.01267  Uiso   1.00
N11    N     0.58150   0.38540   0.54620   0.01267  Uiso   1.00
N12    N     0.50080   0.44870   0.37480   0.01267  Uiso   1.00
N13    N     0.83070   0.53910   0.48070   0.01267  Uiso   1.00
N14    N     0.95470   0.36850   0.47450   0.01267  Uiso   1.00
N15    N     0.96450   0.47950   0.63000   0.01267  Uiso   1.00
N16    N     0.92470   0.23860   0.43620   0.01267  Uiso   1.00
N17    N     0.10230   0.11190   0.44470   0.01267  Uiso   1.00
N18    N     0.10920   0.23530   0.29790   0.01267  Uiso   1.00
N19    N     0.87490   0.20050   0.26140   0.01267  Uiso   1.00
N20    N     0.87670   0.04890   0.38230   0.01267  Uiso   1.00
N21    N     0.94570   0.44650   0.76260   0.01267  Uiso   1.00
N22    N     0.24970   0.84260   0.00760   0.01267  Uiso   1.00
N23    N     0.18020   0.85080   0.90750   0.01267  Uiso   1.00
N24    N     0.25150   0.93580   0.86710   0.01267  Uiso   1.00
N25    N     0.19880   0.17690   0.93150   0.01267  Uiso   1.00
N26    N     0.18970   0.16410   0.04020   0.01267  Uiso   1.00
N27    N     0.07400   0.23040   0.05710   0.01267  Uiso   1.00
N28    N     0.19000   0.02140   0.19310   0.01267  Uiso   1.00
N29    N     0.13260   0.91920   0.17790   0.01267  Uiso   1.00
N30    N     0.00390   0.93550   0.23090   0.01267  Uiso   1.00
N31    N     0.34610   0.94150   0.97030   0.01267  Uiso   1.00
N32    N     0.41850   0.11460   0.04620   0.01267  Uiso   1.00
N33    N     0.49920   0.05130   0.87480   0.01267  Uiso   1.00
N34    N     0.16930   0.96090   0.98070   0.01267  Uiso   1.00
N35    N     0.04530   0.13150   0.97450   0.01267  Uiso   1.00
N36    N     0.03550   0.02050   0.13000   0.01267  Uiso   1.00
N37    N     0.07530   0.26140   0.93620   0.01267  Uiso   1.00
N38    N     0.89770   0.38810   0.94470   0.01267  Uiso   1.00
N39    N     0.89080   0.26470   0.79790   0.01267  Uiso   1.00
N40    N     0.12510   0.29950   0.76140   0.01267  Uiso   1.00
N41    N     0.12330   0.45110   0.88230   0.01267  Uiso   1.00
N42    N     0.05430   0.05350   0.26260   0.01267  Uiso   1.00
N43    N     0.24970   0.34260   0.49240   0.01267  Uiso   1.00
N44    N     0.18020   0.35080   0.59250   0.01267  Uiso   1.00
N45    N     0.25150   0.43580   0.63290   0.01267  Uiso   1.00
N46    N     0.19880   0.67690   0.56850   0.01267  Uiso   1.00
N47    N     0.18970   0.66410   0.45980   0.01267  Uiso   1.00
N48    N     0.07400   0.73040   0.44290   0.01267  Uiso   1.00
N49    N     0.19000   0.52140   0.30690   0.01267  Uiso   1.00
N50    N     0.13260   0.41920   0.32210   0.01267  Uiso   1.00
N51    N     0.00390   0.43550   0.26910   0.01267  Uiso   1.00
N52    N     0.34610   0.44150   0.52970   0.01267  Uiso   1.00
N53    N     0.41850   0.61460   0.45380   0.01267  Uiso   1.00
N54    N     0.49920   0.55130   0.62520   0.01267  Uiso   1.00
N55    N     0.16930   0.46090   0.51930   0.01267  Uiso   1.00
N56    N     0.04530   0.63150   0.52550   0.01267  Uiso   1.00
N57    N     0.03550   0.52050   0.37000   0.01267  Uiso   1.00
N58    N     0.07530   0.76140   0.56380   0.01267  Uiso   1.00
N59    N     0.89770   0.88810   0.55530   0.01267  Uiso   1.00
N60    N     0.89080   0.76470   0.70210   0.01267  Uiso   1.00
N61    N     0.12510   0.79950   0.73860   0.01267  Uiso   1.00
N62    N     0.12330   0.95110   0.61770   0.01267  Uiso   1.00
N63    N     0.05430   0.55350   0.23740   0.01267  Uiso   1.00
N64    N     0.75030   0.15740   0.99240   0.01267  Uiso   1.00
N65    N     0.81980   0.14920   0.09250   0.01267  Uiso   1.00
N66    N     0.74850   0.06420   0.13290   0.01267  Uiso   1.00
N67    N     0.80120   0.82310   0.06850   0.01267  Uiso   1.00
N68    N     0.81030   0.83590   0.95980   0.01267  Uiso   1.00
N69    N     0.92600   0.76960   0.94290   0.01267  Uiso   1.00
N70    N     0.81000   0.97860   0.80690   0.01267  Uiso   1.00
N71    N     0.86740   0.08080   0.82210   0.01267  Uiso   1.00
N72    N     0.99610   0.06450   0.76910   0.01267  Uiso   1.00
N73    N     0.65390   0.05850   0.02970   0.01267  Uiso   1.00
N74    N     0.58150   0.88540   0.95380   0.01267  Uiso   1.00
N75    N     0.50080   0.94870   0.12520   0.01267  Uiso   1.00
N76    N     0.83070   0.03910   0.01930   0.01267  Uiso   1.00
N77    N     0.95470   0.86850   0.02550   0.01267  Uiso   1.00
N78    N     0.96450   0.97950   0.87000   0.01267  Uiso   1.00
N79    N     0.92470   0.73860   0.06380   0.01267  Uiso   1.00
N80    N     0.10230   0.61190   0.05530   0.01267  Uiso   1.00
N81    N     0.10920   0.73530   0.20210   0.01267  Uiso   1.00
N82    N     0.87490   0.70050   0.23860   0.01267  Uiso   1.00
N83    N     0.87670   0.54890   0.11770   0.01267  Uiso   1.00
N84    N     0.94570   0.94650   0.73740   0.01267  Uiso   1.00
