data_image0
_cell_length_a       9.3525
_cell_length_b       10.917
_cell_length_c       24.175
_cell_angle_alpha    90
_cell_angle_beta     90
_cell_angle_gamma    90

_symmetry_space_group_name_H-M    "P 1"
_symmetry_int_tables_number       1

loop_
  _symmetry_equiv_pos_as_xyz
  'x, y, z'

loop_
  _atom_site_label
  _atom_site_occupancy
  _atom_site_fract_x
  _atom_site_fract_y
  _atom_site_fract_z
  _atom_site_thermal_displace_type
  _atom_site_B_iso_or_equiv
  _atom_site_type_symbol
  Co1      1.0000 0.24004  0.23011  0.03775  Biso   1.000  Co
  O1       1.0000 0.33140  0.39700  0.05210  Biso   1.000  O
  O2       1.0000 0.32040  0.26828  0.95797  Biso   1.000  O
  O3       1.0000 0.05920  0.32310  0.00815  Biso   1.000  O
  N1       1.0000 0.15100  0.22730  0.11580  Biso   1.000  N
  C1       1.0000 0.33290  0.46150  0.00987  Biso   1.000  C
  C2       1.0000 0.30980  0.39970  0.95339  Biso   1.000  C
  H1       1.0000 0.38260  0.42910  0.92750  Biso   1.000  H
  C3       1.0000 0.16200  0.42970  0.93041  Biso   1.000  C
  H2       1.0000 0.15910  0.40540  0.89180  Biso   1.000  H
  H3       1.0000 0.14860  0.51780  0.93180  Biso   1.000  H
  C4       1.0000 0.03770  0.36860  0.96053  Biso   1.000  C
  C5       1.0000 0.09770  0.33090  0.13743  Biso   1.000  C
  H4       1.0000 0.10190  0.40250  0.11660  Biso   1.000  H
  C6       1.0000 0.03660  0.33550  0.18957  Biso   1.000  C
  H5       1.0000 0.99900  0.40850  0.20300  Biso   1.000  H
  C7       1.0000 0.03200  0.22970  0.22162  Biso   1.000  C
  C8       1.0000 0.08700  0.12310  0.19863  Biso   1.000  C
  H6       1.0000 0.08560  0.05030  0.21860  Biso   1.000  H
  C9       1.0000 0.14400  0.12590  0.14554  Biso   1.000  C
  H7       1.0000 0.17870  0.05350  0.13030  Biso   1.000  H
  O4       1.0000 0.35350  0.57550  0.00830  Biso   1.000  O
  O5       1.0000 0.91930  0.36970  0.93686  Biso   1.000  O
  Ni1      1.0000 0.25996  0.73011  0.03775  Biso   1.000  Ni
  Co2      1.0000 0.25996  0.26989  0.53775  Biso   1.000  Co
  O6       1.0000 0.16860  0.10300  0.55210  Biso   1.000  O
  O7       1.0000 0.17960  0.23172  0.45797  Biso   1.000  O
  O8       1.0000 0.44080  0.17690  0.50815  Biso   1.000  O
  N2       1.0000 0.34900  0.27270  0.61580  Biso   1.000  N
  C10      1.0000 0.16710  0.03850  0.50987  Biso   1.000  C
  C11      1.0000 0.19020  0.10030  0.45339  Biso   1.000  C
  H8       1.0000 0.11740  0.07090  0.42750  Biso   1.000  H
  C12      1.0000 0.33800  0.07030  0.43041  Biso   1.000  C
  H9       1.0000 0.34090  0.09460  0.39180  Biso   1.000  H
  H10      1.0000 0.35140  0.98220  0.43180  Biso   1.000  H
  C13      1.0000 0.46230  0.13140  0.46053  Biso   1.000  C
  C14      1.0000 0.40230  0.16910  0.63743  Biso   1.000  C
  H11      1.0000 0.39810  0.09750  0.61660  Biso   1.000  H
  C15      1.0000 0.46340  0.16450  0.68957  Biso   1.000  C
  H12      1.0000 0.50100  0.09150  0.70300  Biso   1.000  H
  C16      1.0000 0.46800  0.27030  0.72162  Biso   1.000  C
  C17      1.0000 0.41300  0.37690  0.69863  Biso   1.000  C
  H13      1.0000 0.41440  0.44970  0.71860  Biso   1.000  H
  C18      1.0000 0.35600  0.37410  0.64554  Biso   1.000  C
  H14      1.0000 0.32130  0.44650  0.63030  Biso   1.000  H
  O9       1.0000 0.14650  0.92450  0.50830  Biso   1.000  O
  O10      1.0000 0.58070  0.13030  0.43686  Biso   1.000  O
  Ni2      1.0000 0.24004  0.76989  0.53775  Biso   1.000  Ni
  Co3      1.0000 0.75996  0.23011  0.46226  Biso   1.000  Co
  O11      1.0000 0.66860  0.39700  0.44790  Biso   1.000  O
  O12      1.0000 0.67960  0.26828  0.54203  Biso   1.000  O
  O13      1.0000 0.94080  0.32310  0.49185  Biso   1.000  O
  N3       1.0000 0.84900  0.22730  0.38420  Biso   1.000  N
  C19      1.0000 0.66710  0.46150  0.49013  Biso   1.000  C
  C20      1.0000 0.69020  0.39970  0.54661  Biso   1.000  C
  H15      1.0000 0.61740  0.42910  0.57250  Biso   1.000  H
  C21      1.0000 0.83800  0.42970  0.56959  Biso   1.000  C
  H16      1.0000 0.84090  0.40540  0.60820  Biso   1.000  H
  H17      1.0000 0.85140  0.51780  0.56820  Biso   1.000  H
  C22      1.0000 0.96230  0.36860  0.53947  Biso   1.000  C
  C23      1.0000 0.90230  0.33090  0.36257  Biso   1.000  C
  H18      1.0000 0.89810  0.40250  0.38340  Biso   1.000  H
  C24      1.0000 0.96340  0.33550  0.31043  Biso   1.000  C
  H19      1.0000 0.00100  0.40850  0.29700  Biso   1.000  H
  C25      1.0000 0.96800  0.22970  0.27838  Biso   1.000  C
  C26      1.0000 0.91300  0.12310  0.30137  Biso   1.000  C
  H20      1.0000 0.91440  0.05030  0.28140  Biso   1.000  H
  C27      1.0000 0.85600  0.12590  0.35446  Biso   1.000  C
  H21      1.0000 0.82130  0.05350  0.36970  Biso   1.000  H
  O14      1.0000 0.64650  0.57550  0.49170  Biso   1.000  O
  O15      1.0000 0.08070  0.36970  0.56314  Biso   1.000  O
  Ni3      1.0000 0.74004  0.73011  0.46226  Biso   1.000  Ni
  Co4      1.0000 0.74004  0.26989  0.96226  Biso   1.000  Co
  O16      1.0000 0.83140  0.10300  0.94790  Biso   1.000  O
  O17      1.0000 0.82040  0.23172  0.04203  Biso   1.000  O
  O18      1.0000 0.55920  0.17690  0.99185  Biso   1.000  O
  N4       1.0000 0.65100  0.27270  0.88420  Biso   1.000  N
  C28      1.0000 0.83290  0.03850  0.99013  Biso   1.000  C
  C29      1.0000 0.80980  0.10030  0.04661  Biso   1.000  C
  H22      1.0000 0.88260  0.07090  0.07250  Biso   1.000  H
  C30      1.0000 0.66200  0.07030  0.06959  Biso   1.000  C
  H23      1.0000 0.65910  0.09460  0.10820  Biso   1.000  H
  H24      1.0000 0.64860  0.98220  0.06820  Biso   1.000  H
  C31      1.0000 0.53770  0.13140  0.03947  Biso   1.000  C
  C32      1.0000 0.59770  0.16910  0.86257  Biso   1.000  C
  H25      1.0000 0.60190  0.09750  0.88340  Biso   1.000  H
  C33      1.0000 0.53660  0.16450  0.81043  Biso   1.000  C
  H26      1.0000 0.49900  0.09150  0.79700  Biso   1.000  H
  C34      1.0000 0.53200  0.27030  0.77838  Biso   1.000  C
  C35      1.0000 0.58700  0.37690  0.80137  Biso   1.000  C
  H27      1.0000 0.58560  0.44970  0.78140  Biso   1.000  H
  C36      1.0000 0.64400  0.37410  0.85446  Biso   1.000  C
  H28      1.0000 0.67870  0.44650  0.86970  Biso   1.000  H
  O19      1.0000 0.85350  0.92450  0.99170  Biso   1.000  O
  O20      1.0000 0.41930  0.13030  0.06314  Biso   1.000  O
  Ni4      1.0000 0.75996  0.76989  0.96226  Biso   1.000  Ni
  O21      1.0000 0.66860  0.60300  0.94790  Biso   1.000  O
  O22      1.0000 0.67960  0.73172  0.04203  Biso   1.000  O
  O23      1.0000 0.94080  0.67690  0.99185  Biso   1.000  O
  N5       1.0000 0.84900  0.77270  0.88420  Biso   1.000  N
  C37      1.0000 0.66710  0.53850  0.99013  Biso   1.000  C
  C38      1.0000 0.69020  0.60030  0.04661  Biso   1.000  C
  H29      1.0000 0.61740  0.57090  0.07250  Biso   1.000  H
  C39      1.0000 0.83800  0.57030  0.06959  Biso   1.000  C
  H30      1.0000 0.84090  0.59460  0.10820  Biso   1.000  H
  H31      1.0000 0.85140  0.48220  0.06820  Biso   1.000  H
  C40      1.0000 0.96230  0.63140  0.03947  Biso   1.000  C
  C41      1.0000 0.90230  0.66910  0.86257  Biso   1.000  C
  H32      1.0000 0.89810  0.59750  0.88340  Biso   1.000  H
  C42      1.0000 0.96340  0.66450  0.81043  Biso   1.000  C
  H33      1.0000 0.00100  0.59150  0.79700  Biso   1.000  H
  C43      1.0000 0.96800  0.77030  0.77838  Biso   1.000  C
  C44      1.0000 0.91300  0.87690  0.80137  Biso   1.000  C
  H34      1.0000 0.91440  0.94970  0.78140  Biso   1.000  H
  C45      1.0000 0.85600  0.87410  0.85446  Biso   1.000  C
  H35      1.0000 0.82130  0.94650  0.86970  Biso   1.000  H
  O24      1.0000 0.64650  0.42450  0.99170  Biso   1.000  O
  O25      1.0000 0.08070  0.63030  0.06314  Biso   1.000  O
  O26      1.0000 0.83140  0.89700  0.44790  Biso   1.000  O
  O27      1.0000 0.82040  0.76828  0.54203  Biso   1.000  O
  O28      1.0000 0.55920  0.82310  0.49185  Biso   1.000  O
  N6       1.0000 0.65100  0.72730  0.38420  Biso   1.000  N
  C46      1.0000 0.83290  0.96150  0.49013  Biso   1.000  C
  C47      1.0000 0.80980  0.89970  0.54661  Biso   1.000  C
  H36      1.0000 0.88260  0.92910  0.57250  Biso   1.000  H
  C48      1.0000 0.66200  0.92970  0.56959  Biso   1.000  C
  H37      1.0000 0.65910  0.90540  0.60820  Biso   1.000  H
  H38      1.0000 0.64860  0.01780  0.56820  Biso   1.000  H
  C49      1.0000 0.53770  0.86860  0.53947  Biso   1.000  C
  C50      1.0000 0.59770  0.83090  0.36257  Biso   1.000  C
  H39      1.0000 0.60190  0.90250  0.38340  Biso   1.000  H
  C51      1.0000 0.53660  0.83550  0.31043  Biso   1.000  C
  H40      1.0000 0.49900  0.90850  0.29700  Biso   1.000  H
  C52      1.0000 0.53200  0.72970  0.27838  Biso   1.000  C
  C53      1.0000 0.58700  0.62310  0.30137  Biso   1.000  C
  H41      1.0000 0.58560  0.55030  0.28140  Biso   1.000  H
  C54      1.0000 0.64400  0.62590  0.35446  Biso   1.000  C
  H42      1.0000 0.67870  0.55350  0.36970  Biso   1.000  H
  O29      1.0000 0.85350  0.07550  0.49170  Biso   1.000  O
  O30      1.0000 0.41930  0.86970  0.56314  Biso   1.000  O
  O31      1.0000 0.33140  0.60300  0.55210  Biso   1.000  O
  O32      1.0000 0.32040  0.73172  0.45797  Biso   1.000  O
  O33      1.0000 0.05920  0.67690  0.50815  Biso   1.000  O
  N7       1.0000 0.15100  0.77270  0.61580  Biso   1.000  N
  C55      1.0000 0.33290  0.53850  0.50987  Biso   1.000  C
  C56      1.0000 0.30980  0.60030  0.45339  Biso   1.000  C
  H43      1.0000 0.38260  0.57090  0.42750  Biso   1.000  H
  C57      1.0000 0.16200  0.57030  0.43041  Biso   1.000  C
  H44      1.0000 0.15910  0.59460  0.39180  Biso   1.000  H
  H45      1.0000 0.14860  0.48220  0.43180  Biso   1.000  H
  C58      1.0000 0.03770  0.63140  0.46053  Biso   1.000  C
  C59      1.0000 0.09770  0.66910  0.63743  Biso   1.000  C
  H46      1.0000 0.10190  0.59750  0.61660  Biso   1.000  H
  C60      1.0000 0.03660  0.66450  0.68957  Biso   1.000  C
  H47      1.0000 0.99900  0.59150  0.70300  Biso   1.000  H
  C61      1.0000 0.03200  0.77030  0.72162  Biso   1.000  C
  C62      1.0000 0.08700  0.87690  0.69863  Biso   1.000  C
  H48      1.0000 0.08560  0.94970  0.71860  Biso   1.000  H
  C63      1.0000 0.14400  0.87410  0.64554  Biso   1.000  C
  H49      1.0000 0.17870  0.94650  0.63030  Biso   1.000  H
  O34      1.0000 0.35350  0.42450  0.50830  Biso   1.000  O
  O35      1.0000 0.91930  0.63030  0.43686  Biso   1.000  O
  O36      1.0000 0.16860  0.89700  0.05210  Biso   1.000  O
  O37      1.0000 0.17960  0.76828  0.95797  Biso   1.000  O
  O38      1.0000 0.44080  0.82310  0.00815  Biso   1.000  O
  N8       1.0000 0.34900  0.72730  0.11580  Biso   1.000  N
  C64      1.0000 0.16710  0.96150  0.00987  Biso   1.000  C
  C65      1.0000 0.19020  0.89970  0.95339  Biso   1.000  C
  H50      1.0000 0.11740  0.92910  0.92750  Biso   1.000  H
  C66      1.0000 0.33800  0.92970  0.93041  Biso   1.000  C
  H51      1.0000 0.34090  0.90540  0.89180  Biso   1.000  H
  H52      1.0000 0.35140  0.01780  0.93180  Biso   1.000  H
  C67      1.0000 0.46230  0.86860  0.96053  Biso   1.000  C
  C68      1.0000 0.40230  0.83090  0.13743  Biso   1.000  C
  H53      1.0000 0.39810  0.90250  0.11660  Biso   1.000  H
  C69      1.0000 0.46340  0.83550  0.18957  Biso   1.000  C
  H54      1.0000 0.50100  0.90850  0.20300  Biso   1.000  H
  C70      1.0000 0.46800  0.72970  0.22162  Biso   1.000  C
  C71      1.0000 0.41300  0.62310  0.19863  Biso   1.000  C
  H55      1.0000 0.41440  0.55030  0.21860  Biso   1.000  H
  C72      1.0000 0.35600  0.62590  0.14554  Biso   1.000  C
  H56      1.0000 0.32130  0.55350  0.13030  Biso   1.000  H
  O39      1.0000 0.14650  0.07550  0.00830  Biso   1.000  O
  O40      1.0000 0.58070  0.86970  0.93686  Biso   1.000  O
