data_JEJWOL_clean
_audit_creation_date              2014-07-02
_audit_creation_method            'Materials Studio'
_symmetry_space_group_name_H-M    'P1'
_symmetry_Int_Tables_number       1
_symmetry_cell_setting            triclinic
loop_
_symmetry_equiv_pos_as_xyz
  x,y,z
_cell_length_a                    15.1560
_cell_length_b                    15.6570
_cell_length_c                    26.9670
_cell_angle_alpha                 81.6030
_cell_angle_beta                  78.0420
_cell_angle_gamma                 73.5290
loop_
_atom_site_label
_atom_site_type_symbol
_atom_site_fract_x
_atom_site_fract_y
_atom_site_fract_z
_atom_site_U_iso_or_equiv
_atom_site_adp_type
_atom_site_occupancy
Nd1    Nd    0.86609   0.22797   0.79243   0.01267  Uiso   1.00
Nd2    Nd    0.95499   0.85588   0.32552   0.01267  Uiso   1.00
Nd3    Nd    0.13391   0.77203   0.20757   0.01267  Uiso   1.00
Nd4    Nd    0.04501   0.14412   0.67448   0.01267  Uiso   1.00
H1     H     0.83450   0.55840   0.76870   0.01267  Uiso   1.00
H2     H     0.82700   0.69320   0.79640   0.01267  Uiso   1.00
H3     H     0.90760   0.56900   0.92830   0.01267  Uiso   1.00
H4     H     0.91640   0.43430   0.89920   0.01267  Uiso   1.00
H5     H     0.94760   0.73560   0.15700   0.01267  Uiso   1.00
H6     H     0.87220   0.70980   0.10020   0.01267  Uiso   1.00
H7     H     0.63090   0.87000   0.16530   0.01267  Uiso   1.00
H8     H     0.70970   0.89910   0.22250   0.01267  Uiso   1.00
H9     H     0.77030   0.63320   0.37000   0.01267  Uiso   1.00
H10    H     0.69300   0.53410   0.41970   0.01267  Uiso   1.00
H11    H     0.78700   0.57750   0.54130   0.01267  Uiso   1.00
H12    H     0.86290   0.67530   0.49030   0.01267  Uiso   1.00
H13    H     0.47270   0.65170   0.17200   0.01267  Uiso   1.00
H14    H     0.39020   0.88810   0.09610   0.01267  Uiso   1.00
H15    H     0.83520   0.01400   0.82510   0.01267  Uiso   1.00
H16    H     0.78960   0.90130   0.87960   0.01267  Uiso   1.00
H17    H     0.54400   0.63000   0.49990   0.01267  Uiso   1.00
H18    H     0.60350   0.36380   0.51210   0.01267  Uiso   1.00
H19    H     0.85050   0.39800   0.52730   0.01267  Uiso   1.00
H20    H     0.90630   0.31940   0.59890   0.01267  Uiso   1.00
H21    H     0.64620   0.36000   0.67390   0.01267  Uiso   1.00
H22    H     0.59170   0.44190   0.60370   0.01267  Uiso   1.00
H23    H     0.83660   0.83700   0.02810   0.01267  Uiso   1.00
H24    H     0.90020   0.81140   0.94670   0.01267  Uiso   1.00
H25    H     0.71590   0.68100   0.93870   0.01267  Uiso   1.00
H26    H     0.65030   0.70260   0.02000   0.01267  Uiso   1.00
H27    H     0.62750   0.65470   0.14340   0.01267  Uiso   1.00
H28    H     0.54180   0.89160   0.06570   0.01267  Uiso   1.00
H29    H     0.99310   0.71820   0.80510   0.01267  Uiso   1.00
H30    H     0.03810   0.83150   0.74710   0.01267  Uiso   1.00
H31    H     0.16550   0.44160   0.23130   0.01267  Uiso   1.00
H32    H     0.17300   0.30680   0.20360   0.01267  Uiso   1.00
H33    H     0.09240   0.43100   0.07170   0.01267  Uiso   1.00
H34    H     0.08360   0.56570   0.10080   0.01267  Uiso   1.00
H35    H     0.05240   0.26440   0.84300   0.01267  Uiso   1.00
H36    H     0.12780   0.29020   0.89980   0.01267  Uiso   1.00
H37    H     0.36910   0.13000   0.83470   0.01267  Uiso   1.00
H38    H     0.29030   0.10090   0.77750   0.01267  Uiso   1.00
H39    H     0.22970   0.36680   0.63000   0.01267  Uiso   1.00
H40    H     0.30700   0.46590   0.58030   0.01267  Uiso   1.00
H41    H     0.21300   0.42250   0.45870   0.01267  Uiso   1.00
H42    H     0.13710   0.32470   0.50970   0.01267  Uiso   1.00
H43    H     0.52730   0.34830   0.82800   0.01267  Uiso   1.00
H44    H     0.60980   0.11190   0.90390   0.01267  Uiso   1.00
H45    H     0.16480   0.98600   0.17490   0.01267  Uiso   1.00
H46    H     0.21040   0.09870   0.12040   0.01267  Uiso   1.00
H47    H     0.45600   0.37000   0.50010   0.01267  Uiso   1.00
H48    H     0.39650   0.63620   0.48790   0.01267  Uiso   1.00
H49    H     0.14950   0.60200   0.47270   0.01267  Uiso   1.00
H50    H     0.09370   0.68060   0.40110   0.01267  Uiso   1.00
H51    H     0.35380   0.64000   0.32610   0.01267  Uiso   1.00
H52    H     0.40830   0.55810   0.39630   0.01267  Uiso   1.00
H53    H     0.16340   0.16300   0.97190   0.01267  Uiso   1.00
H54    H     0.09980   0.18860   0.05330   0.01267  Uiso   1.00
H55    H     0.28410   0.31900   0.06130   0.01267  Uiso   1.00
H56    H     0.34970   0.29740   0.98000   0.01267  Uiso   1.00
H57    H     0.37250   0.34530   0.85660   0.01267  Uiso   1.00
H58    H     0.45820   0.10840   0.93430   0.01267  Uiso   1.00
H59    H     0.00690   0.28180   0.19490   0.01267  Uiso   1.00
H60    H     0.96190   0.16850   0.25290   0.01267  Uiso   1.00
C1     C     0.87170   0.39380   0.81950   0.01267  Uiso   1.00
C2     C     0.87310   0.48110   0.83420   0.01267  Uiso   1.00
C3     C     0.84800   0.56080   0.80050   0.01267  Uiso   1.00
C4     C     0.84470   0.64080   0.81730   0.01267  Uiso   1.00
C5     C     0.86640   0.64650   0.86360   0.01267  Uiso   1.00
C6     C     0.89330   0.56710   0.89670   0.01267  Uiso   1.00
C7     C     0.89670   0.48700   0.87900   0.01267  Uiso   1.00
C8     C     0.88290   0.83720   0.23620   0.01267  Uiso   1.00
C9     C     0.83560   0.81860   0.19680   0.01267  Uiso   1.00
C10    C     0.88420   0.76290   0.15850   0.01267  Uiso   1.00
C11    C     0.83970   0.74920   0.12450   0.01267  Uiso   1.00
C12    C     0.74300   0.79280   0.12370   0.01267  Uiso   1.00
C13    C     0.69500   0.84500   0.16270   0.01267  Uiso   1.00
C14    C     0.74160   0.86030   0.19780   0.01267  Uiso   1.00
C15    C     0.87660   0.72370   0.39050   0.01267  Uiso   1.00
C16    C     0.82640   0.66100   0.42360   0.01267  Uiso   1.00
C17    C     0.77440   0.62090   0.40440   0.01267  Uiso   1.00
C18    C     0.72680   0.56200   0.43420   0.01267  Uiso   1.00
C19    C     0.73050   0.54520   0.48670   0.01267  Uiso   1.00
C20    C     0.78340   0.58830   0.50680   0.01267  Uiso   1.00
C21    C     0.82960   0.64610   0.47630   0.01267  Uiso   1.00
C22    C     0.31690   0.76890   0.15570   0.01267  Uiso   1.00
C23    C     0.48680   0.70050   0.15090   0.01267  Uiso   1.00
C24    C     0.41650   0.77000   0.13640   0.01267  Uiso   1.00
C25    C     0.43830   0.84060   0.10560   0.01267  Uiso   1.00
C26    C     0.97210   0.00800   0.74080   0.01267  Uiso   1.00
C27    C     0.94050   0.93510   0.78170   0.01267  Uiso   1.00
C28    C     0.86710   0.95470   0.82050   0.01267  Uiso   1.00
C29    C     0.83980   0.88710   0.85310   0.01267  Uiso   1.00
C30    C     0.59090   0.49420   0.50880   0.01267  Uiso   1.00
C31    C     0.52700   0.57730   0.50030   0.01267  Uiso   1.00
C32    C     0.56180   0.41950   0.50750   0.01267  Uiso   1.00
C33    C     0.71420   0.43650   0.55890   0.01267  Uiso   1.00
C34    C     0.80880   0.39340   0.55750   0.01267  Uiso   1.00
C35    C     0.84250   0.34380   0.60010   0.01267  Uiso   1.00
C36    C     0.68850   0.36860   0.64450   0.01267  Uiso   1.00
C37    C     0.65580   0.41910   0.60230   0.01267  Uiso   1.00
C38    C     0.81900   0.28230   0.68820   0.01267  Uiso   1.00
C39    C     0.78100   0.33130   0.64380   0.01267  Uiso   1.00
C40    C     0.73850   0.76700   0.03460   0.01267  Uiso   1.00
C41    C     0.81310   0.80370   0.01070   0.01267  Uiso   1.00
C42    C     0.84930   0.78910   0.96200   0.01267  Uiso   1.00
C43    C     0.81720   0.74430   0.93320   0.01267  Uiso   1.00
C44    C     0.74060   0.71170   0.95700   0.01267  Uiso   1.00
C45    C     0.70220   0.72370   0.00550   0.01267  Uiso   1.00
C46    C     0.57950   0.70260   0.13420   0.01267  Uiso   1.00
C47    C     0.60040   0.77740   0.10330   0.01267  Uiso   1.00
C48    C     0.52910   0.84380   0.08810   0.01267  Uiso   1.00
C49    C     0.88420   0.80140   0.84720   0.01267  Uiso   1.00
C50    C     0.96110   0.77780   0.80820   0.01267  Uiso   1.00
C51    C     0.98890   0.84530   0.77410   0.01267  Uiso   1.00
C52    C     0.12830   0.60620   0.18050   0.01267  Uiso   1.00
C53    C     0.12690   0.51890   0.16580   0.01267  Uiso   1.00
C54    C     0.15200   0.43920   0.19950   0.01267  Uiso   1.00
C55    C     0.15530   0.35920   0.18270   0.01267  Uiso   1.00
C56    C     0.13360   0.35350   0.13640   0.01267  Uiso   1.00
C57    C     0.10670   0.43290   0.10330   0.01267  Uiso   1.00
C58    C     0.10330   0.51300   0.12100   0.01267  Uiso   1.00
C59    C     0.11710   0.16280   0.76380   0.01267  Uiso   1.00
C60    C     0.16440   0.18140   0.80320   0.01267  Uiso   1.00
C61    C     0.11580   0.23710   0.84150   0.01267  Uiso   1.00
C62    C     0.16030   0.25080   0.87550   0.01267  Uiso   1.00
C63    C     0.25700   0.20720   0.87630   0.01267  Uiso   1.00
C64    C     0.30500   0.15500   0.83730   0.01267  Uiso   1.00
C65    C     0.25840   0.13970   0.80220   0.01267  Uiso   1.00
C66    C     0.12340   0.27630   0.60950   0.01267  Uiso   1.00
C67    C     0.17360   0.33900   0.57640   0.01267  Uiso   1.00
C68    C     0.22560   0.37910   0.59560   0.01267  Uiso   1.00
C69    C     0.27320   0.43800   0.56580   0.01267  Uiso   1.00
C70    C     0.26950   0.45480   0.51330   0.01267  Uiso   1.00
C71    C     0.21660   0.41170   0.49320   0.01267  Uiso   1.00
C72    C     0.17040   0.35390   0.52370   0.01267  Uiso   1.00
C73    C     0.68310   0.23110   0.84430   0.01267  Uiso   1.00
C74    C     0.51320   0.29950   0.84910   0.01267  Uiso   1.00
C75    C     0.58350   0.23000   0.86360   0.01267  Uiso   1.00
C76    C     0.56170   0.15940   0.89440   0.01267  Uiso   1.00
C77    C     0.02790   0.99200   0.25920   0.01267  Uiso   1.00
C78    C     0.05950   0.06490   0.21830   0.01267  Uiso   1.00
C79    C     0.13290   0.04530   0.17950   0.01267  Uiso   1.00
C80    C     0.16020   0.11290   0.14690   0.01267  Uiso   1.00
C81    C     0.40910   0.50580   0.49120   0.01267  Uiso   1.00
C82    C     0.47300   0.42270   0.49970   0.01267  Uiso   1.00
C83    C     0.43820   0.58050   0.49250   0.01267  Uiso   1.00
C84    C     0.28580   0.56350   0.44110   0.01267  Uiso   1.00
C85    C     0.19120   0.60660   0.44250   0.01267  Uiso   1.00
C86    C     0.15750   0.65620   0.39990   0.01267  Uiso   1.00
C87    C     0.31150   0.63140   0.35550   0.01267  Uiso   1.00
C88    C     0.34420   0.58090   0.39770   0.01267  Uiso   1.00
C89    C     0.18100   0.71770   0.31180   0.01267  Uiso   1.00
C90    C     0.21900   0.66870   0.35620   0.01267  Uiso   1.00
C91    C     0.26150   0.23300   0.96540   0.01267  Uiso   1.00
C92    C     0.18690   0.19630   0.98930   0.01267  Uiso   1.00
C93    C     0.15070   0.21090   0.03800   0.01267  Uiso   1.00
C94    C     0.18280   0.25570   0.06680   0.01267  Uiso   1.00
C95    C     0.25940   0.28830   0.04300   0.01267  Uiso   1.00
C96    C     0.29780   0.27630   0.99450   0.01267  Uiso   1.00
C97    C     0.42050   0.29740   0.86580   0.01267  Uiso   1.00
C98    C     0.39960   0.22260   0.89670   0.01267  Uiso   1.00
C99    C     0.47090   0.15620   0.91190   0.01267  Uiso   1.00
C100   C     0.11580   0.19860   0.15280   0.01267  Uiso   1.00
C101   C     0.03890   0.22220   0.19180   0.01267  Uiso   1.00
C102   C     0.01110   0.15470   0.22590   0.01267  Uiso   1.00
N1     N     0.86100   0.72970   0.88180   0.01267  Uiso   1.00
N2     N     0.69700   0.77900   0.08720   0.01267  Uiso   1.00
N3     N     0.67790   0.48840   0.51730   0.01267  Uiso   1.00
N4     N     0.13900   0.27030   0.11820   0.01267  Uiso   1.00
N5     N     0.30300   0.22100   0.91280   0.01267  Uiso   1.00
N6     N     0.32210   0.51160   0.48270   0.01267  Uiso   1.00
O1     O     0.85450   0.39110   0.77360   0.01267  Uiso   1.00
O2     O     0.88960   0.32410   0.85050   0.01267  Uiso   1.00
O3     O     0.84150   0.89590   0.26560   0.01267  Uiso   1.00
O4     O     0.96440   0.79040   0.23950   0.01267  Uiso   1.00
O5     O     0.92640   0.76030   0.40830   0.01267  Uiso   1.00
O6     O     0.86700   0.74100   0.34540   0.01267  Uiso   1.00
O7     O     0.92780   0.09040   0.75111   0.01267  Uiso   1.00
O8     O     0.04250   0.98780   0.70760   0.01267  Uiso   1.00
O9     O     0.25630   0.84340   0.16250   0.01267  Uiso   1.00
O10    O     0.29600   0.69620   0.16440   0.01267  Uiso   1.00
O11    O     0.90280   0.26160   0.69130   0.01267  Uiso   1.00
O12    O     0.76130   0.26460   0.72820   0.01267  Uiso   1.00
O13    O     0.14550   0.60890   0.22640   0.01267  Uiso   1.00
O14    O     0.11040   0.67590   0.14950   0.01267  Uiso   1.00
O15    O     0.15850   0.10410   0.73440   0.01267  Uiso   1.00
O16    O     0.03560   0.20960   0.76050   0.01267  Uiso   1.00
O17    O     0.07360   0.23970   0.59170   0.01267  Uiso   1.00
O18    O     0.13300   0.25900   0.65460   0.01267  Uiso   1.00
O19    O     0.07220   0.90960   0.24889   0.01267  Uiso   1.00
O20    O     0.95750   0.01220   0.29240   0.01267  Uiso   1.00
O21    O     0.74370   0.15660   0.83750   0.01267  Uiso   1.00
O22    O     0.70400   0.30380   0.83560   0.01267  Uiso   1.00
O23    O     0.09720   0.73840   0.30870   0.01267  Uiso   1.00
O24    O     0.23870   0.73540   0.27180   0.01267  Uiso   1.00
