data_image0
_cell_length_a       13.9899
_cell_length_b       13.9899
_cell_length_c       14.936
_cell_angle_alpha    90
_cell_angle_beta     90
_cell_angle_gamma    120

_symmetry_space_group_name_H-M    "P 1"
_symmetry_int_tables_number       1

loop_
  _symmetry_equiv_pos_as_xyz
  'x, y, z'

loop_
  _atom_site_label
  _atom_site_occupancy
  _atom_site_fract_x
  _atom_site_fract_y
  _atom_site_fract_z
  _atom_site_thermal_displace_type
  _atom_site_B_iso_or_equiv
  _atom_site_type_symbol
  As1      1.0000 0.32532  0.86313  0.48033  Biso   1.000  As
  Fe1      1.0000 0.53674  0.87024  0.59595  Biso   1.000  Fe
  O1       1.0000 0.40950  0.82100  0.51955  Biso   1.000  O
  O2       1.0000 0.37670  0.99940  0.48302  Biso   1.000  O
  O3       1.0000 0.20280  0.80720  0.53243  Biso   1.000  O
  O4       1.0000 0.29870  0.82320  0.37021  Biso   1.000  O
  H1       1.0000 0.31240  0.77360  0.36090  Biso   1.000  H
  O5       1.0000 0.46570  0.74650  0.67909  Biso   1.000  O
  O6       1.0000 0.48680  0.95740  0.68377  Biso   1.000  O
  O7       1.0000 0.67130  0.94550  0.68899  Biso   1.000  O
  As2      1.0000 0.13687  0.46219  0.48033  Biso   1.000  As
  Fe2      1.0000 0.12976  0.66650  0.59595  Biso   1.000  Fe
  O8       1.0000 0.17900  0.58850  0.51955  Biso   1.000  O
  O9       1.0000 0.00060  0.37730  0.48302  Biso   1.000  O
  O10      1.0000 0.19280  0.39560  0.53243  Biso   1.000  O
  O11      1.0000 0.17680  0.47550  0.37021  Biso   1.000  O
  H2       1.0000 0.22640  0.53880  0.36090  Biso   1.000  H
  O12      1.0000 0.25350  0.71920  0.67909  Biso   1.000  O
  O13      1.0000 0.04260  0.52940  0.68377  Biso   1.000  O
  O14      1.0000 0.05450  0.72580  0.68899  Biso   1.000  O
  As3      1.0000 0.53781  0.67468  0.48033  Biso   1.000  As
  Fe3      1.0000 0.33350  0.46326  0.59595  Biso   1.000  Fe
  O15      1.0000 0.41150  0.59050  0.51955  Biso   1.000  O
  O16      1.0000 0.62270  0.62330  0.48302  Biso   1.000  O
  O17      1.0000 0.60440  0.79720  0.53243  Biso   1.000  O
  O18      1.0000 0.52450  0.70130  0.37021  Biso   1.000  O
  H3       1.0000 0.46120  0.68760  0.36090  Biso   1.000  H
  O19      1.0000 0.28080  0.53430  0.67909  Biso   1.000  O
  O20      1.0000 0.47060  0.51320  0.68377  Biso   1.000  O
  O21      1.0000 0.27420  0.32870  0.68899  Biso   1.000  O
  As4      1.0000 0.86313  0.32532  0.01967  Biso   1.000  As
  Fe4      1.0000 0.87024  0.53674  0.90405  Biso   1.000  Fe
  O22      1.0000 0.82100  0.40950  0.98045  Biso   1.000  O
  O23      1.0000 0.99940  0.37670  0.01698  Biso   1.000  O
  O24      1.0000 0.80720  0.20280  0.96757  Biso   1.000  O
  O25      1.0000 0.82320  0.29870  0.12979  Biso   1.000  O
  H4       1.0000 0.77360  0.31240  0.13910  Biso   1.000  H
  O26      1.0000 0.74650  0.46570  0.82091  Biso   1.000  O
  O27      1.0000 0.95740  0.48680  0.81623  Biso   1.000  O
  O28      1.0000 0.94550  0.67130  0.81101  Biso   1.000  O
  As5      1.0000 0.46219  0.13687  0.01967  Biso   1.000  As
  Fe5      1.0000 0.66650  0.12976  0.90405  Biso   1.000  Fe
  O29      1.0000 0.58850  0.17900  0.98045  Biso   1.000  O
  O30      1.0000 0.37730  0.00060  0.01698  Biso   1.000  O
  O31      1.0000 0.39560  0.19280  0.96757  Biso   1.000  O
  O32      1.0000 0.47550  0.17680  0.12979  Biso   1.000  O
  H5       1.0000 0.53880  0.22640  0.13910  Biso   1.000  H
  O33      1.0000 0.71920  0.25350  0.82091  Biso   1.000  O
  O34      1.0000 0.52940  0.04260  0.81623  Biso   1.000  O
  O35      1.0000 0.72580  0.05450  0.81101  Biso   1.000  O
  As6      1.0000 0.67468  0.53781  0.01967  Biso   1.000  As
  Fe6      1.0000 0.46326  0.33350  0.90405  Biso   1.000  Fe
  O36      1.0000 0.59050  0.41150  0.98045  Biso   1.000  O
  O37      1.0000 0.62330  0.62270  0.01698  Biso   1.000  O
  O38      1.0000 0.79720  0.60440  0.96757  Biso   1.000  O
  O39      1.0000 0.70130  0.52450  0.12979  Biso   1.000  O
  H6       1.0000 0.68760  0.46120  0.13910  Biso   1.000  H
  O40      1.0000 0.53430  0.28080  0.82091  Biso   1.000  O
  O41      1.0000 0.51320  0.47060  0.81623  Biso   1.000  O
  O42      1.0000 0.32870  0.27420  0.81101  Biso   1.000  O
  As7      1.0000 0.67468  0.13687  0.51967  Biso   1.000  As
  Fe7      1.0000 0.46326  0.12976  0.40405  Biso   1.000  Fe
  O43      1.0000 0.59050  0.17900  0.48045  Biso   1.000  O
  O44      1.0000 0.62330  0.00060  0.51698  Biso   1.000  O
  O45      1.0000 0.79720  0.19280  0.46757  Biso   1.000  O
  O46      1.0000 0.70130  0.17680  0.62979  Biso   1.000  O
  H7       1.0000 0.68760  0.22640  0.63910  Biso   1.000  H
  O47      1.0000 0.53430  0.25350  0.32091  Biso   1.000  O
  O48      1.0000 0.51320  0.04260  0.31623  Biso   1.000  O
  O49      1.0000 0.32870  0.05450  0.31101  Biso   1.000  O
  As8      1.0000 0.86313  0.53781  0.51967  Biso   1.000  As
  Fe8      1.0000 0.87024  0.33350  0.40405  Biso   1.000  Fe
  O50      1.0000 0.82100  0.41150  0.48045  Biso   1.000  O
  O51      1.0000 0.99940  0.62270  0.51698  Biso   1.000  O
  O52      1.0000 0.80720  0.60440  0.46757  Biso   1.000  O
  O53      1.0000 0.82320  0.52450  0.62979  Biso   1.000  O
  H8       1.0000 0.77360  0.46120  0.63910  Biso   1.000  H
  O54      1.0000 0.74650  0.28080  0.32091  Biso   1.000  O
  O55      1.0000 0.95740  0.47060  0.31623  Biso   1.000  O
  O56      1.0000 0.94550  0.27420  0.31101  Biso   1.000  O
  As9      1.0000 0.46219  0.32532  0.51967  Biso   1.000  As
  Fe9      1.0000 0.66650  0.53674  0.40405  Biso   1.000  Fe
  O57      1.0000 0.58850  0.40950  0.48045  Biso   1.000  O
  O58      1.0000 0.37730  0.37670  0.51698  Biso   1.000  O
  O59      1.0000 0.39560  0.20280  0.46757  Biso   1.000  O
  O60      1.0000 0.47550  0.29870  0.62979  Biso   1.000  O
  H9       1.0000 0.53880  0.31240  0.63910  Biso   1.000  H
  O61      1.0000 0.71920  0.46570  0.32091  Biso   1.000  O
  O62      1.0000 0.52940  0.48680  0.31623  Biso   1.000  O
  O63      1.0000 0.72580  0.67130  0.31101  Biso   1.000  O
  As10     1.0000 0.13687  0.67468  0.98033  Biso   1.000  As
  Fe10     1.0000 0.12976  0.46326  0.09595  Biso   1.000  Fe
  O64      1.0000 0.17900  0.59050  0.01955  Biso   1.000  O
  O65      1.0000 0.00060  0.62330  0.98302  Biso   1.000  O
  O66      1.0000 0.19280  0.79720  0.03243  Biso   1.000  O
  O67      1.0000 0.17680  0.70130  0.87021  Biso   1.000  O
  H10      1.0000 0.22640  0.68760  0.86090  Biso   1.000  H
  O68      1.0000 0.25350  0.53430  0.17909  Biso   1.000  O
  O69      1.0000 0.04260  0.51320  0.18377  Biso   1.000  O
  O70      1.0000 0.05450  0.32870  0.18899  Biso   1.000  O
  As11     1.0000 0.53781  0.86313  0.98033  Biso   1.000  As
  Fe11     1.0000 0.33350  0.87024  0.09595  Biso   1.000  Fe
  O71      1.0000 0.41150  0.82100  0.01955  Biso   1.000  O
  O72      1.0000 0.62270  0.99940  0.98302  Biso   1.000  O
  O73      1.0000 0.60440  0.80720  0.03243  Biso   1.000  O
  O74      1.0000 0.52450  0.82320  0.87021  Biso   1.000  O
  H11      1.0000 0.46120  0.77360  0.86090  Biso   1.000  H
  O75      1.0000 0.28080  0.74650  0.17909  Biso   1.000  O
  O76      1.0000 0.47060  0.95740  0.18377  Biso   1.000  O
  O77      1.0000 0.27420  0.94550  0.18899  Biso   1.000  O
  As12     1.0000 0.32532  0.46219  0.98033  Biso   1.000  As
  Fe12     1.0000 0.53674  0.66650  0.09595  Biso   1.000  Fe
  O78      1.0000 0.40950  0.58850  0.01955  Biso   1.000  O
  O79      1.0000 0.37670  0.37730  0.98302  Biso   1.000  O
  O80      1.0000 0.20280  0.39560  0.03243  Biso   1.000  O
  O81      1.0000 0.29870  0.47550  0.87021  Biso   1.000  O
  H12      1.0000 0.31240  0.53880  0.86090  Biso   1.000  H
  O82      1.0000 0.46570  0.71920  0.17909  Biso   1.000  O
  O83      1.0000 0.48680  0.52940  0.18377  Biso   1.000  O
  O84      1.0000 0.67130  0.72580  0.18899  Biso   1.000  O
  As13     1.0000 0.33333  0.66667  0.70826  Biso   1.000  As
  As14     1.0000 0.66667  0.33333  0.79174  Biso   1.000  As
  As15     1.0000 0.66667  0.33333  0.29174  Biso   1.000  As
  As16     1.0000 0.33333  0.66667  0.20826  Biso   1.000  As
  C1       1.0000 0.54940  0.00000  0.75000  Biso   1.000  C
  C2       1.0000 0.65920  0.00000  0.75000  Biso   1.000  C
  C3       1.0000 0.00000  0.54940  0.75000  Biso   1.000  C
  C4       1.0000 0.00000  0.65920  0.75000  Biso   1.000  C
  C5       1.0000 0.45060  0.45060  0.75000  Biso   1.000  C
  C6       1.0000 0.34080  0.34080  0.75000  Biso   1.000  C
  C7       1.0000 0.45060  0.00000  0.25000  Biso   1.000  C
  C8       1.0000 0.34080  0.00000  0.25000  Biso   1.000  C
  C9       1.0000 0.00000  0.45060  0.25000  Biso   1.000  C
  C10      1.0000 0.00000  0.34080  0.25000  Biso   1.000  C
  C11      1.0000 0.54940  0.54940  0.25000  Biso   1.000  C
  C12      1.0000 0.65920  0.65920  0.25000  Biso   1.000  C
