data_JEMNAR_clean
_audit_creation_date              2014-07-02
_audit_creation_method            'Materials Studio'
_symmetry_space_group_name_H-M    'P1'
_symmetry_Int_Tables_number       1
_symmetry_cell_setting            triclinic
loop_
_symmetry_equiv_pos_as_xyz
  x,y,z
_cell_length_a                    9.3549
_cell_length_b                    13.1040
_cell_length_c                    10.8830
_cell_angle_alpha                 113.0800
_cell_angle_beta                  90.0000
_cell_angle_gamma                 90.0000
loop_
_atom_site_label
_atom_site_type_symbol
_atom_site_fract_x
_atom_site_fract_y
_atom_site_fract_z
_atom_site_U_iso_or_equiv
_atom_site_adp_type
_atom_site_occupancy
Ni1    Ni    0.76161   0.57437   0.80666   0.01267  Uiso   1.00
Ni2    Ni    0.26161   0.42563   0.69334   0.01267  Uiso   1.00
Ni3    Ni    0.23839   0.42563   0.19334   0.01267  Uiso   1.00
Ni4    Ni    0.73839   0.57437   0.30666   0.01267  Uiso   1.00
H1     H     0.62030   0.35300   0.50300   0.01267  Uiso   1.00
H2     H     0.84410   0.28270   0.49500   0.01267  Uiso   1.00
H3     H     0.85380   0.36170   0.41860   0.01267  Uiso   1.00
H4     H     0.89370   0.73110   0.70690   0.01267  Uiso   1.00
H5     H     0.99180   0.90400   0.77660   0.01267  Uiso   1.00
H6     H     0.92650   0.93640   0.15200   0.01267  Uiso   1.00
H7     H     0.83570   0.75980   0.07180   0.01267  Uiso   1.00
H8     H     0.12030   0.64700   0.99700   0.01267  Uiso   1.00
H9     H     0.34410   0.71730   0.00500   0.01267  Uiso   1.00
H10    H     0.35380   0.63830   0.08140   0.01267  Uiso   1.00
H11    H     0.39370   0.26890   0.79310   0.01267  Uiso   1.00
H12    H     0.49180   0.09600   0.72340   0.01267  Uiso   1.00
H13    H     0.42650   0.06360   0.34800   0.01267  Uiso   1.00
H14    H     0.33570   0.24020   0.42820   0.01267  Uiso   1.00
H15    H     0.37970   0.64700   0.49700   0.01267  Uiso   1.00
H16    H     0.15590   0.71730   0.50500   0.01267  Uiso   1.00
H17    H     0.14620   0.63830   0.58140   0.01267  Uiso   1.00
H18    H     0.10630   0.26890   0.29310   0.01267  Uiso   1.00
H19    H     0.00820   0.09600   0.22340   0.01267  Uiso   1.00
H20    H     0.07350   0.06360   0.84800   0.01267  Uiso   1.00
H21    H     0.16430   0.24020   0.92820   0.01267  Uiso   1.00
H22    H     0.87970   0.35300   0.00300   0.01267  Uiso   1.00
H23    H     0.65590   0.28270   0.99500   0.01267  Uiso   1.00
H24    H     0.64620   0.36170   0.91860   0.01267  Uiso   1.00
H25    H     0.60630   0.73110   0.20690   0.01267  Uiso   1.00
H26    H     0.50820   0.90400   0.27660   0.01267  Uiso   1.00
H27    H     0.57350   0.93640   0.65200   0.01267  Uiso   1.00
H28    H     0.66430   0.75980   0.57180   0.01267  Uiso   1.00
C1     C     0.66800   0.51800   0.54780   0.01267  Uiso   1.00
C2     C     0.69250   0.40560   0.55730   0.01267  Uiso   1.00
C3     C     0.84060   0.35980   0.50600   0.01267  Uiso   1.00
C4     C     0.96360   0.42070   0.59450   0.01267  Uiso   1.00
C5     C     0.89960   0.77330   0.79820   0.01267  Uiso   1.00
C6     C     0.95870   0.87740   0.83910   0.01267  Uiso   1.00
C7     C     0.96840   0.94270   0.97530   0.01267  Uiso   1.00
C8     C     0.92100   0.89620   0.06030   0.01267  Uiso   1.00
C9     C     0.86470   0.79000   0.01140   0.01267  Uiso   1.00
C10    C     0.16800   0.48200   0.95220   0.01267  Uiso   1.00
C11    C     0.19250   0.59440   0.94270   0.01267  Uiso   1.00
C12    C     0.34060   0.64020   0.99400   0.01267  Uiso   1.00
C13    C     0.46360   0.57930   0.90550   0.01267  Uiso   1.00
C14    C     0.39960   0.22670   0.70180   0.01267  Uiso   1.00
C15    C     0.45870   0.12260   0.66090   0.01267  Uiso   1.00
C16    C     0.46840   0.05730   0.52470   0.01267  Uiso   1.00
C17    C     0.42100   0.10380   0.43970   0.01267  Uiso   1.00
C18    C     0.36470   0.21000   0.48860   0.01267  Uiso   1.00
C19    C     0.33200   0.48200   0.45220   0.01267  Uiso   1.00
C20    C     0.30750   0.59440   0.44270   0.01267  Uiso   1.00
C21    C     0.15940   0.64020   0.49400   0.01267  Uiso   1.00
C22    C     0.03640   0.57930   0.40550   0.01267  Uiso   1.00
C23    C     0.10040   0.22670   0.20180   0.01267  Uiso   1.00
C24    C     0.04130   0.12260   0.16090   0.01267  Uiso   1.00
C25    C     0.03160   0.05730   0.02470   0.01267  Uiso   1.00
C26    C     0.07900   0.10380   0.93970   0.01267  Uiso   1.00
C27    C     0.13530   0.21000   0.98860   0.01267  Uiso   1.00
C28    C     0.83200   0.51800   0.04780   0.01267  Uiso   1.00
C29    C     0.80750   0.40560   0.05730   0.01267  Uiso   1.00
C30    C     0.65940   0.35980   0.00600   0.01267  Uiso   1.00
C31    C     0.53640   0.42070   0.09450   0.01267  Uiso   1.00
C32    C     0.60040   0.77330   0.29820   0.01267  Uiso   1.00
C33    C     0.54130   0.87740   0.33910   0.01267  Uiso   1.00
C34    C     0.53160   0.94270   0.47530   0.01267  Uiso   1.00
C35    C     0.57900   0.89620   0.56030   0.01267  Uiso   1.00
C36    C     0.63530   0.79000   0.51140   0.01267  Uiso   1.00
N1     N     0.85060   0.72910   0.88060   0.01267  Uiso   1.00
N2     N     0.35060   0.27090   0.61940   0.01267  Uiso   1.00
N3     N     0.14940   0.27090   0.11940   0.01267  Uiso   1.00
N4     N     0.64940   0.72910   0.38060   0.01267  Uiso   1.00
O1     O     0.66900   0.60380   0.65380   0.01267  Uiso   1.00
O2     O     0.64550   0.51380   0.43260   0.01267  Uiso   1.00
O3     O     0.68090   0.41460   0.69330   0.01267  Uiso   1.00
O4     O     0.94240   0.51590   0.68560   0.01267  Uiso   1.00
O5     O     0.08440   0.37450   0.57120   0.01267  Uiso   1.00
O6     O     0.16900   0.39620   0.84620   0.01267  Uiso   1.00
O7     O     0.14550   0.48620   0.06740   0.01267  Uiso   1.00
O8     O     0.18090   0.58540   0.80670   0.01267  Uiso   1.00
O9     O     0.44240   0.48410   0.81440   0.01267  Uiso   1.00
O10    O     0.58440   0.62550   0.92880   0.01267  Uiso   1.00
O11    O     0.33100   0.39620   0.34620   0.01267  Uiso   1.00
O12    O     0.35450   0.48620   0.56740   0.01267  Uiso   1.00
O13    O     0.31910   0.58540   0.30670   0.01267  Uiso   1.00
O14    O     0.05760   0.48410   0.31440   0.01267  Uiso   1.00
O15    O     0.91560   0.62550   0.42880   0.01267  Uiso   1.00
O16    O     0.83100   0.60380   0.15380   0.01267  Uiso   1.00
O17    O     0.85450   0.51380   0.93260   0.01267  Uiso   1.00
O18    O     0.81910   0.41460   0.19330   0.01267  Uiso   1.00
O19    O     0.55760   0.51590   0.18560   0.01267  Uiso   1.00
O20    O     0.41560   0.37450   0.07120   0.01267  Uiso   1.00
