data_JEMQEY_clean
_audit_creation_date              2014-07-02
_audit_creation_method            'Materials Studio'
_symmetry_space_group_name_H-M    'P1'
_symmetry_Int_Tables_number       1
_symmetry_cell_setting            triclinic
loop_
_symmetry_equiv_pos_as_xyz
  x,y,z
_cell_length_a                    8.6463
_cell_length_b                    9.0805
_cell_length_c                    11.8880
_cell_angle_alpha                 110.2500
_cell_angle_beta                  90.0000
_cell_angle_gamma                 90.0000
loop_
_atom_site_label
_atom_site_type_symbol
_atom_site_fract_x
_atom_site_fract_y
_atom_site_fract_z
_atom_site_U_iso_or_equiv
_atom_site_adp_type
_atom_site_occupancy
Nd1    Nd    0.74888   0.52559   0.98773   0.01267  Uiso   1.00
Nd2    Nd    0.24888   0.47441   0.01227   0.01267  Uiso   1.00
H1     H     0.62620   0.12920   0.58150   0.01267  Uiso   1.00
H2     H     0.59010   0.27780   0.54200   0.01267  Uiso   1.00
H3     H     0.35810   0.32920   0.66170   0.01267  Uiso   1.00
H4     H     0.39400   0.18070   0.70110   0.01267  Uiso   1.00
H5     H     0.59570   0.07330   0.32020   0.01267  Uiso   1.00
H6     H     0.62040   0.93450   0.37270   0.01267  Uiso   1.00
H7     H     0.37210   0.83030   0.28370   0.01267  Uiso   1.00
H8     H     0.37800   0.95470   0.21590   0.01267  Uiso   1.00
H9     H     0.15560   0.58820   0.63240   0.01267  Uiso   1.00
H10    H     0.97630   0.63650   0.64320   0.01267  Uiso   1.00
H11    H     0.36260   0.15530   0.43900   0.01267  Uiso   1.00
H12    H     0.38090   0.01300   0.48860   0.01267  Uiso   1.00
H13    H     0.06460   0.13670   0.37130   0.01267  Uiso   1.00
H14    H     0.88220   0.16890   0.38280   0.01267  Uiso   1.00
H15    H     0.11450   0.41260   0.42370   0.01267  Uiso   1.00
H16    H     0.93250   0.44790   0.42820   0.01267  Uiso   1.00
H17    H     0.08220   0.31570   0.58830   0.01267  Uiso   1.00
H18    H     0.90340   0.36530   0.59590   0.01267  Uiso   1.00
H19    H     0.88840   0.25540   0.21680   0.01267  Uiso   1.00
H20    H     0.95030   0.07950   0.17930   0.01267  Uiso   1.00
H21    H     0.91200   0.71300   0.78800   0.01267  Uiso   1.00
H22    H     0.12620   0.87080   0.41850   0.01267  Uiso   1.00
H23    H     0.09010   0.72220   0.45800   0.01267  Uiso   1.00
H24    H     0.85810   0.67080   0.33830   0.01267  Uiso   1.00
H25    H     0.89400   0.81930   0.29890   0.01267  Uiso   1.00
H26    H     0.09570   0.92670   0.67980   0.01267  Uiso   1.00
H27    H     0.12040   0.06550   0.62730   0.01267  Uiso   1.00
H28    H     0.87210   0.16970   0.71630   0.01267  Uiso   1.00
H29    H     0.87800   0.04530   0.78410   0.01267  Uiso   1.00
H30    H     0.65560   0.41180   0.36760   0.01267  Uiso   1.00
H31    H     0.47630   0.36350   0.35680   0.01267  Uiso   1.00
H32    H     0.86260   0.84470   0.56100   0.01267  Uiso   1.00
H33    H     0.88090   0.98700   0.51140   0.01267  Uiso   1.00
H34    H     0.56460   0.86330   0.62870   0.01267  Uiso   1.00
H35    H     0.38220   0.83110   0.61720   0.01267  Uiso   1.00
H36    H     0.61450   0.58740   0.57630   0.01267  Uiso   1.00
H37    H     0.43250   0.55210   0.57180   0.01267  Uiso   1.00
H38    H     0.58220   0.68430   0.41170   0.01267  Uiso   1.00
H39    H     0.40340   0.63470   0.40410   0.01267  Uiso   1.00
H40    H     0.38840   0.74460   0.78320   0.01267  Uiso   1.00
H41    H     0.45030   0.92050   0.82070   0.01267  Uiso   1.00
H42    H     0.41200   0.28700   0.21200   0.01267  Uiso   1.00
C1     C     0.53580   0.77640   0.15040   0.01267  Uiso   1.00
C2     C     0.54240   0.19330   0.56510   0.01267  Uiso   1.00
C3     C     0.44200   0.26570   0.67870   0.01267  Uiso   1.00
C4     C     0.54150   0.99720   0.34910   0.01267  Uiso   1.00
C5     C     0.44250   0.89010   0.24970   0.01267  Uiso   1.00
C6     C     0.05250   0.57380   0.78690   0.01267  Uiso   1.00
C7     C     0.05200   0.56140   0.65510   0.01267  Uiso   1.00
C8     C     0.43860   0.08890   0.46160   0.01267  Uiso   1.00
C9     C     0.13100   0.24000   0.17200   0.01267  Uiso   1.00
C10    C     0.98100   0.20500   0.35980   0.01267  Uiso   1.00
C11    C     0.01200   0.37800   0.44270   0.01267  Uiso   1.00
C12    C     0.00800   0.39100   0.57480   0.01267  Uiso   1.00
C13    C     0.97500   0.19000   0.22730   0.01267  Uiso   1.00
C14    C     0.53930   0.36750   0.78090   0.01267  Uiso   1.00
C15    C     0.03580   0.22360   0.84960   0.01267  Uiso   1.00
C16    C     0.04240   0.80670   0.43490   0.01267  Uiso   1.00
C17    C     0.94200   0.73430   0.32130   0.01267  Uiso   1.00
C18    C     0.04150   0.00280   0.65090   0.01267  Uiso   1.00
C19    C     0.94250   0.10990   0.75030   0.01267  Uiso   1.00
C20    C     0.55250   0.42620   0.21310   0.01267  Uiso   1.00
C21    C     0.55200   0.43860   0.34490   0.01267  Uiso   1.00
C22    C     0.93860   0.91110   0.53840   0.01267  Uiso   1.00
C23    C     0.63100   0.76000   0.82800   0.01267  Uiso   1.00
C24    C     0.48100   0.79500   0.64020   0.01267  Uiso   1.00
C25    C     0.51200   0.62200   0.55730   0.01267  Uiso   1.00
C26    C     0.50800   0.60900   0.42520   0.01267  Uiso   1.00
C27    C     0.47500   0.81000   0.77270   0.01267  Uiso   1.00
C28    C     0.03930   0.63250   0.21910   0.01267  Uiso   1.00
O1     O     0.46960   0.42330   0.88530   0.01267  Uiso   1.00
O2     O     0.93830   0.63240   0.84970   0.01267  Uiso   1.00
O3     O     0.11640   0.26800   0.08170   0.01267  Uiso   1.00
O4     O     0.67590   0.79770   0.13210   0.01267  Uiso   1.00
O5     O     0.67870   0.39970   0.77560   0.01267  Uiso   1.00
O6     O     0.17010   0.52140   0.82330   0.01267  Uiso   1.00
O7     O     0.46930   0.64580   0.08390   0.01267  Uiso   1.00
O8     O     0.26100   0.23490   0.23100   0.01267  Uiso   1.00
O9     O     0.96960   0.57670   0.11470   0.01267  Uiso   1.00
O10    O     0.43830   0.36760   0.15030   0.01267  Uiso   1.00
O11    O     0.61640   0.73200   0.91830   0.01267  Uiso   1.00
O12    O     0.17590   0.20230   0.86790   0.01267  Uiso   1.00
O13    O     0.17870   0.60030   0.22440   0.01267  Uiso   1.00
O14    O     0.67010   0.47860   0.17670   0.01267  Uiso   1.00
O15    O     0.96930   0.35420   0.91610   0.01267  Uiso   1.00
O16    O     0.76100   0.76510   0.76900   0.01267  Uiso   1.00
