data_JETNOL_clean
_audit_creation_date              2014-07-02
_audit_creation_method            'Materials Studio'
_symmetry_space_group_name_H-M    'P1'
_symmetry_Int_Tables_number       1
_symmetry_cell_setting            triclinic
loop_
_symmetry_equiv_pos_as_xyz
  x,y,z
_cell_length_a                    7.7053
_cell_length_b                    7.7053
_cell_length_c                    14.8155
_cell_angle_alpha                 90.0000
_cell_angle_beta                  90.0000
_cell_angle_gamma                 120.0000
loop_
_atom_site_label
_atom_site_type_symbol
_atom_site_fract_x
_atom_site_fract_y
_atom_site_fract_z
_atom_site_U_iso_or_equiv
_atom_site_adp_type
_atom_site_occupancy
La1    La    0.66667   0.33334   0.75000   0.01267  Uiso   1.00
La2    La    0.33333   0.66666   0.25000   0.01267  Uiso   1.00
Cr1    Cr    0.00000   0.00000   0.50000   0.01267  Uiso   1.00
Cr2    Cr    0.00000   0.00000   0.00000   0.01267  Uiso   1.00
C1     C     0.25160   0.10920   0.58070   0.01267  Uiso   1.00
C2     C     0.85760   0.74840   0.58070   0.01267  Uiso   1.00
C3     C     0.89080   0.14240   0.58070   0.01267  Uiso   1.00
C4     C     0.74840   0.89080   0.08070   0.01267  Uiso   1.00
C5     C     0.14240   0.25160   0.08070   0.01267  Uiso   1.00
C6     C     0.10920   0.85760   0.08070   0.01267  Uiso   1.00
C7     C     0.74840   0.89080   0.41930   0.01267  Uiso   1.00
C8     C     0.14240   0.25160   0.41930   0.01267  Uiso   1.00
C9     C     0.10920   0.85760   0.41930   0.01267  Uiso   1.00
C10    C     0.25160   0.10920   0.91930   0.01267  Uiso   1.00
C11    C     0.85760   0.74840   0.91930   0.01267  Uiso   1.00
C12    C     0.89080   0.14240   0.91930   0.01267  Uiso   1.00
N1     N     0.38970   0.16980   0.62540   0.01267  Uiso   1.00
N2     N     0.78010   0.61030   0.62540   0.01267  Uiso   1.00
N3     N     0.83020   0.21990   0.62540   0.01267  Uiso   1.00
N4     N     0.61030   0.83020   0.12540   0.01267  Uiso   1.00
N5     N     0.21990   0.38970   0.12540   0.01267  Uiso   1.00
N6     N     0.16980   0.78010   0.12540   0.01267  Uiso   1.00
N7     N     0.61030   0.83020   0.37460   0.01267  Uiso   1.00
N8     N     0.21990   0.38970   0.37460   0.01267  Uiso   1.00
N9     N     0.16980   0.78010   0.37460   0.01267  Uiso   1.00
N10    N     0.38970   0.16980   0.87460   0.01267  Uiso   1.00
N11    N     0.78010   0.61030   0.87460   0.01267  Uiso   1.00
N12    N     0.83020   0.21990   0.87460   0.01267  Uiso   1.00
