data_JETZAK_clean
_audit_creation_date              2014-07-02
_audit_creation_method            'Materials Studio'
_symmetry_space_group_name_H-M    'P1'
_symmetry_Int_Tables_number       1
_symmetry_cell_setting            triclinic
loop_
_symmetry_equiv_pos_as_xyz
  x,y,z
_cell_length_a                    11.3918
_cell_length_b                    11.4299
_cell_length_c                    26.9980
_cell_angle_alpha                 90.0000
_cell_angle_beta                  90.0000
_cell_angle_gamma                 94.2830
loop_
_atom_site_label
_atom_site_type_symbol
_atom_site_fract_x
_atom_site_fract_y
_atom_site_fract_z
_atom_site_U_iso_or_equiv
_atom_site_adp_type
_atom_site_occupancy
Mg1    Mg    0.86026   0.24997   0.46172   0.01267  Uiso   1.00
Mg2    Mg    0.63974   0.75003   0.96172   0.01267  Uiso   1.00
Mg3    Mg    0.13974   0.75003   0.53828   0.01267  Uiso   1.00
Mg4    Mg    0.36026   0.24997   0.03828   0.01267  Uiso   1.00
Mg5    Mg    0.00000   0.00000   0.50000   0.01267  Uiso   1.00
Mg6    Mg    0.50000   0.00000   0.00000   0.01267  Uiso   1.00
H1     H     0.17690   0.47200   0.46050   0.01267  Uiso   1.00
H2     H     0.35210   0.58830   0.47330   0.01267  Uiso   1.00
H3     H     0.49530   0.31380   0.53910   0.01267  Uiso   1.00
H4     H     0.32000   0.19750   0.52630   0.01267  Uiso   1.00
H5     H     0.76150   0.30810   0.62200   0.01267  Uiso   1.00
H6     H     0.71210   0.25770   0.70330   0.01267  Uiso   1.00
H7     H     0.77660   0.92230   0.67460   0.01267  Uiso   1.00
H8     H     0.82630   0.97240   0.59320   0.01267  Uiso   1.00
H9     H     0.79480   0.19210   0.78790   0.01267  Uiso   1.00
H10    H     0.70890   0.14440   0.86510   0.01267  Uiso   1.00
H11    H     0.54100   0.85250   0.80780   0.01267  Uiso   1.00
H12    H     0.61730   0.90140   0.72920   0.01267  Uiso   1.00
H13    H     0.32310   0.52800   0.96050   0.01267  Uiso   1.00
H14    H     0.14790   0.41170   0.97330   0.01267  Uiso   1.00
H15    H     0.00470   0.68620   0.03910   0.01267  Uiso   1.00
H16    H     0.18000   0.80250   0.02630   0.01267  Uiso   1.00
H17    H     0.73850   0.69190   0.12200   0.01267  Uiso   1.00
H18    H     0.78790   0.74230   0.20330   0.01267  Uiso   1.00
H19    H     0.72340   0.07770   0.17460   0.01267  Uiso   1.00
H20    H     0.67370   0.02760   0.09320   0.01267  Uiso   1.00
H21    H     0.70520   0.80790   0.28790   0.01267  Uiso   1.00
H22    H     0.79110   0.85560   0.36510   0.01267  Uiso   1.00
H23    H     0.95900   0.14750   0.30780   0.01267  Uiso   1.00
H24    H     0.88270   0.09860   0.22920   0.01267  Uiso   1.00
H25    H     0.82310   0.52800   0.53950   0.01267  Uiso   1.00
H26    H     0.64790   0.41170   0.52670   0.01267  Uiso   1.00
H27    H     0.50470   0.68620   0.46090   0.01267  Uiso   1.00
H28    H     0.68000   0.80250   0.47370   0.01267  Uiso   1.00
H29    H     0.23850   0.69190   0.37800   0.01267  Uiso   1.00
H30    H     0.28790   0.74230   0.29670   0.01267  Uiso   1.00
H31    H     0.22340   0.07770   0.32540   0.01267  Uiso   1.00
H32    H     0.17370   0.02760   0.40680   0.01267  Uiso   1.00
H33    H     0.20520   0.80790   0.21210   0.01267  Uiso   1.00
H34    H     0.29110   0.85560   0.13490   0.01267  Uiso   1.00
H35    H     0.45900   0.14750   0.19220   0.01267  Uiso   1.00
H36    H     0.38270   0.09860   0.27080   0.01267  Uiso   1.00
H37    H     0.67690   0.47200   0.03950   0.01267  Uiso   1.00
H38    H     0.85210   0.58830   0.02670   0.01267  Uiso   1.00
H39    H     0.99530   0.31380   0.96090   0.01267  Uiso   1.00
H40    H     0.82000   0.19750   0.97370   0.01267  Uiso   1.00
H41    H     0.26150   0.30810   0.87800   0.01267  Uiso   1.00
H42    H     0.21210   0.25770   0.79670   0.01267  Uiso   1.00
H43    H     0.27660   0.92230   0.82540   0.01267  Uiso   1.00
H44    H     0.32630   0.97240   0.90680   0.01267  Uiso   1.00
H45    H     0.29480   0.19210   0.71210   0.01267  Uiso   1.00
H46    H     0.20890   0.14440   0.63490   0.01267  Uiso   1.00
H47    H     0.04100   0.85250   0.69220   0.01267  Uiso   1.00
H48    H     0.11730   0.90140   0.77080   0.01267  Uiso   1.00
C1     C     0.11580   0.25150   0.48098   0.01267  Uiso   1.00
C2     C     0.23200   0.32380   0.49220   0.01267  Uiso   1.00
C3     C     0.24150   0.43990   0.47650   0.01267  Uiso   1.00
C4     C     0.34560   0.50900   0.48400   0.01267  Uiso   1.00
C5     C     0.44020   0.46200   0.50740   0.01267  Uiso   1.00
C6     C     0.43060   0.34590   0.52310   0.01267  Uiso   1.00
C7     C     0.32650   0.27680   0.51560   0.01267  Uiso   1.00
C8     C     0.82850   0.18140   0.54776   0.01267  Uiso   1.00
C9     C     0.79940   0.14530   0.59969   0.01267  Uiso   1.00
C10    C     0.76480   0.22920   0.63265   0.01267  Uiso   1.00
C11    C     0.73500   0.19910   0.68110   0.01267  Uiso   1.00
C12    C     0.73820   0.08490   0.69732   0.01267  Uiso   1.00
C13    C     0.77320   0.00120   0.66394   0.01267  Uiso   1.00
C14    C     0.80320   0.03080   0.61548   0.01267  Uiso   1.00
C15    C     0.70310   0.05230   0.74870   0.01267  Uiso   1.00
C16    C     0.74100   0.12510   0.79160   0.01267  Uiso   1.00
C17    C     0.69500   0.09250   0.83790   0.01267  Uiso   1.00
C18    C     0.63200   0.99010   0.84525   0.01267  Uiso   1.00
C19    C     0.59410   0.91990   0.80360   0.01267  Uiso   1.00
C20    C     0.63630   0.95190   0.75650   0.01267  Uiso   1.00
C21    C     0.59390   0.94940   0.89630   0.01267  Uiso   1.00
C22    C     0.38420   0.74850   0.98098   0.01267  Uiso   1.00
C23    C     0.26800   0.67620   0.99220   0.01267  Uiso   1.00
C24    C     0.25850   0.56010   0.97650   0.01267  Uiso   1.00
C25    C     0.15440   0.49100   0.98400   0.01267  Uiso   1.00
C26    C     0.05980   0.53800   0.00740   0.01267  Uiso   1.00
C27    C     0.06940   0.65410   0.02310   0.01267  Uiso   1.00
C28    C     0.17350   0.72320   0.01560   0.01267  Uiso   1.00
C29    C     0.67150   0.81860   0.04776   0.01267  Uiso   1.00
C30    C     0.70060   0.85470   0.09969   0.01267  Uiso   1.00
C31    C     0.73520   0.77080   0.13265   0.01267  Uiso   1.00
C32    C     0.76500   0.80090   0.18110   0.01267  Uiso   1.00
C33    C     0.76180   0.91510   0.19732   0.01267  Uiso   1.00
C34    C     0.72680   0.99880   0.16394   0.01267  Uiso   1.00
C35    C     0.69680   0.96920   0.11548   0.01267  Uiso   1.00
C36    C     0.79690   0.94770   0.24870   0.01267  Uiso   1.00
C37    C     0.75900   0.87490   0.29160   0.01267  Uiso   1.00
C38    C     0.80500   0.90750   0.33790   0.01267  Uiso   1.00
C39    C     0.86800   0.00990   0.34525   0.01267  Uiso   1.00
C40    C     0.90590   0.08010   0.30360   0.01267  Uiso   1.00
C41    C     0.86370   0.04810   0.25650   0.01267  Uiso   1.00
C42    C     0.90610   0.05060   0.39630   0.01267  Uiso   1.00
C43    C     0.88420   0.74850   0.51902   0.01267  Uiso   1.00
C44    C     0.76800   0.67620   0.50780   0.01267  Uiso   1.00
C45    C     0.75850   0.56010   0.52350   0.01267  Uiso   1.00
C46    C     0.65440   0.49100   0.51600   0.01267  Uiso   1.00
C47    C     0.55980   0.53800   0.49260   0.01267  Uiso   1.00
C48    C     0.56940   0.65410   0.47690   0.01267  Uiso   1.00
C49    C     0.67350   0.72320   0.48440   0.01267  Uiso   1.00
C50    C     0.17150   0.81860   0.45224   0.01267  Uiso   1.00
C51    C     0.20060   0.85470   0.40031   0.01267  Uiso   1.00
C52    C     0.23520   0.77080   0.36735   0.01267  Uiso   1.00
C53    C     0.26500   0.80090   0.31890   0.01267  Uiso   1.00
C54    C     0.26180   0.91510   0.30268   0.01267  Uiso   1.00
C55    C     0.22680   0.99880   0.33606   0.01267  Uiso   1.00
C56    C     0.19680   0.96920   0.38452   0.01267  Uiso   1.00
C57    C     0.29690   0.94770   0.25130   0.01267  Uiso   1.00
C58    C     0.25900   0.87490   0.20840   0.01267  Uiso   1.00
C59    C     0.30500   0.90750   0.16210   0.01267  Uiso   1.00
C60    C     0.36800   0.00990   0.15475   0.01267  Uiso   1.00
C61    C     0.40590   0.08010   0.19640   0.01267  Uiso   1.00
C62    C     0.36370   0.04810   0.24350   0.01267  Uiso   1.00
C63    C     0.40610   0.05060   0.10370   0.01267  Uiso   1.00
C64    C     0.61580   0.25150   0.01902   0.01267  Uiso   1.00
C65    C     0.73200   0.32380   0.00780   0.01267  Uiso   1.00
C66    C     0.74150   0.43990   0.02350   0.01267  Uiso   1.00
C67    C     0.84560   0.50900   0.01600   0.01267  Uiso   1.00
C68    C     0.94020   0.46200   0.99260   0.01267  Uiso   1.00
C69    C     0.93060   0.34590   0.97690   0.01267  Uiso   1.00
C70    C     0.82650   0.27680   0.98440   0.01267  Uiso   1.00
C71    C     0.32850   0.18140   0.95224   0.01267  Uiso   1.00
C72    C     0.29940   0.14530   0.90031   0.01267  Uiso   1.00
C73    C     0.26480   0.22920   0.86735   0.01267  Uiso   1.00
C74    C     0.23500   0.19910   0.81890   0.01267  Uiso   1.00
C75    C     0.23820   0.08490   0.80268   0.01267  Uiso   1.00
C76    C     0.27320   0.00120   0.83606   0.01267  Uiso   1.00
C77    C     0.30320   0.03080   0.88452   0.01267  Uiso   1.00
C78    C     0.20310   0.05230   0.75130   0.01267  Uiso   1.00
C79    C     0.24100   0.12510   0.70840   0.01267  Uiso   1.00
C80    C     0.19500   0.09250   0.66210   0.01267  Uiso   1.00
C81    C     0.13200   0.99010   0.65475   0.01267  Uiso   1.00
C82    C     0.09410   0.91990   0.69640   0.01267  Uiso   1.00
C83    C     0.13630   0.95190   0.74350   0.01267  Uiso   1.00
C84    C     0.09390   0.94940   0.60370   0.01267  Uiso   1.00
O1     O     0.81170   0.28399   0.53453   0.01267  Uiso   1.00
O2     O     0.86686   0.10967   0.51705   0.01267  Uiso   1.00
O3     O     0.57700   0.84190   0.90260   0.01267  Uiso   1.00
O4     O     0.02665   0.30904   0.47587   0.01267  Uiso   1.00
O5     O     0.56312   0.02156   0.92694   0.01267  Uiso   1.00
O6     O     0.11752   0.14269   0.48313   0.01267  Uiso   1.00
O7     O     0.68830   0.71601   0.03453   0.01267  Uiso   1.00
O8     O     0.63314   0.89033   0.01705   0.01267  Uiso   1.00
O9     O     0.92300   0.15810   0.40260   0.01267  Uiso   1.00
O10    O     0.47335   0.69096   0.97587   0.01267  Uiso   1.00
O11    O     0.93688   0.97844   0.42694   0.01267  Uiso   1.00
O12    O     0.38248   0.85731   0.98313   0.01267  Uiso   1.00
O13    O     0.18830   0.71601   0.46547   0.01267  Uiso   1.00
O14    O     0.13314   0.89033   0.48295   0.01267  Uiso   1.00
O15    O     0.42300   0.15810   0.09740   0.01267  Uiso   1.00
O16    O     0.97335   0.69096   0.52413   0.01267  Uiso   1.00
O17    O     0.43688   0.97844   0.07306   0.01267  Uiso   1.00
O18    O     0.88248   0.85731   0.51687   0.01267  Uiso   1.00
O19    O     0.31170   0.28399   0.96547   0.01267  Uiso   1.00
O20    O     0.36686   0.10967   0.98295   0.01267  Uiso   1.00
O21    O     0.07700   0.84190   0.59740   0.01267  Uiso   1.00
O22    O     0.52665   0.30904   0.02413   0.01267  Uiso   1.00
O23    O     0.06312   0.02156   0.57306   0.01267  Uiso   1.00
O24    O     0.61752   0.14269   0.01687   0.01267  Uiso   1.00
