data_JEXSOV_clean
_audit_creation_date              2014-07-02
_audit_creation_method            'Materials Studio'
_symmetry_space_group_name_H-M    'P1'
_symmetry_Int_Tables_number       1
_symmetry_cell_setting            triclinic
loop_
_symmetry_equiv_pos_as_xyz
  x,y,z
_cell_length_a                    6.2672
_cell_length_b                    8.6204
_cell_length_c                    12.9360
_cell_angle_alpha                 105.3140
_cell_angle_beta                  90.4390
_cell_angle_gamma                 105.0810
loop_
_atom_site_label
_atom_site_type_symbol
_atom_site_fract_x
_atom_site_fract_y
_atom_site_fract_z
_atom_site_U_iso_or_equiv
_atom_site_adp_type
_atom_site_occupancy
Nd1    Nd    0.80913   0.66646   0.07490   0.01267  Uiso   1.00
Nd2    Nd    0.55756   0.02780   0.25762   0.01267  Uiso   1.00
Nd3    Nd    0.19087   0.33354   0.92510   0.01267  Uiso   1.00
Nd4    Nd    0.44244   0.97220   0.74238   0.01267  Uiso   1.00
H1     H     0.98030   0.96950   0.29530   0.01267  Uiso   1.00
H2     H     0.01970   0.03050   0.70470   0.01267  Uiso   1.00
C1     C     0.94470   0.05190   0.04560   0.01267  Uiso   1.00
C2     C     0.54260   0.30210   0.12840   0.01267  Uiso   1.00
C3     C     0.73120   0.39470   0.21830   0.01267  Uiso   1.00
C4     C     0.40540   0.91840   0.47870   0.01267  Uiso   1.00
C5     C     0.05530   0.94810   0.95440   0.01267  Uiso   1.00
C6     C     0.45740   0.69790   0.87160   0.01267  Uiso   1.00
C7     C     0.26880   0.60530   0.78170   0.01267  Uiso   1.00
C8     C     0.59460   0.08160   0.52130   0.01267  Uiso   1.00
N1     N     0.28430   0.70750   0.13140   0.01267  Uiso   1.00
N2     N     0.71570   0.29250   0.86860   0.01267  Uiso   1.00
O1     O     0.82740   0.97120   0.10350   0.01267  Uiso   1.00
O2     O     0.97910   0.20390   0.05540   0.01267  Uiso   1.00
O3     O     0.44170   0.15630   0.12550   0.01267  Uiso   1.00
O4     O     0.50460   0.38410   0.06580   0.01267  Uiso   1.00
O5     O     0.76530   0.31420   0.28210   0.01267  Uiso   1.00
O6     O     0.83590   0.54020   0.22210   0.01267  Uiso   1.00
O7     O     0.35840   0.86970   0.37950   0.01267  Uiso   1.00
O8     O     0.31630   0.84930   0.54780   0.01267  Uiso   1.00
O9     O     0.20060   0.83180   0.16230   0.01267  Uiso   1.00
O10    O     0.16040   0.56690   0.07530   0.01267  Uiso   1.00
O11    O     0.49000   0.73220   0.16050   0.01267  Uiso   1.00
O12    O     0.85870   0.89790   0.29480   0.01267  Uiso   1.00
O13    O     0.17260   0.02880   0.89650   0.01267  Uiso   1.00
O14    O     0.02090   0.79610   0.94460   0.01267  Uiso   1.00
O15    O     0.55830   0.84370   0.87450   0.01267  Uiso   1.00
O16    O     0.49540   0.61590   0.93420   0.01267  Uiso   1.00
O17    O     0.23470   0.68580   0.71790   0.01267  Uiso   1.00
O18    O     0.16410   0.45980   0.77790   0.01267  Uiso   1.00
O19    O     0.64160   0.13030   0.62050   0.01267  Uiso   1.00
O20    O     0.68370   0.15070   0.45220   0.01267  Uiso   1.00
O21    O     0.79940   0.16820   0.83770   0.01267  Uiso   1.00
O22    O     0.83960   0.43310   0.92470   0.01267  Uiso   1.00
O23    O     0.51000   0.26780   0.83950   0.01267  Uiso   1.00
O24    O     0.14130   0.10210   0.70520   0.01267  Uiso   1.00
