data_image0
_cell_length_a       18.9056
_cell_length_b       18.9056
_cell_length_c       18.9056
_cell_angle_alpha    90
_cell_angle_beta     90
_cell_angle_gamma    90

_symmetry_space_group_name_H-M    "P 1"
_symmetry_int_tables_number       1

loop_
  _symmetry_equiv_pos_as_xyz
  'x, y, z'

loop_
  _atom_site_label
  _atom_site_occupancy
  _atom_site_fract_x
  _atom_site_fract_y
  _atom_site_fract_z
  _atom_site_thermal_displace_type
  _atom_site_B_iso_or_equiv
  _atom_site_type_symbol
  P1       1.0000 0.07081  0.55166  0.66723  Biso   1.000  P
  Al1      1.0000 0.95436  0.43172  0.66597  Biso   1.000  Al
  O1       1.0000 0.99970  0.51430  0.66020  Biso   1.000  O
  O2       1.0000 0.06440  0.62110  0.62950  Biso   1.000  O
  O3       1.0000 0.08660  0.56650  0.74450  Biso   1.000  O
  O4       1.0000 0.12940  0.50790  0.63670  Biso   1.000  O
  P2       1.0000 0.42919  0.94834  0.66723  Biso   1.000  P
  Al2      1.0000 0.54564  0.06828  0.66597  Biso   1.000  Al
  O5       1.0000 0.50030  0.98570  0.66020  Biso   1.000  O
  O6       1.0000 0.43560  0.87890  0.62950  Biso   1.000  O
  O7       1.0000 0.41340  0.93350  0.74450  Biso   1.000  O
  O8       1.0000 0.37060  0.99210  0.63670  Biso   1.000  O
  P3       1.0000 0.42919  0.55166  0.83277  Biso   1.000  P
  Al3      1.0000 0.54564  0.43172  0.83403  Biso   1.000  Al
  O9       1.0000 0.50030  0.51430  0.83980  Biso   1.000  O
  O10      1.0000 0.43560  0.62110  0.87050  Biso   1.000  O
  O11      1.0000 0.41340  0.56650  0.75550  Biso   1.000  O
  O12      1.0000 0.37060  0.50790  0.86330  Biso   1.000  O
  P4       1.0000 0.07081  0.94834  0.83277  Biso   1.000  P
  Al4      1.0000 0.95436  0.06828  0.83403  Biso   1.000  Al
  O13      1.0000 0.99970  0.98570  0.83980  Biso   1.000  O
  O14      1.0000 0.06440  0.87890  0.87050  Biso   1.000  O
  O15      1.0000 0.08660  0.93350  0.75550  Biso   1.000  O
  O16      1.0000 0.12940  0.99210  0.86330  Biso   1.000  O
  P5       1.0000 0.66723  0.07081  0.55166  Biso   1.000  P
  Al5      1.0000 0.66597  0.95436  0.43172  Biso   1.000  Al
  O17      1.0000 0.66020  0.99970  0.51430  Biso   1.000  O
  O18      1.0000 0.62950  0.06440  0.62110  Biso   1.000  O
  O19      1.0000 0.74450  0.08660  0.56650  Biso   1.000  O
  O20      1.0000 0.63670  0.12940  0.50790  Biso   1.000  O
  P6       1.0000 0.66723  0.42919  0.94834  Biso   1.000  P
  Al6      1.0000 0.66597  0.54564  0.06828  Biso   1.000  Al
  O21      1.0000 0.66020  0.50030  0.98570  Biso   1.000  O
  O22      1.0000 0.62950  0.43560  0.87890  Biso   1.000  O
  O23      1.0000 0.74450  0.41340  0.93350  Biso   1.000  O
  O24      1.0000 0.63670  0.37060  0.99210  Biso   1.000  O
  P7       1.0000 0.83277  0.42919  0.55166  Biso   1.000  P
  Al7      1.0000 0.83403  0.54564  0.43172  Biso   1.000  Al
  O25      1.0000 0.83980  0.50030  0.51430  Biso   1.000  O
  O26      1.0000 0.87050  0.43560  0.62110  Biso   1.000  O
  O27      1.0000 0.75550  0.41340  0.56650  Biso   1.000  O
  O28      1.0000 0.86330  0.37060  0.50790  Biso   1.000  O
  P8       1.0000 0.83277  0.07081  0.94834  Biso   1.000  P
  Al8      1.0000 0.83403  0.95436  0.06828  Biso   1.000  Al
  O29      1.0000 0.83980  0.99970  0.98570  Biso   1.000  O
  O30      1.0000 0.87050  0.06440  0.87890  Biso   1.000  O
  O31      1.0000 0.75550  0.08660  0.93350  Biso   1.000  O
  O32      1.0000 0.86330  0.12940  0.99210  Biso   1.000  O
  P9       1.0000 0.55166  0.66723  0.07081  Biso   1.000  P
  Al9      1.0000 0.43172  0.66597  0.95436  Biso   1.000  Al
  O33      1.0000 0.51430  0.66020  0.99970  Biso   1.000  O
  O34      1.0000 0.62110  0.62950  0.06440  Biso   1.000  O
  O35      1.0000 0.56650  0.74450  0.08660  Biso   1.000  O
  O36      1.0000 0.50790  0.63670  0.12940  Biso   1.000  O
  P10      1.0000 0.94834  0.66723  0.42919  Biso   1.000  P
  Al10     1.0000 0.06828  0.66597  0.54564  Biso   1.000  Al
  O37      1.0000 0.98570  0.66020  0.50030  Biso   1.000  O
  O38      1.0000 0.87890  0.62950  0.43560  Biso   1.000  O
  O39      1.0000 0.93350  0.74450  0.41340  Biso   1.000  O
  O40      1.0000 0.99210  0.63670  0.37060  Biso   1.000  O
  P11      1.0000 0.55166  0.83277  0.42919  Biso   1.000  P
  Al11     1.0000 0.43172  0.83403  0.54564  Biso   1.000  Al
  O41      1.0000 0.51430  0.83980  0.50030  Biso   1.000  O
  O42      1.0000 0.62110  0.87050  0.43560  Biso   1.000  O
  O43      1.0000 0.56650  0.75550  0.41340  Biso   1.000  O
  O44      1.0000 0.50790  0.86330  0.37060  Biso   1.000  O
  P12      1.0000 0.94834  0.83277  0.07081  Biso   1.000  P
  Al12     1.0000 0.06828  0.83403  0.95436  Biso   1.000  Al
  O45      1.0000 0.98570  0.83980  0.99970  Biso   1.000  O
  O46      1.0000 0.87890  0.87050  0.06440  Biso   1.000  O
  O47      1.0000 0.93350  0.75550  0.08660  Biso   1.000  O
  O48      1.0000 0.99210  0.86330  0.12940  Biso   1.000  O
  P13      1.0000 0.55166  0.07081  0.83277  Biso   1.000  P
  Al13     1.0000 0.43172  0.95436  0.83403  Biso   1.000  Al
  O49      1.0000 0.51430  0.99970  0.83980  Biso   1.000  O
  O50      1.0000 0.62110  0.06440  0.87050  Biso   1.000  O
  O51      1.0000 0.56650  0.08660  0.75550  Biso   1.000  O
  O52      1.0000 0.50790  0.12940  0.86330  Biso   1.000  O
  P14      1.0000 0.94834  0.42919  0.83277  Biso   1.000  P
  Al14     1.0000 0.06828  0.54564  0.83403  Biso   1.000  Al
  O53      1.0000 0.98570  0.50030  0.83980  Biso   1.000  O
  O54      1.0000 0.87890  0.43560  0.87050  Biso   1.000  O
  O55      1.0000 0.93350  0.41340  0.75550  Biso   1.000  O
  O56      1.0000 0.99210  0.37060  0.86330  Biso   1.000  O
  P15      1.0000 0.55166  0.42919  0.66723  Biso   1.000  P
  Al15     1.0000 0.43172  0.54564  0.66597  Biso   1.000  Al
  O57      1.0000 0.51430  0.50030  0.66020  Biso   1.000  O
  O58      1.0000 0.62110  0.43560  0.62950  Biso   1.000  O
  O59      1.0000 0.56650  0.41340  0.74450  Biso   1.000  O
  O60      1.0000 0.50790  0.37060  0.63670  Biso   1.000  O
  P16      1.0000 0.94834  0.07081  0.66723  Biso   1.000  P
  Al16     1.0000 0.06828  0.95436  0.66597  Biso   1.000  Al
  O61      1.0000 0.98570  0.99970  0.66020  Biso   1.000  O
  O62      1.0000 0.87890  0.06440  0.62950  Biso   1.000  O
  O63      1.0000 0.93350  0.08660  0.74450  Biso   1.000  O
  O64      1.0000 0.99210  0.12940  0.63670  Biso   1.000  O
  P17      1.0000 0.07081  0.66723  0.94834  Biso   1.000  P
  Al17     1.0000 0.95436  0.66597  0.06828  Biso   1.000  Al
  O65      1.0000 0.99970  0.66020  0.98570  Biso   1.000  O
  O66      1.0000 0.06440  0.62950  0.87890  Biso   1.000  O
  O67      1.0000 0.08660  0.74450  0.93350  Biso   1.000  O
  O68      1.0000 0.12940  0.63670  0.99210  Biso   1.000  O
  P18      1.0000 0.42919  0.66723  0.55166  Biso   1.000  P
  Al18     1.0000 0.54564  0.66597  0.43172  Biso   1.000  Al
  O69      1.0000 0.50030  0.66020  0.51430  Biso   1.000  O
  O70      1.0000 0.43560  0.62950  0.62110  Biso   1.000  O
  O71      1.0000 0.41340  0.74450  0.56650  Biso   1.000  O
  O72      1.0000 0.37060  0.63670  0.50790  Biso   1.000  O
  P19      1.0000 0.42919  0.83277  0.94834  Biso   1.000  P
  Al19     1.0000 0.54564  0.83403  0.06828  Biso   1.000  Al
  O73      1.0000 0.50030  0.83980  0.98570  Biso   1.000  O
  O74      1.0000 0.43560  0.87050  0.87890  Biso   1.000  O
  O75      1.0000 0.41340  0.75550  0.93350  Biso   1.000  O
  O76      1.0000 0.37060  0.86330  0.99210  Biso   1.000  O
  P20      1.0000 0.07081  0.83277  0.55166  Biso   1.000  P
  Al20     1.0000 0.95436  0.83403  0.43172  Biso   1.000  Al
  O77      1.0000 0.99970  0.83980  0.51430  Biso   1.000  O
  O78      1.0000 0.06440  0.87050  0.62110  Biso   1.000  O
  O79      1.0000 0.08660  0.75550  0.56650  Biso   1.000  O
  O80      1.0000 0.12940  0.86330  0.50790  Biso   1.000  O
  P21      1.0000 0.66723  0.55166  0.42919  Biso   1.000  P
  Al21     1.0000 0.66597  0.43172  0.54564  Biso   1.000  Al
  O81      1.0000 0.66020  0.51430  0.50030  Biso   1.000  O
  O82      1.0000 0.62950  0.62110  0.43560  Biso   1.000  O
  O83      1.0000 0.74450  0.56650  0.41340  Biso   1.000  O
  O84      1.0000 0.63670  0.50790  0.37060  Biso   1.000  O
  P22      1.0000 0.66723  0.94834  0.07081  Biso   1.000  P
  Al22     1.0000 0.66597  0.06828  0.95436  Biso   1.000  Al
  O85      1.0000 0.66020  0.98570  0.99970  Biso   1.000  O
  O86      1.0000 0.62950  0.87890  0.06440  Biso   1.000  O
  O87      1.0000 0.74450  0.93350  0.08660  Biso   1.000  O
  O88      1.0000 0.63670  0.99210  0.12940  Biso   1.000  O
  P23      1.0000 0.83277  0.55166  0.07081  Biso   1.000  P
  Al23     1.0000 0.83403  0.43172  0.95436  Biso   1.000  Al
  O89      1.0000 0.83980  0.51430  0.99970  Biso   1.000  O
  O90      1.0000 0.87050  0.62110  0.06440  Biso   1.000  O
  O91      1.0000 0.75550  0.56650  0.08660  Biso   1.000  O
  O92      1.0000 0.86330  0.50790  0.12940  Biso   1.000  O
  P24      1.0000 0.83277  0.94834  0.42919  Biso   1.000  P
  Al24     1.0000 0.83403  0.06828  0.54564  Biso   1.000  Al
  O93      1.0000 0.83980  0.98570  0.50030  Biso   1.000  O
  O94      1.0000 0.87050  0.87890  0.43560  Biso   1.000  O
  O95      1.0000 0.75550  0.93350  0.41340  Biso   1.000  O
  O96      1.0000 0.86330  0.99210  0.37060  Biso   1.000  O
  P25      1.0000 0.92919  0.44834  0.33277  Biso   1.000  P
  Al25     1.0000 0.04564  0.56828  0.33403  Biso   1.000  Al
  O97      1.0000 0.00030  0.48570  0.33980  Biso   1.000  O
  O98      1.0000 0.93560  0.37890  0.37050  Biso   1.000  O
  O99      1.0000 0.91340  0.43350  0.25550  Biso   1.000  O
  O100     1.0000 0.87060  0.49210  0.36330  Biso   1.000  O
  P26      1.0000 0.57081  0.05166  0.33277  Biso   1.000  P
  Al26     1.0000 0.45436  0.93172  0.33403  Biso   1.000  Al
  O101     1.0000 0.49970  0.01430  0.33980  Biso   1.000  O
  O102     1.0000 0.56440  0.12110  0.37050  Biso   1.000  O
  O103     1.0000 0.58660  0.06650  0.25550  Biso   1.000  O
  O104     1.0000 0.62940  0.00790  0.36330  Biso   1.000  O
  P27      1.0000 0.57081  0.44834  0.16723  Biso   1.000  P
  Al27     1.0000 0.45436  0.56828  0.16597  Biso   1.000  Al
  O105     1.0000 0.49970  0.48570  0.16020  Biso   1.000  O
  O106     1.0000 0.56440  0.37890  0.12950  Biso   1.000  O
  O107     1.0000 0.58660  0.43350  0.24450  Biso   1.000  O
  O108     1.0000 0.62940  0.49210  0.13670  Biso   1.000  O
  P28      1.0000 0.92919  0.05166  0.16723  Biso   1.000  P
  Al28     1.0000 0.04564  0.93172  0.16597  Biso   1.000  Al
  O109     1.0000 0.00030  0.01430  0.16020  Biso   1.000  O
  O110     1.0000 0.93560  0.12110  0.12950  Biso   1.000  O
  O111     1.0000 0.91340  0.06650  0.24450  Biso   1.000  O
  O112     1.0000 0.87060  0.00790  0.13670  Biso   1.000  O
  P29      1.0000 0.33277  0.92919  0.44834  Biso   1.000  P
  Al29     1.0000 0.33403  0.04564  0.56828  Biso   1.000  Al
  O113     1.0000 0.33980  0.00030  0.48570  Biso   1.000  O
  O114     1.0000 0.37050  0.93560  0.37890  Biso   1.000  O
  O115     1.0000 0.25550  0.91340  0.43350  Biso   1.000  O
  O116     1.0000 0.36330  0.87060  0.49210  Biso   1.000  O
  P30      1.0000 0.33277  0.57081  0.05166  Biso   1.000  P
  Al30     1.0000 0.33403  0.45436  0.93172  Biso   1.000  Al
  O117     1.0000 0.33980  0.49970  0.01430  Biso   1.000  O
  O118     1.0000 0.37050  0.56440  0.12110  Biso   1.000  O
  O119     1.0000 0.25550  0.58660  0.06650  Biso   1.000  O
  O120     1.0000 0.36330  0.62940  0.00790  Biso   1.000  O
  P31      1.0000 0.16723  0.57081  0.44834  Biso   1.000  P
  Al31     1.0000 0.16597  0.45436  0.56828  Biso   1.000  Al
  O121     1.0000 0.16020  0.49970  0.48570  Biso   1.000  O
  O122     1.0000 0.12950  0.56440  0.37890  Biso   1.000  O
  O123     1.0000 0.24450  0.58660  0.43350  Biso   1.000  O
  O124     1.0000 0.13670  0.62940  0.49210  Biso   1.000  O
  P32      1.0000 0.16723  0.92919  0.05166  Biso   1.000  P
  Al32     1.0000 0.16597  0.04564  0.93172  Biso   1.000  Al
  O125     1.0000 0.16020  0.00030  0.01430  Biso   1.000  O
  O126     1.0000 0.12950  0.93560  0.12110  Biso   1.000  O
  O127     1.0000 0.24450  0.91340  0.06650  Biso   1.000  O
  O128     1.0000 0.13670  0.87060  0.00790  Biso   1.000  O
  P33      1.0000 0.44834  0.33277  0.92919  Biso   1.000  P
  Al33     1.0000 0.56828  0.33403  0.04564  Biso   1.000  Al
  O129     1.0000 0.48570  0.33980  0.00030  Biso   1.000  O
  O130     1.0000 0.37890  0.37050  0.93560  Biso   1.000  O
  O131     1.0000 0.43350  0.25550  0.91340  Biso   1.000  O
  O132     1.0000 0.49210  0.36330  0.87060  Biso   1.000  O
  P34      1.0000 0.05166  0.33277  0.57081  Biso   1.000  P
  Al34     1.0000 0.93172  0.33403  0.45436  Biso   1.000  Al
  O133     1.0000 0.01430  0.33980  0.49970  Biso   1.000  O
  O134     1.0000 0.12110  0.37050  0.56440  Biso   1.000  O
  O135     1.0000 0.06650  0.25550  0.58660  Biso   1.000  O
  O136     1.0000 0.00790  0.36330  0.62940  Biso   1.000  O
  P35      1.0000 0.44834  0.16723  0.57081  Biso   1.000  P
  Al35     1.0000 0.56828  0.16597  0.45436  Biso   1.000  Al
  O137     1.0000 0.48570  0.16020  0.49970  Biso   1.000  O
  O138     1.0000 0.37890  0.12950  0.56440  Biso   1.000  O
  O139     1.0000 0.43350  0.24450  0.58660  Biso   1.000  O
  O140     1.0000 0.49210  0.13670  0.62940  Biso   1.000  O
  P36      1.0000 0.05166  0.16723  0.92919  Biso   1.000  P
  Al36     1.0000 0.93172  0.16597  0.04564  Biso   1.000  Al
  O141     1.0000 0.01430  0.16020  0.00030  Biso   1.000  O
  O142     1.0000 0.12110  0.12950  0.93560  Biso   1.000  O
  O143     1.0000 0.06650  0.24450  0.91340  Biso   1.000  O
  O144     1.0000 0.00790  0.13670  0.87060  Biso   1.000  O
  P37      1.0000 0.44834  0.92919  0.16723  Biso   1.000  P
  Al37     1.0000 0.56828  0.04564  0.16597  Biso   1.000  Al
  O145     1.0000 0.48570  0.00030  0.16020  Biso   1.000  O
  O146     1.0000 0.37890  0.93560  0.12950  Biso   1.000  O
  O147     1.0000 0.43350  0.91340  0.24450  Biso   1.000  O
  O148     1.0000 0.49210  0.87060  0.13670  Biso   1.000  O
  P38      1.0000 0.05166  0.57081  0.16723  Biso   1.000  P
  Al38     1.0000 0.93172  0.45436  0.16597  Biso   1.000  Al
  O149     1.0000 0.01430  0.49970  0.16020  Biso   1.000  O
  O150     1.0000 0.12110  0.56440  0.12950  Biso   1.000  O
  O151     1.0000 0.06650  0.58660  0.24450  Biso   1.000  O
  O152     1.0000 0.00790  0.62940  0.13670  Biso   1.000  O
  P39      1.0000 0.44834  0.57081  0.33277  Biso   1.000  P
  Al39     1.0000 0.56828  0.45436  0.33403  Biso   1.000  Al
  O153     1.0000 0.48570  0.49970  0.33980  Biso   1.000  O
  O154     1.0000 0.37890  0.56440  0.37050  Biso   1.000  O
  O155     1.0000 0.43350  0.58660  0.25550  Biso   1.000  O
  O156     1.0000 0.49210  0.62940  0.36330  Biso   1.000  O
  P40      1.0000 0.05166  0.92919  0.33277  Biso   1.000  P
  Al40     1.0000 0.93172  0.04564  0.33403  Biso   1.000  Al
  O157     1.0000 0.01430  0.00030  0.33980  Biso   1.000  O
  O158     1.0000 0.12110  0.93560  0.37050  Biso   1.000  O
  O159     1.0000 0.06650  0.91340  0.25550  Biso   1.000  O
  O160     1.0000 0.00790  0.87060  0.36330  Biso   1.000  O
  P41      1.0000 0.92919  0.33277  0.05166  Biso   1.000  P
  Al41     1.0000 0.04564  0.33403  0.93172  Biso   1.000  Al
  O161     1.0000 0.00030  0.33980  0.01430  Biso   1.000  O
  O162     1.0000 0.93560  0.37050  0.12110  Biso   1.000  O
  O163     1.0000 0.91340  0.25550  0.06650  Biso   1.000  O
  O164     1.0000 0.87060  0.36330  0.00790  Biso   1.000  O
  P42      1.0000 0.57081  0.33277  0.44834  Biso   1.000  P
  Al42     1.0000 0.45436  0.33403  0.56828  Biso   1.000  Al
  O165     1.0000 0.49970  0.33980  0.48570  Biso   1.000  O
  O166     1.0000 0.56440  0.37050  0.37890  Biso   1.000  O
  O167     1.0000 0.58660  0.25550  0.43350  Biso   1.000  O
  O168     1.0000 0.62940  0.36330  0.49210  Biso   1.000  O
  P43      1.0000 0.57081  0.16723  0.05166  Biso   1.000  P
  Al43     1.0000 0.45436  0.16597  0.93172  Biso   1.000  Al
  O169     1.0000 0.49970  0.16020  0.01430  Biso   1.000  O
  O170     1.0000 0.56440  0.12950  0.12110  Biso   1.000  O
  O171     1.0000 0.58660  0.24450  0.06650  Biso   1.000  O
  O172     1.0000 0.62940  0.13670  0.00790  Biso   1.000  O
  P44      1.0000 0.92919  0.16723  0.44834  Biso   1.000  P
  Al44     1.0000 0.04564  0.16597  0.56828  Biso   1.000  Al
  O173     1.0000 0.00030  0.16020  0.48570  Biso   1.000  O
  O174     1.0000 0.93560  0.12950  0.37890  Biso   1.000  O
  O175     1.0000 0.91340  0.24450  0.43350  Biso   1.000  O
  O176     1.0000 0.87060  0.13670  0.49210  Biso   1.000  O
  P45      1.0000 0.33277  0.44834  0.57081  Biso   1.000  P
  Al45     1.0000 0.33403  0.56828  0.45436  Biso   1.000  Al
  O177     1.0000 0.33980  0.48570  0.49970  Biso   1.000  O
  O178     1.0000 0.37050  0.37890  0.56440  Biso   1.000  O
  O179     1.0000 0.25550  0.43350  0.58660  Biso   1.000  O
  O180     1.0000 0.36330  0.49210  0.62940  Biso   1.000  O
  P46      1.0000 0.33277  0.05166  0.92919  Biso   1.000  P
  Al46     1.0000 0.33403  0.93172  0.04564  Biso   1.000  Al
  O181     1.0000 0.33980  0.01430  0.00030  Biso   1.000  O
  O182     1.0000 0.37050  0.12110  0.93560  Biso   1.000  O
  O183     1.0000 0.25550  0.06650  0.91340  Biso   1.000  O
  O184     1.0000 0.36330  0.00790  0.87060  Biso   1.000  O
  P47      1.0000 0.16723  0.44834  0.92919  Biso   1.000  P
  Al47     1.0000 0.16597  0.56828  0.04564  Biso   1.000  Al
  O185     1.0000 0.16020  0.48570  0.00030  Biso   1.000  O
  O186     1.0000 0.12950  0.37890  0.93560  Biso   1.000  O
  O187     1.0000 0.24450  0.43350  0.91340  Biso   1.000  O
  O188     1.0000 0.13670  0.49210  0.87060  Biso   1.000  O
  P48      1.0000 0.16723  0.05166  0.57081  Biso   1.000  P
  Al48     1.0000 0.16597  0.93172  0.45436  Biso   1.000  Al
  O189     1.0000 0.16020  0.01430  0.49970  Biso   1.000  O
  O190     1.0000 0.12950  0.12110  0.56440  Biso   1.000  O
  O191     1.0000 0.24450  0.06650  0.58660  Biso   1.000  O
  O192     1.0000 0.13670  0.00790  0.62940  Biso   1.000  O
