data_image0
_cell_length_a       18.656
_cell_length_b       18.656
_cell_length_c       9.378
_cell_angle_alpha    90
_cell_angle_beta     90
_cell_angle_gamma    90

_symmetry_space_group_name_H-M    "P 1"
_symmetry_int_tables_number       1

loop_
  _symmetry_equiv_pos_as_xyz
  'x, y, z'

loop_
  _atom_site_label
  _atom_site_occupancy
  _atom_site_fract_x
  _atom_site_fract_y
  _atom_site_fract_z
  _atom_site_thermal_displace_type
  _atom_site_B_iso_or_equiv
  _atom_site_type_symbol
  P1       1.0000 0.06709  0.83381  0.09038  Biso   1.000  P
  O1       1.0000 0.99760  0.84250  0.00380  Biso   1.000  O
  O2       1.0000 0.05700  0.87060  0.23440  Biso   1.000  O
  O3       1.0000 0.13070  0.86620  0.01000  Biso   1.000  O
  O4       1.0000 0.08280  0.75540  0.11860  Biso   1.000  O
  Al1      1.0000 0.95449  0.83422  0.84140  Biso   1.000  Al
  P2       1.0000 0.83429  0.95085  0.83970  Biso   1.000  P
  O5       1.0000 0.87250  0.87710  0.84380  Biso   1.000  O
  O6       1.0000 0.84220  0.98570  0.98850  Biso   1.000  O
  O7       1.0000 0.75480  0.93850  0.80300  Biso   1.000  O
  O8       1.0000 0.86640  0.99930  0.72090  Biso   1.000  O
  Al2      1.0000 0.16654  0.93612  0.91440  Biso   1.000  Al
  P3       1.0000 0.05613  0.93438  0.66366  Biso   1.000  P
  O9       1.0000 0.12510  0.94000  0.75170  Biso   1.000  O
  O10      1.0000 0.01620  0.00570  0.67690  Biso   1.000  O
  O11      1.0000 0.00980  0.87140  0.71150  Biso   1.000  O
  O12      1.0000 0.07780  0.92180  0.50770  Biso   1.000  O
  Al3      1.0000 0.06386  0.94801  0.33450  Biso   1.000  Al
  P4       1.0000 0.43291  0.66619  0.09038  Biso   1.000  P
  O13      1.0000 0.50240  0.65750  0.00380  Biso   1.000  O
  O14      1.0000 0.44300  0.62940  0.23440  Biso   1.000  O
  O15      1.0000 0.36930  0.63380  0.01000  Biso   1.000  O
  O16      1.0000 0.41720  0.74460  0.11860  Biso   1.000  O
  Al4      1.0000 0.54551  0.66578  0.84140  Biso   1.000  Al
  P5       1.0000 0.66571  0.54915  0.83970  Biso   1.000  P
  O17      1.0000 0.62750  0.62290  0.84380  Biso   1.000  O
  O18      1.0000 0.65780  0.51430  0.98850  Biso   1.000  O
  O19      1.0000 0.74520  0.56150  0.80300  Biso   1.000  O
  O20      1.0000 0.63360  0.50070  0.72090  Biso   1.000  O
  Al5      1.0000 0.33346  0.56388  0.91440  Biso   1.000  Al
  P6       1.0000 0.44387  0.56562  0.66366  Biso   1.000  P
  O21      1.0000 0.37490  0.56000  0.75170  Biso   1.000  O
  O22      1.0000 0.48380  0.49430  0.67690  Biso   1.000  O
  O23      1.0000 0.49020  0.62860  0.71150  Biso   1.000  O
  O24      1.0000 0.42220  0.57820  0.50770  Biso   1.000  O
  Al6      1.0000 0.43614  0.55199  0.33450  Biso   1.000  Al
  P7       1.0000 0.66619  0.06709  0.09038  Biso   1.000  P
  O25      1.0000 0.65750  0.99760  0.00380  Biso   1.000  O
  O26      1.0000 0.62940  0.05700  0.23440  Biso   1.000  O
  O27      1.0000 0.63380  0.13070  0.01000  Biso   1.000  O
  O28      1.0000 0.74460  0.08280  0.11860  Biso   1.000  O
  Al7      1.0000 0.66578  0.95449  0.84140  Biso   1.000  Al
  P8       1.0000 0.54915  0.83429  0.83970  Biso   1.000  P
  O29      1.0000 0.62290  0.87250  0.84380  Biso   1.000  O
  O30      1.0000 0.51430  0.84220  0.98850  Biso   1.000  O
  O31      1.0000 0.56150  0.75480  0.80300  Biso   1.000  O
  O32      1.0000 0.50070  0.86640  0.72090  Biso   1.000  O
  Al8      1.0000 0.56388  0.16654  0.91440  Biso   1.000  Al
  P9       1.0000 0.56562  0.05613  0.66366  Biso   1.000  P
  O33      1.0000 0.56000  0.12510  0.75170  Biso   1.000  O
  O34      1.0000 0.49430  0.01620  0.67690  Biso   1.000  O
  O35      1.0000 0.62860  0.00980  0.71150  Biso   1.000  O
  O36      1.0000 0.57820  0.07780  0.50770  Biso   1.000  O
  Al9      1.0000 0.55199  0.06386  0.33450  Biso   1.000  Al
  P10      1.0000 0.83381  0.43291  0.09038  Biso   1.000  P
  O37      1.0000 0.84250  0.50240  0.00380  Biso   1.000  O
  O38      1.0000 0.87060  0.44300  0.23440  Biso   1.000  O
  O39      1.0000 0.86620  0.36930  0.01000  Biso   1.000  O
  O40      1.0000 0.75540  0.41720  0.11860  Biso   1.000  O
  Al10     1.0000 0.83422  0.54551  0.84140  Biso   1.000  Al
  P11      1.0000 0.95085  0.66571  0.83970  Biso   1.000  P
  O41      1.0000 0.87710  0.62750  0.84380  Biso   1.000  O
  O42      1.0000 0.98570  0.65780  0.98850  Biso   1.000  O
  O43      1.0000 0.93850  0.74520  0.80300  Biso   1.000  O
  O44      1.0000 0.99930  0.63360  0.72090  Biso   1.000  O
  Al11     1.0000 0.93612  0.33346  0.91440  Biso   1.000  Al
  P12      1.0000 0.93438  0.44387  0.66366  Biso   1.000  P
  O45      1.0000 0.94000  0.37490  0.75170  Biso   1.000  O
  O46      1.0000 0.00570  0.48380  0.67690  Biso   1.000  O
  O47      1.0000 0.87140  0.49020  0.71150  Biso   1.000  O
  O48      1.0000 0.92180  0.42220  0.50770  Biso   1.000  O
  Al12     1.0000 0.94801  0.43614  0.33450  Biso   1.000  Al
  P13      1.0000 0.93291  0.16619  0.90962  Biso   1.000  P
  O49      1.0000 0.00240  0.15750  0.99620  Biso   1.000  O
  O50      1.0000 0.94300  0.12940  0.76560  Biso   1.000  O
  O51      1.0000 0.86930  0.13380  0.99000  Biso   1.000  O
  O52      1.0000 0.91720  0.24460  0.88140  Biso   1.000  O
  Al13     1.0000 0.04551  0.16578  0.15860  Biso   1.000  Al
  P14      1.0000 0.16571  0.04915  0.16030  Biso   1.000  P
  O53      1.0000 0.12750  0.12290  0.15620  Biso   1.000  O
  O54      1.0000 0.15780  0.01430  0.01150  Biso   1.000  O
  O55      1.0000 0.24520  0.06150  0.19700  Biso   1.000  O
  O56      1.0000 0.13360  0.00070  0.27910  Biso   1.000  O
  Al14     1.0000 0.83346  0.06388  0.08560  Biso   1.000  Al
  P15      1.0000 0.94387  0.06562  0.33634  Biso   1.000  P
  O57      1.0000 0.87490  0.06000  0.24830  Biso   1.000  O
  O58      1.0000 0.98380  0.99430  0.32310  Biso   1.000  O
  O59      1.0000 0.99020  0.12860  0.28850  Biso   1.000  O
  O60      1.0000 0.92220  0.07820  0.49230  Biso   1.000  O
  Al15     1.0000 0.93614  0.05199  0.66550  Biso   1.000  Al
  P16      1.0000 0.56709  0.33381  0.90962  Biso   1.000  P
  O61      1.0000 0.49760  0.34250  0.99620  Biso   1.000  O
  O62      1.0000 0.55700  0.37060  0.76560  Biso   1.000  O
  O63      1.0000 0.63070  0.36620  0.99000  Biso   1.000  O
  O64      1.0000 0.58280  0.25540  0.88140  Biso   1.000  O
  Al16     1.0000 0.45449  0.33422  0.15860  Biso   1.000  Al
  P17      1.0000 0.33429  0.45085  0.16030  Biso   1.000  P
  O65      1.0000 0.37250  0.37710  0.15620  Biso   1.000  O
  O66      1.0000 0.34220  0.48570  0.01150  Biso   1.000  O
  O67      1.0000 0.25480  0.43850  0.19700  Biso   1.000  O
  O68      1.0000 0.36640  0.49930  0.27910  Biso   1.000  O
  Al17     1.0000 0.66654  0.43612  0.08560  Biso   1.000  Al
  P18      1.0000 0.55613  0.43438  0.33634  Biso   1.000  P
  O69      1.0000 0.62510  0.44000  0.24830  Biso   1.000  O
  O70      1.0000 0.51620  0.50570  0.32310  Biso   1.000  O
  O71      1.0000 0.50980  0.37140  0.28850  Biso   1.000  O
  O72      1.0000 0.57780  0.42180  0.49230  Biso   1.000  O
  Al18     1.0000 0.56386  0.44801  0.66550  Biso   1.000  Al
  P19      1.0000 0.33381  0.93291  0.90962  Biso   1.000  P
  O73      1.0000 0.34250  0.00240  0.99620  Biso   1.000  O
  O74      1.0000 0.37060  0.94300  0.76560  Biso   1.000  O
  O75      1.0000 0.36620  0.86930  0.99000  Biso   1.000  O
  O76      1.0000 0.25540  0.91720  0.88140  Biso   1.000  O
  Al19     1.0000 0.33422  0.04551  0.15860  Biso   1.000  Al
  P20      1.0000 0.45085  0.16571  0.16030  Biso   1.000  P
  O77      1.0000 0.37710  0.12750  0.15620  Biso   1.000  O
  O78      1.0000 0.48570  0.15780  0.01150  Biso   1.000  O
  O79      1.0000 0.43850  0.24520  0.19700  Biso   1.000  O
  O80      1.0000 0.49930  0.13360  0.27910  Biso   1.000  O
  Al20     1.0000 0.43612  0.83346  0.08560  Biso   1.000  Al
  P21      1.0000 0.43438  0.94387  0.33634  Biso   1.000  P
  O81      1.0000 0.44000  0.87490  0.24830  Biso   1.000  O
  O82      1.0000 0.50570  0.98380  0.32310  Biso   1.000  O
  O83      1.0000 0.37140  0.99020  0.28850  Biso   1.000  O
  O84      1.0000 0.42180  0.92220  0.49230  Biso   1.000  O
  Al21     1.0000 0.44801  0.93614  0.66550  Biso   1.000  Al
  P22      1.0000 0.16619  0.56709  0.90962  Biso   1.000  P
  O85      1.0000 0.15750  0.49760  0.99620  Biso   1.000  O
  O86      1.0000 0.12940  0.55700  0.76560  Biso   1.000  O
  O87      1.0000 0.13380  0.63070  0.99000  Biso   1.000  O
  O88      1.0000 0.24460  0.58280  0.88140  Biso   1.000  O
  Al22     1.0000 0.16578  0.45449  0.15860  Biso   1.000  Al
  P23      1.0000 0.04915  0.33429  0.16030  Biso   1.000  P
  O89      1.0000 0.12290  0.37250  0.15620  Biso   1.000  O
  O90      1.0000 0.01430  0.34220  0.01150  Biso   1.000  O
  O91      1.0000 0.06150  0.25480  0.19700  Biso   1.000  O
  O92      1.0000 0.00070  0.36640  0.27910  Biso   1.000  O
  Al23     1.0000 0.06388  0.66654  0.08560  Biso   1.000  Al
  P24      1.0000 0.06562  0.55613  0.33634  Biso   1.000  P
  O93      1.0000 0.06000  0.62510  0.24830  Biso   1.000  O
  O94      1.0000 0.99430  0.51620  0.32310  Biso   1.000  O
  O95      1.0000 0.12860  0.50980  0.28850  Biso   1.000  O
  O96      1.0000 0.07820  0.57780  0.49230  Biso   1.000  O
  Al24     1.0000 0.05199  0.56386  0.66550  Biso   1.000  Al
