data_JIQVAH_clean
_audit_creation_date              2014-07-02
_audit_creation_method            'Materials Studio'
_symmetry_space_group_name_H-M    'P1'
_symmetry_Int_Tables_number       1
_symmetry_cell_setting            triclinic
loop_
_symmetry_equiv_pos_as_xyz
  x,y,z
_cell_length_a                    8.6800
_cell_length_b                    11.0863
_cell_length_c                    25.0903
_cell_angle_alpha                 90.0000
_cell_angle_beta                  90.0000
_cell_angle_gamma                 101.5500
loop_
_atom_site_label
_atom_site_type_symbol
_atom_site_fract_x
_atom_site_fract_y
_atom_site_fract_z
_atom_site_U_iso_or_equiv
_atom_site_adp_type
_atom_site_occupancy
Yb1    Yb    0.80809   0.85878   0.59485   0.01267  Uiso   1.00
Yb2    Yb    0.19191   0.14122   0.09485   0.01267  Uiso   1.00
Yb3    Yb    0.19191   0.14122   0.40515   0.01267  Uiso   1.00
Yb4    Yb    0.80809   0.85878   0.90515   0.01267  Uiso   1.00
H1     H     0.06920   0.51430   0.62390   0.01267  Uiso   1.00
H2     H     0.19420   0.38180   0.57800   0.01267  Uiso   1.00
H3     H     0.53810   0.01910   0.70420   0.01267  Uiso   1.00
H4     H     0.93080   0.48570   0.12390   0.01267  Uiso   1.00
H5     H     0.80580   0.61820   0.07800   0.01267  Uiso   1.00
H6     H     0.46190   0.98090   0.20420   0.01267  Uiso   1.00
H7     H     0.93080   0.48570   0.37610   0.01267  Uiso   1.00
H8     H     0.80580   0.61820   0.42200   0.01267  Uiso   1.00
H9     H     0.46190   0.98090   0.29580   0.01267  Uiso   1.00
H10    H     0.06920   0.51430   0.87610   0.01267  Uiso   1.00
H11    H     0.19420   0.38180   0.92200   0.01267  Uiso   1.00
H12    H     0.53810   0.01910   0.79580   0.01267  Uiso   1.00
Ru1    Ru    0.38786   0.16443   0.61099   0.01267  Uiso   1.00
Ru2    Ru    0.61214   0.83557   0.11099   0.01267  Uiso   1.00
Ru3    Ru    0.61214   0.83557   0.38901   0.01267  Uiso   1.00
Ru4    Ru    0.38786   0.16443   0.88901   0.01267  Uiso   1.00
Ru5    Ru    0.01155   0.57290   0.75000   0.01267  Uiso   1.00
Ru6    Ru    0.98845   0.42710   0.25000   0.01267  Uiso   1.00
C1     C     0.26390   0.30430   0.69390   0.01267  Uiso   1.00
C2     C     0.18950   0.38490   0.72160   0.01267  Uiso   1.00
C3     C     0.11890   0.46140   0.64320   0.01267  Uiso   1.00
C4     C     0.19420   0.37960   0.61500   0.01267  Uiso   1.00
C5     C     0.48630   0.07260   0.72210   0.01267  Uiso   1.00
C6     C     0.34320   0.22240   0.72230   0.01267  Uiso   1.00
C7     C     0.19230   0.03260   0.61320   0.01267  Uiso   1.00
C8     C     0.51330   0.03860   0.59640   0.01267  Uiso   1.00
C9     C     0.65780   0.81390   0.46580   0.01267  Uiso   1.00
C10    C     0.58950   0.29060   0.60020   0.01267  Uiso   1.00
C11    C     0.92620   0.66690   0.69330   0.01267  Uiso   1.00
C12    C     0.73610   0.69570   0.19390   0.01267  Uiso   1.00
C13    C     0.81050   0.61510   0.22160   0.01267  Uiso   1.00
C14    C     0.88110   0.53860   0.14320   0.01267  Uiso   1.00
C15    C     0.80580   0.62040   0.11500   0.01267  Uiso   1.00
C16    C     0.51370   0.92740   0.22210   0.01267  Uiso   1.00
C17    C     0.65680   0.77760   0.22230   0.01267  Uiso   1.00
C18    C     0.80770   0.96740   0.11320   0.01267  Uiso   1.00
C19    C     0.48670   0.96140   0.09640   0.01267  Uiso   1.00
C20    C     0.34220   0.18610   0.96580   0.01267  Uiso   1.00
C21    C     0.41050   0.70940   0.10020   0.01267  Uiso   1.00
C22    C     0.07380   0.33310   0.19330   0.01267  Uiso   1.00
C23    C     0.73610   0.69570   0.30610   0.01267  Uiso   1.00
C24    C     0.81050   0.61510   0.27840   0.01267  Uiso   1.00
C25    C     0.88110   0.53860   0.35680   0.01267  Uiso   1.00
C26    C     0.80580   0.62040   0.38500   0.01267  Uiso   1.00
C27    C     0.51370   0.92740   0.27790   0.01267  Uiso   1.00
C28    C     0.65680   0.77760   0.27770   0.01267  Uiso   1.00
C29    C     0.80770   0.96740   0.38680   0.01267  Uiso   1.00
C30    C     0.48670   0.96140   0.40360   0.01267  Uiso   1.00
C31    C     0.34220   0.18610   0.53420   0.01267  Uiso   1.00
C32    C     0.41050   0.70940   0.39980   0.01267  Uiso   1.00
C33    C     0.07380   0.33310   0.30670   0.01267  Uiso   1.00
C34    C     0.26390   0.30430   0.80610   0.01267  Uiso   1.00
C35    C     0.18950   0.38490   0.77840   0.01267  Uiso   1.00
C36    C     0.11890   0.46140   0.85680   0.01267  Uiso   1.00
C37    C     0.19420   0.37960   0.88500   0.01267  Uiso   1.00
C38    C     0.48630   0.07260   0.77790   0.01267  Uiso   1.00
C39    C     0.34320   0.22240   0.77770   0.01267  Uiso   1.00
C40    C     0.19230   0.03260   0.88680   0.01267  Uiso   1.00
C41    C     0.51330   0.03860   0.90360   0.01267  Uiso   1.00
C42    C     0.65780   0.81390   0.03420   0.01267  Uiso   1.00
C43    C     0.58950   0.29060   0.89980   0.01267  Uiso   1.00
C44    C     0.92620   0.66690   0.80670   0.01267  Uiso   1.00
C45    C     0.82010   0.43810   0.75000   0.01267  Uiso   1.00
C46    C     0.20160   0.70820   0.75000   0.01267  Uiso   1.00
C47    C     0.17990   0.56190   0.25000   0.01267  Uiso   1.00
C48    C     0.79840   0.29180   0.25000   0.01267  Uiso   1.00
N1     N     0.26540   0.29900   0.63960   0.01267  Uiso   1.00
N2     N     0.11580   0.46600   0.69550   0.01267  Uiso   1.00
N3     N     0.41420   0.14720   0.69390   0.01267  Uiso   1.00
N4     N     0.07950   0.95390   0.61200   0.01267  Uiso   1.00
N5     N     0.59240   0.96570   0.59130   0.01267  Uiso   1.00
N6     N     0.68640   0.80380   0.51000   0.01267  Uiso   1.00
N7     N     0.70570   0.35740   0.59010   0.01267  Uiso   1.00
N8     N     0.88180   0.71990   0.65920   0.01267  Uiso   1.00
N9     N     0.73460   0.70100   0.13960   0.01267  Uiso   1.00
N10    N     0.88420   0.53400   0.19550   0.01267  Uiso   1.00
N11    N     0.58580   0.85280   0.19390   0.01267  Uiso   1.00
N12    N     0.92050   0.04610   0.11200   0.01267  Uiso   1.00
N13    N     0.40760   0.03430   0.09130   0.01267  Uiso   1.00
N14    N     0.31360   0.19620   0.01000   0.01267  Uiso   1.00
N15    N     0.29430   0.64260   0.09010   0.01267  Uiso   1.00
N16    N     0.11820   0.28010   0.15920   0.01267  Uiso   1.00
N17    N     0.73460   0.70100   0.36040   0.01267  Uiso   1.00
N18    N     0.88420   0.53400   0.30450   0.01267  Uiso   1.00
N19    N     0.58580   0.85280   0.30610   0.01267  Uiso   1.00
N20    N     0.92050   0.04610   0.38800   0.01267  Uiso   1.00
N21    N     0.40760   0.03430   0.40870   0.01267  Uiso   1.00
N22    N     0.31360   0.19620   0.49000   0.01267  Uiso   1.00
N23    N     0.29430   0.64260   0.40990   0.01267  Uiso   1.00
N24    N     0.11820   0.28010   0.34080   0.01267  Uiso   1.00
N25    N     0.26540   0.29900   0.86040   0.01267  Uiso   1.00
N26    N     0.11580   0.46600   0.80450   0.01267  Uiso   1.00
N27    N     0.41420   0.14720   0.80610   0.01267  Uiso   1.00
N28    N     0.07950   0.95390   0.88800   0.01267  Uiso   1.00
N29    N     0.59240   0.96570   0.90870   0.01267  Uiso   1.00
N30    N     0.68640   0.80380   0.99000   0.01267  Uiso   1.00
N31    N     0.70570   0.35740   0.90990   0.01267  Uiso   1.00
N32    N     0.88180   0.71990   0.84080   0.01267  Uiso   1.00
N33    N     0.71290   0.35790   0.75000   0.01267  Uiso   1.00
N34    N     0.31000   0.79150   0.75000   0.01267  Uiso   1.00
N35    N     0.28710   0.64210   0.25000   0.01267  Uiso   1.00
N36    N     0.69000   0.20850   0.25000   0.01267  Uiso   1.00
