data_image0
_cell_length_a       13.652
_cell_length_b       13.652
_cell_length_c       40.648
_cell_angle_alpha    90
_cell_angle_beta     90
_cell_angle_gamma    120

_symmetry_space_group_name_H-M    "P 1"
_symmetry_int_tables_number       1

loop_
  _symmetry_equiv_pos_as_xyz
  'x, y, z'

loop_
  _atom_site_label
  _atom_site_occupancy
  _atom_site_fract_x
  _atom_site_fract_y
  _atom_site_fract_z
  _atom_site_thermal_displace_type
  _atom_site_B_iso_or_equiv
  _atom_site_type_symbol
  N1       1.0000 0.69910  0.25840  0.42900  Biso   1.000  N
  C1       1.0000 0.78230  0.24860  0.41540  Biso   1.000  C
  H1       1.0000 0.84130  0.31090  0.40500  Biso   1.000  H
  C2       1.0000 0.78260  0.14780  0.41620  Biso   1.000  C
  H2       1.0000 0.84230  0.14390  0.40650  Biso   1.000  H
  C3       1.0000 0.69710  0.05310  0.43100  Biso   1.000  C
  C4       1.0000 0.60910  0.06440  0.44460  Biso   1.000  C
  H3       1.0000 0.54700  0.00370  0.45450  Biso   1.000  H
  C5       1.0000 0.61860  0.16980  0.44250  Biso   1.000  C
  H4       1.0000 0.56050  0.17730  0.45190  Biso   1.000  H
  C6       1.0000 0.69600  0.94610  0.43170  Biso   1.000  C
  N2       1.0000 0.70870  0.55880  0.42910  Biso   1.000  N
  C7       1.0000 0.77170  0.64080  0.45130  Biso   1.000  C
  H5       1.0000 0.81860  0.62880  0.46530  Biso   1.000  H
  C8       1.0000 0.77030  0.73910  0.45430  Biso   1.000  C
  H6       1.0000 0.81410  0.79270  0.47000  Biso   1.000  H
  C9       1.0000 0.70010  0.75680  0.43260  Biso   1.000  C
  C10      1.0000 0.64020  0.67720  0.40890  Biso   1.000  C
  H7       1.0000 0.59860  0.69000  0.39310  Biso   1.000  H
  C11      1.0000 0.64340  0.57790  0.40920  Biso   1.000  C
  H8       1.0000 0.59690  0.52100  0.39460  Biso   1.000  H
  C12      1.0000 0.69570  0.85890  0.43250  Biso   1.000  C
  N3       1.0000 0.58710  0.30560  0.71320  Biso   1.000  N
  C13      1.0000 0.51980  0.33020  0.69700  Biso   1.000  C
  H9       1.0000 0.46520  0.33730  0.70870  Biso   1.000  H
  C14      1.0000 0.52540  0.34670  0.66300  Biso   1.000  C
  H10      1.0000 0.47780  0.36730  0.65250  Biso   1.000  H
  C15      1.0000 0.60090  0.33210  0.64580  Biso   1.000  C
  C16      1.0000 0.67070  0.30630  0.66250  Biso   1.000  C
  H11      1.0000 0.72460  0.29690  0.65120  Biso   1.000  H
  C17      1.0000 0.66280  0.29370  0.69620  Biso   1.000  C
  H12      1.0000 0.71190  0.27630  0.70720  Biso   1.000  H
  C18      1.0000 0.62550  0.36360  0.58140  Biso   1.000  C
  N4       1.0000 0.68030  0.39660  0.47900  Biso   1.000  N
  C19      1.0000 0.59950  0.41180  0.49280  Biso   1.000  C
  H13      1.0000 0.55380  0.42700  0.47920  Biso   1.000  H
  C20      1.0000 0.58150  0.40580  0.52650  Biso   1.000  C
  H14      1.0000 0.52740  0.42060  0.53540  Biso   1.000  H
  C21      1.0000 0.64420  0.37770  0.54670  Biso   1.000  C
  C22      1.0000 0.72680  0.36370  0.53200  Biso   1.000  C
  H15      1.0000 0.77210  0.34590  0.54490  Biso   1.000  H
  C23      1.0000 0.74330  0.37520  0.49930  Biso   1.000  C
  H16      1.0000 0.80200  0.36770  0.49040  Biso   1.000  H
  C24      1.0000 0.61150  0.34840  0.61090  Biso   1.000  C
  Cu1      1.0000 0.70942  0.41237  0.42940  Biso   1.000  Cu
  N5       1.0000 0.74160  0.44070  0.76233  Biso   1.000  N
  C25      1.0000 0.75140  0.53370  0.74873  Biso   1.000  C
  H17      1.0000 0.68910  0.53040  0.73833  Biso   1.000  H
  C26      1.0000 0.85220  0.63480  0.74953  Biso   1.000  C
  H18      1.0000 0.85610  0.69840  0.73983  Biso   1.000  H
  C27      1.0000 0.94690  0.64400  0.76433  Biso   1.000  C
  C28      1.0000 0.93560  0.54470  0.77793  Biso   1.000  C
  H19      1.0000 0.99630  0.54330  0.78783  Biso   1.000  H
  C29      1.0000 0.83020  0.44880  0.77583  Biso   1.000  C
  H20      1.0000 0.82270  0.38320  0.78523  Biso   1.000  H
  C30      1.0000 0.05390  0.74990  0.76503  Biso   1.000  C
  N6       1.0000 0.44120  0.14990  0.76243  Biso   1.000  N
  C31      1.0000 0.35920  0.13090  0.78463  Biso   1.000  C
  H21      1.0000 0.37120  0.18980  0.79863  Biso   1.000  H
  C32      1.0000 0.26090  0.03120  0.78763  Biso   1.000  C
  H22      1.0000 0.20730  0.02140  0.80333  Biso   1.000  H
  C33      1.0000 0.24320  0.94330  0.76593  Biso   1.000  C
  C34      1.0000 0.32280  0.96300  0.74223  Biso   1.000  C
  H23      1.0000 0.31000  0.90860  0.72643  Biso   1.000  H
  C35      1.0000 0.42210  0.06550  0.74253  Biso   1.000  C
  H24      1.0000 0.47900  0.07590  0.72793  Biso   1.000  H
  C36      1.0000 0.14110  0.83680  0.76583  Biso   1.000  C
  N7       1.0000 0.69440  0.28150  0.04653  Biso   1.000  N
  C37      1.0000 0.66980  0.18960  0.03033  Biso   1.000  C
  H25      1.0000 0.66270  0.12790  0.04203  Biso   1.000  H
  C38      1.0000 0.65330  0.17870  0.99633  Biso   1.000  C
  H26      1.0000 0.63270  0.11050  0.98583  Biso   1.000  H
  C39      1.0000 0.66790  0.26880  0.97913  Biso   1.000  C
  C40      1.0000 0.69370  0.36440  0.99583  Biso   1.000  C
  H27      1.0000 0.70310  0.42770  0.98453  Biso   1.000  H
  C41      1.0000 0.70630  0.36910  0.02953  Biso   1.000  C
  H28      1.0000 0.72370  0.43560  0.04053  Biso   1.000  H
  C42      1.0000 0.63640  0.26190  0.91473  Biso   1.000  C
  N8       1.0000 0.60340  0.28370  0.81233  Biso   1.000  N
  C43      1.0000 0.58820  0.18770  0.82613  Biso   1.000  C
  H29      1.0000 0.57300  0.12680  0.81253  Biso   1.000  H
  C44      1.0000 0.59420  0.17570  0.85983  Biso   1.000  C
  H30      1.0000 0.57940  0.10680  0.86873  Biso   1.000  H
  C45      1.0000 0.62230  0.26650  0.88003  Biso   1.000  C
  C46      1.0000 0.63630  0.36310  0.86533  Biso   1.000  C
  H31      1.0000 0.65410  0.42620  0.87823  Biso   1.000  H
  C47      1.0000 0.62480  0.36810  0.83263  Biso   1.000  C
  H32      1.0000 0.63230  0.43430  0.82373  Biso   1.000  H
  C48      1.0000 0.65160  0.26310  0.94423  Biso   1.000  C
  Cu2      1.0000 0.58763  0.29705  0.76273  Biso   1.000  Cu
  N9       1.0000 0.55930  0.30090  0.09567  Biso   1.000  N
  C49      1.0000 0.46630  0.21770  0.08207  Biso   1.000  C
  H33      1.0000 0.46960  0.15870  0.07167  Biso   1.000  H
  C50      1.0000 0.36520  0.21740  0.08287  Biso   1.000  C
  H34      1.0000 0.30160  0.15770  0.07317  Biso   1.000  H
  C51      1.0000 0.35600  0.30290  0.09767  Biso   1.000  C
  C52      1.0000 0.45530  0.39090  0.11127  Biso   1.000  C
  H35      1.0000 0.45670  0.45300  0.12117  Biso   1.000  H
  C53      1.0000 0.55120  0.38140  0.10917  Biso   1.000  C
  H36      1.0000 0.61680  0.43950  0.11857  Biso   1.000  H
  C54      1.0000 0.25010  0.30400  0.09837  Biso   1.000  C
  N10      1.0000 0.85010  0.29130  0.09577  Biso   1.000  N
  C55      1.0000 0.86910  0.22830  0.11797  Biso   1.000  C
  H37      1.0000 0.81020  0.18140  0.13197  Biso   1.000  H
  C56      1.0000 0.96880  0.22970  0.12097  Biso   1.000  C
  H38      1.0000 0.97860  0.18590  0.13667  Biso   1.000  H
  C57      1.0000 0.05670  0.29990  0.09927  Biso   1.000  C
  C58      1.0000 0.03700  0.35980  0.07557  Biso   1.000  C
  H39      1.0000 0.09140  0.40140  0.05977  Biso   1.000  H
  C59      1.0000 0.93450  0.35660  0.07587  Biso   1.000  C
  H40      1.0000 0.92410  0.40310  0.06127  Biso   1.000  H
  C60      1.0000 0.16320  0.30430  0.09917  Biso   1.000  C
  N11      1.0000 0.71850  0.41290  0.37987  Biso   1.000  N
  C61      1.0000 0.81040  0.48020  0.36367  Biso   1.000  C
  H41      1.0000 0.87210  0.53480  0.37537  Biso   1.000  H
  C62      1.0000 0.82130  0.47460  0.32967  Biso   1.000  C
  H42      1.0000 0.88950  0.52220  0.31917  Biso   1.000  H
  C63      1.0000 0.73120  0.39910  0.31247  Biso   1.000  C
  C64      1.0000 0.63560  0.32930  0.32917  Biso   1.000  C
  H43      1.0000 0.57230  0.27540  0.31787  Biso   1.000  H
  C65      1.0000 0.63090  0.33720  0.36287  Biso   1.000  C
  H44      1.0000 0.56440  0.28810  0.37387  Biso   1.000  H
  C66      1.0000 0.73810  0.37450  0.24807  Biso   1.000  C
  N12      1.0000 0.71630  0.31970  0.14567  Biso   1.000  N
  C67      1.0000 0.81230  0.40050  0.15947  Biso   1.000  C
  H45      1.0000 0.87320  0.44620  0.14587  Biso   1.000  H
  C68      1.0000 0.82430  0.41850  0.19317  Biso   1.000  C
  H46      1.0000 0.89320  0.47260  0.20207  Biso   1.000  H
  C69      1.0000 0.73350  0.35580  0.21337  Biso   1.000  C
  C70      1.0000 0.63690  0.27320  0.19867  Biso   1.000  C
  H47      1.0000 0.57380  0.22790  0.21157  Biso   1.000  H
  C71      1.0000 0.63190  0.25670  0.16597  Biso   1.000  C
  H48      1.0000 0.56570  0.19800  0.15707  Biso   1.000  H
  C72      1.0000 0.73690  0.38850  0.27757  Biso   1.000  C
  Cu3      1.0000 0.70295  0.29058  0.09607  Biso   1.000  Cu
  C73      1.0000 0.10720  0.19710  0.01180  Biso   1.000  C
  H49      1.0000 0.04270  0.19300  0.02090  Biso   1.000  H
  C74      1.0000 0.20440  0.29800  0.01060  Biso   1.000  C
  H50      1.0000 0.20420  0.36340  0.01680  Biso   1.000  H
  C75      1.0000 0.62440  0.67870  0.97520  Biso   1.000  C
  H51      1.0000 0.57410  0.66290  0.95790  Biso   1.000  H
  C76      1.0000 0.72680  0.78230  0.97710  Biso   1.000  C
  H52      1.0000 0.74030  0.83760  0.96150  Biso   1.000  H
  N13      1.0000 0.95800  0.95980  0.95100  Biso   1.000  N
  C77      1.0000 0.96700  0.05030  0.93550  Biso   1.000  C
  H53      1.0000 0.96510  0.10620  0.94800  Biso   1.000  H
  C78      1.0000 0.97910  0.06530  0.90200  Biso   1.000  C
  H54      1.0000 0.98940  0.13160  0.89240  Biso   1.000  H
  C79      1.0000 0.97580  0.98020  0.88290  Biso   1.000  C
  C80      1.0000 0.96220  0.88330  0.89820  Biso   1.000  C
  H55      1.0000 0.95810  0.82350  0.88610  Biso   1.000  H
  C81      1.0000 0.95490  0.87900  0.93280  Biso   1.000  C
  H56      1.0000 0.94730  0.81510  0.94330  Biso   1.000  H
  C82      1.0000 0.98540  0.99350  0.84750  Biso   1.000  C
  C83      1.0000 0.80290  0.91010  0.34513  Biso   1.000  C
  H57      1.0000 0.80700  0.84970  0.35423  Biso   1.000  H
  C84      1.0000 0.70200  0.90640  0.34393  Biso   1.000  C
  H58      1.0000 0.63660  0.84080  0.35013  Biso   1.000  H
  C85      1.0000 0.32130  0.94570  0.30853  Biso   1.000  C
  H59      1.0000 0.33710  0.91120  0.29123  Biso   1.000  H
  C86      1.0000 0.21770  0.94450  0.31043  Biso   1.000  C
  H60      1.0000 0.16240  0.90270  0.29483  Biso   1.000  H
  N14      1.0000 0.04020  0.99820  0.28433  Biso   1.000  N
  C87      1.0000 0.94970  0.91670  0.26883  Biso   1.000  C
  H61      1.0000 0.89380  0.85890  0.28133  Biso   1.000  H
  C88      1.0000 0.93470  0.91380  0.23533  Biso   1.000  C
  H62      1.0000 0.86840  0.85780  0.22573  Biso   1.000  H
  C89      1.0000 0.01980  0.99560  0.21623  Biso   1.000  C
  C90      1.0000 0.11670  0.07890  0.23153  Biso   1.000  C
  H63      1.0000 0.17650  0.13460  0.21943  Biso   1.000  H
  C91      1.0000 0.12100  0.07590  0.26613  Biso   1.000  C
  H64      1.0000 0.18490  0.13220  0.27663  Biso   1.000  H
  C92      1.0000 0.00650  0.99190  0.18083  Biso   1.000  C
  C93      1.0000 0.08990  0.89280  0.67847  Biso   1.000  C
  H65      1.0000 0.15030  0.95730  0.68757  Biso   1.000  H
  C94      1.0000 0.09360  0.79560  0.67727  Biso   1.000  C
  H66      1.0000 0.15920  0.79580  0.68347  Biso   1.000  H
  C95      1.0000 0.05430  0.37560  0.64187  Biso   1.000  C
  H67      1.0000 0.08880  0.42590  0.62457  Biso   1.000  H
  C96      1.0000 0.05550  0.27320  0.64377  Biso   1.000  C
  H68      1.0000 0.09730  0.25970  0.62817  Biso   1.000  H
  N15      1.0000 0.00180  0.04200  0.61767  Biso   1.000  N
  C97      1.0000 0.08330  0.03300  0.60217  Biso   1.000  C
  H69      1.0000 0.14110  0.03490  0.61467  Biso   1.000  H
  C98      1.0000 0.08620  0.02090  0.56867  Biso   1.000  C
  H70      1.0000 0.14220  0.01060  0.55907  Biso   1.000  H
  C99      1.0000 0.00440  0.02420  0.54957  Biso   1.000  C
  C100     1.0000 0.92110  0.03780  0.56487  Biso   1.000  C
  H71      1.0000 0.86540  0.04190  0.55277  Biso   1.000  H
  C101     1.0000 0.92410  0.04510  0.59947  Biso   1.000  C
  H72      1.0000 0.86780  0.05270  0.60997  Biso   1.000  H
  C102     1.0000 0.00810  0.01460  0.51417  Biso   1.000  C
  C103     1.0000 0.19710  0.10720  0.98820  Biso   1.000  C
  H73      1.0000 0.19300  0.04270  0.97910  Biso   1.000  H
  C104     1.0000 0.29800  0.20440  0.98940  Biso   1.000  C
  H74      1.0000 0.36340  0.20420  0.98320  Biso   1.000  H
  C105     1.0000 0.67870  0.62440  0.02480  Biso   1.000  C
  H75      1.0000 0.66290  0.57410  0.04210  Biso   1.000  H
  C106     1.0000 0.78230  0.72680  0.02290  Biso   1.000  C
  H76      1.0000 0.83760  0.74030  0.03850  Biso   1.000  H
  N16      1.0000 0.95980  0.95800  0.04900  Biso   1.000  N
  C107     1.0000 0.05030  0.96700  0.06450  Biso   1.000  C
  H77      1.0000 0.10620  0.96510  0.05200  Biso   1.000  H
  C108     1.0000 0.06530  0.97910  0.09800  Biso   1.000  C
  H78      1.0000 0.13160  0.98940  0.10760  Biso   1.000  H
  C109     1.0000 0.98020  0.97580  0.11710  Biso   1.000  C
  C110     1.0000 0.88330  0.96220  0.10180  Biso   1.000  C
  H79      1.0000 0.82350  0.95810  0.11390  Biso   1.000  H
  C111     1.0000 0.87900  0.95490  0.06720  Biso   1.000  C
  H80      1.0000 0.81510  0.94730  0.05670  Biso   1.000  H
  C112     1.0000 0.99350  0.98540  0.15250  Biso   1.000  C
  C113     1.0000 0.91010  0.80290  0.65487  Biso   1.000  C
  H81      1.0000 0.84970  0.80700  0.64577  Biso   1.000  H
  C114     1.0000 0.90640  0.70200  0.65607  Biso   1.000  C
  H82      1.0000 0.84080  0.63660  0.64987  Biso   1.000  H
  C115     1.0000 0.94570  0.32130  0.69147  Biso   1.000  C
  H83      1.0000 0.91120  0.33710  0.70877  Biso   1.000  H
  C116     1.0000 0.94450  0.21770  0.68957  Biso   1.000  C
  H84      1.0000 0.90270  0.16240  0.70517  Biso   1.000  H
  N17      1.0000 0.99820  0.04020  0.71567  Biso   1.000  N
  C117     1.0000 0.91670  0.94970  0.73117  Biso   1.000  C
  H85      1.0000 0.85890  0.89380  0.71867  Biso   1.000  H
  C118     1.0000 0.91380  0.93470  0.76467  Biso   1.000  C
  H86      1.0000 0.85780  0.86840  0.77427  Biso   1.000  H
  C119     1.0000 0.99560  0.01980  0.78377  Biso   1.000  C
  C120     1.0000 0.07890  0.11670  0.76847  Biso   1.000  C
  H87      1.0000 0.13460  0.17650  0.78057  Biso   1.000  H
  C121     1.0000 0.07590  0.12100  0.73387  Biso   1.000  C
  H88      1.0000 0.13220  0.18490  0.72337  Biso   1.000  H
  C122     1.0000 0.99190  0.00650  0.81917  Biso   1.000  C
  C123     1.0000 0.89280  0.08990  0.32153  Biso   1.000  C
  H89      1.0000 0.95730  0.15030  0.31243  Biso   1.000  H
  C124     1.0000 0.79560  0.09360  0.32273  Biso   1.000  C
  H90      1.0000 0.79580  0.15920  0.31653  Biso   1.000  H
  C125     1.0000 0.37560  0.05430  0.35813  Biso   1.000  C
  H91      1.0000 0.42590  0.08880  0.37543  Biso   1.000  H
  C126     1.0000 0.27320  0.05550  0.35623  Biso   1.000  C
  H92      1.0000 0.25970  0.09730  0.37183  Biso   1.000  H
  N18      1.0000 0.04200  0.00180  0.38233  Biso   1.000  N
  C127     1.0000 0.03300  0.08330  0.39783  Biso   1.000  C
  H93      1.0000 0.03490  0.14110  0.38533  Biso   1.000  H
  C128     1.0000 0.02090  0.08620  0.43133  Biso   1.000  C
  H94      1.0000 0.01060  0.14220  0.44093  Biso   1.000  H
  C129     1.0000 0.02420  0.00440  0.45043  Biso   1.000  C
  C130     1.0000 0.03780  0.92110  0.43513  Biso   1.000  C
  H95      1.0000 0.04190  0.86540  0.44723  Biso   1.000  H
  C131     1.0000 0.04510  0.92410  0.40053  Biso   1.000  C
  H96      1.0000 0.05270  0.86780  0.39003  Biso   1.000  H
  C132     1.0000 0.01460  0.00810  0.48583  Biso   1.000  C
  Cu4      1.0000 0.95251  0.95251  0.00000  Biso   1.000  Cu
  N19      1.0000 0.10260  0.10260  0.00000  Biso   1.000  N
  C133     1.0000 0.30460  0.30460  0.00000  Biso   1.000  C
  C134     1.0000 0.41310  0.41310  0.00000  Biso   1.000  C
  C135     1.0000 0.49710  0.49710  0.00000  Biso   1.000  C
  C136     1.0000 0.60160  0.60160  0.00000  Biso   1.000  C
  N20      1.0000 0.80540  0.80540  0.00000  Biso   1.000  N
  Cu5      1.0000 0.04749  0.00000  0.33333  Biso   1.000  Cu
  N21      1.0000 0.89740  0.00000  0.33333  Biso   1.000  N
  C137     1.0000 0.69540  0.00000  0.33333  Biso   1.000  C
  C138     1.0000 0.58690  0.00000  0.33333  Biso   1.000  C
  C139     1.0000 0.50290  0.00000  0.33333  Biso   1.000  C
  C140     1.0000 0.39840  0.00000  0.33333  Biso   1.000  C
  N22      1.0000 0.19460  0.00000  0.33333  Biso   1.000  N
  Cu6      1.0000 0.00000  0.04749  0.66667  Biso   1.000  Cu
  N23      1.0000 0.00000  0.89740  0.66667  Biso   1.000  N
  C141     1.0000 0.00000  0.69540  0.66667  Biso   1.000  C
  C142     1.0000 0.00000  0.58690  0.66667  Biso   1.000  C
  C143     1.0000 0.00000  0.50290  0.66667  Biso   1.000  C
  C144     1.0000 0.00000  0.39840  0.66667  Biso   1.000  C
  N24      1.0000 0.00000  0.19460  0.66667  Biso   1.000  N
  N25      1.0000 0.25840  0.69910  0.57100  Biso   1.000  N
  C145     1.0000 0.24860  0.78230  0.58460  Biso   1.000  C
  H97      1.0000 0.31090  0.84130  0.59500  Biso   1.000  H
  C146     1.0000 0.14780  0.78260  0.58380  Biso   1.000  C
  H98      1.0000 0.14390  0.84230  0.59350  Biso   1.000  H
  C147     1.0000 0.05310  0.69710  0.56900  Biso   1.000  C
  C148     1.0000 0.06440  0.60910  0.55540  Biso   1.000  C
  H99      1.0000 0.00370  0.54700  0.54550  Biso   1.000  H
  C149     1.0000 0.16980  0.61860  0.55750  Biso   1.000  C
  H100     1.0000 0.17730  0.56050  0.54810  Biso   1.000  H
  C150     1.0000 0.94610  0.69600  0.56830  Biso   1.000  C
  N26      1.0000 0.55880  0.70870  0.57090  Biso   1.000  N
  C151     1.0000 0.64080  0.77170  0.54870  Biso   1.000  C
  H101     1.0000 0.62880  0.81860  0.53470  Biso   1.000  H
  C152     1.0000 0.73910  0.77030  0.54570  Biso   1.000  C
  H102     1.0000 0.79270  0.81410  0.53000  Biso   1.000  H
  C153     1.0000 0.75680  0.70010  0.56740  Biso   1.000  C
  C154     1.0000 0.67720  0.64020  0.59110  Biso   1.000  C
  H103     1.0000 0.69000  0.59860  0.60690  Biso   1.000  H
  C155     1.0000 0.57790  0.64340  0.59080  Biso   1.000  C
  H104     1.0000 0.52100  0.59690  0.60540  Biso   1.000  H
  C156     1.0000 0.85890  0.69570  0.56750  Biso   1.000  C
  N27      1.0000 0.30560  0.58710  0.28680  Biso   1.000  N
  C157     1.0000 0.33020  0.51980  0.30300  Biso   1.000  C
  H105     1.0000 0.33730  0.46520  0.29130  Biso   1.000  H
  C158     1.0000 0.34670  0.52540  0.33700  Biso   1.000  C
  H106     1.0000 0.36730  0.47780  0.34750  Biso   1.000  H
  C159     1.0000 0.33210  0.60090  0.35420  Biso   1.000  C
  C160     1.0000 0.30630  0.67070  0.33750  Biso   1.000  C
  H107     1.0000 0.29690  0.72460  0.34880  Biso   1.000  H
  C161     1.0000 0.29370  0.66280  0.30380  Biso   1.000  C
  H108     1.0000 0.27630  0.71190  0.29280  Biso   1.000  H
  C162     1.0000 0.36360  0.62550  0.41860  Biso   1.000  C
  N28      1.0000 0.39660  0.68030  0.52100  Biso   1.000  N
  C163     1.0000 0.41180  0.59950  0.50720  Biso   1.000  C
  H109     1.0000 0.42700  0.55380  0.52080  Biso   1.000  H
  C164     1.0000 0.40580  0.58150  0.47350  Biso   1.000  C
  H110     1.0000 0.42060  0.52740  0.46460  Biso   1.000  H
  C165     1.0000 0.37770  0.64420  0.45330  Biso   1.000  C
  C166     1.0000 0.36370  0.72680  0.46800  Biso   1.000  C
  H111     1.0000 0.34590  0.77210  0.45510  Biso   1.000  H
  C167     1.0000 0.37520  0.74330  0.50070  Biso   1.000  C
  H112     1.0000 0.36770  0.80200  0.50960  Biso   1.000  H
  C168     1.0000 0.34840  0.61150  0.38910  Biso   1.000  C
  Cu7      1.0000 0.41237  0.70942  0.57060  Biso   1.000  Cu
  N29      1.0000 0.44070  0.74160  0.23767  Biso   1.000  N
  C169     1.0000 0.53370  0.75140  0.25127  Biso   1.000  C
  H113     1.0000 0.53040  0.68910  0.26167  Biso   1.000  H
  C170     1.0000 0.63480  0.85220  0.25047  Biso   1.000  C
  H114     1.0000 0.69840  0.85610  0.26017  Biso   1.000  H
  C171     1.0000 0.64400  0.94690  0.23567  Biso   1.000  C
  C172     1.0000 0.54470  0.93560  0.22207  Biso   1.000  C
  H115     1.0000 0.54330  0.99630  0.21217  Biso   1.000  H
  C173     1.0000 0.44880  0.83020  0.22417  Biso   1.000  C
  H116     1.0000 0.38320  0.82270  0.21477  Biso   1.000  H
  C174     1.0000 0.74990  0.05390  0.23497  Biso   1.000  C
  N30      1.0000 0.14990  0.44120  0.23757  Biso   1.000  N
  C175     1.0000 0.13090  0.35920  0.21537  Biso   1.000  C
  H117     1.0000 0.18980  0.37120  0.20137  Biso   1.000  H
  C176     1.0000 0.03120  0.26090  0.21237  Biso   1.000  C
  H118     1.0000 0.02140  0.20730  0.19667  Biso   1.000  H
  C177     1.0000 0.94330  0.24320  0.23407  Biso   1.000  C
  C178     1.0000 0.96300  0.32280  0.25777  Biso   1.000  C
  H119     1.0000 0.90860  0.31000  0.27357  Biso   1.000  H
  C179     1.0000 0.06550  0.42210  0.25747  Biso   1.000  C
  H120     1.0000 0.07590  0.47900  0.27207  Biso   1.000  H
  C180     1.0000 0.83680  0.14110  0.23417  Biso   1.000  C
  N31      1.0000 0.28150  0.69440  0.95347  Biso   1.000  N
  C181     1.0000 0.18960  0.66980  0.96967  Biso   1.000  C
  H121     1.0000 0.12790  0.66270  0.95797  Biso   1.000  H
  C182     1.0000 0.17870  0.65330  0.00367  Biso   1.000  C
  H122     1.0000 0.11050  0.63270  0.01417  Biso   1.000  H
  C183     1.0000 0.26880  0.66790  0.02087  Biso   1.000  C
  C184     1.0000 0.36440  0.69370  0.00417  Biso   1.000  C
  H123     1.0000 0.42770  0.70310  0.01547  Biso   1.000  H
  C185     1.0000 0.36910  0.70630  0.97047  Biso   1.000  C
  H124     1.0000 0.43560  0.72370  0.95947  Biso   1.000  H
  C186     1.0000 0.26190  0.63640  0.08527  Biso   1.000  C
  N32      1.0000 0.28370  0.60340  0.18767  Biso   1.000  N
  C187     1.0000 0.18770  0.58820  0.17387  Biso   1.000  C
  H125     1.0000 0.12680  0.57300  0.18747  Biso   1.000  H
  C188     1.0000 0.17570  0.59420  0.14017  Biso   1.000  C
  H126     1.0000 0.10680  0.57940  0.13127  Biso   1.000  H
  C189     1.0000 0.26650  0.62230  0.11997  Biso   1.000  C
  C190     1.0000 0.36310  0.63630  0.13467  Biso   1.000  C
  H127     1.0000 0.42620  0.65410  0.12177  Biso   1.000  H
  C191     1.0000 0.36810  0.62480  0.16737  Biso   1.000  C
  H128     1.0000 0.43430  0.63230  0.17627  Biso   1.000  H
  C192     1.0000 0.26310  0.65160  0.05577  Biso   1.000  C
  Cu8      1.0000 0.29705  0.58763  0.23727  Biso   1.000  Cu
  N33      1.0000 0.30090  0.55930  0.90433  Biso   1.000  N
  C193     1.0000 0.21770  0.46630  0.91793  Biso   1.000  C
  H129     1.0000 0.15870  0.46960  0.92833  Biso   1.000  H
  C194     1.0000 0.21740  0.36520  0.91713  Biso   1.000  C
  H130     1.0000 0.15770  0.30160  0.92683  Biso   1.000  H
  C195     1.0000 0.30290  0.35600  0.90233  Biso   1.000  C
  C196     1.0000 0.39090  0.45530  0.88873  Biso   1.000  C
  H131     1.0000 0.45300  0.45670  0.87883  Biso   1.000  H
  C197     1.0000 0.38140  0.55120  0.89083  Biso   1.000  C
  H132     1.0000 0.43950  0.61680  0.88143  Biso   1.000  H
  C198     1.0000 0.30400  0.25010  0.90163  Biso   1.000  C
  N34      1.0000 0.29130  0.85010  0.90423  Biso   1.000  N
  C199     1.0000 0.22830  0.86910  0.88203  Biso   1.000  C
  H133     1.0000 0.18140  0.81020  0.86803  Biso   1.000  H
  C200     1.0000 0.22970  0.96880  0.87903  Biso   1.000  C
  H134     1.0000 0.18590  0.97860  0.86333  Biso   1.000  H
  C201     1.0000 0.29990  0.05670  0.90073  Biso   1.000  C
  C202     1.0000 0.35980  0.03700  0.92443  Biso   1.000  C
  H135     1.0000 0.40140  0.09140  0.94023  Biso   1.000  H
  C203     1.0000 0.35660  0.93450  0.92413  Biso   1.000  C
  H136     1.0000 0.40310  0.92410  0.93873  Biso   1.000  H
  C204     1.0000 0.30430  0.16320  0.90083  Biso   1.000  C
  N35      1.0000 0.41290  0.71850  0.62013  Biso   1.000  N
  C205     1.0000 0.48020  0.81040  0.63633  Biso   1.000  C
  H137     1.0000 0.53480  0.87210  0.62463  Biso   1.000  H
  C206     1.0000 0.47460  0.82130  0.67033  Biso   1.000  C
  H138     1.0000 0.52220  0.88950  0.68083  Biso   1.000  H
  C207     1.0000 0.39910  0.73120  0.68753  Biso   1.000  C
  C208     1.0000 0.32930  0.63560  0.67083  Biso   1.000  C
  H139     1.0000 0.27540  0.57230  0.68213  Biso   1.000  H
  C209     1.0000 0.33720  0.63090  0.63713  Biso   1.000  C
  H140     1.0000 0.28810  0.56440  0.62613  Biso   1.000  H
  C210     1.0000 0.37450  0.73810  0.75193  Biso   1.000  C
  N36      1.0000 0.31970  0.71630  0.85433  Biso   1.000  N
  C211     1.0000 0.40050  0.81230  0.84053  Biso   1.000  C
  H141     1.0000 0.44620  0.87320  0.85413  Biso   1.000  H
  C212     1.0000 0.41850  0.82430  0.80683  Biso   1.000  C
  H142     1.0000 0.47260  0.89320  0.79793  Biso   1.000  H
  C213     1.0000 0.35580  0.73350  0.78663  Biso   1.000  C
  C214     1.0000 0.27320  0.63690  0.80133  Biso   1.000  C
  H143     1.0000 0.22790  0.57380  0.78843  Biso   1.000  H
  C215     1.0000 0.25670  0.63190  0.83403  Biso   1.000  C
  H144     1.0000 0.19800  0.56570  0.84293  Biso   1.000  H
  C216     1.0000 0.38850  0.73690  0.72243  Biso   1.000  C
  Cu9      1.0000 0.29058  0.70295  0.90393  Biso   1.000  Cu
