data_JIVFUQ_clean
_audit_creation_date              2014-07-02
_audit_creation_method            'Materials Studio'
_symmetry_space_group_name_H-M    'P1'
_symmetry_Int_Tables_number       1
_symmetry_cell_setting            triclinic
loop_
_symmetry_equiv_pos_as_xyz
  x,y,z
_cell_length_a                    9.1571
_cell_length_b                    10.4571
_cell_length_c                    10.4571
_cell_angle_alpha                 95.8993
_cell_angle_beta                  100.3050
_cell_angle_gamma                 79.6951
loop_
_atom_site_label
_atom_site_type_symbol
_atom_site_fract_x
_atom_site_fract_y
_atom_site_fract_z
_atom_site_U_iso_or_equiv
_atom_site_adp_type
_atom_site_occupancy
Zn1    Zn    0.75000   0.02443   0.02443   0.01267  Uiso   1.00
Zn2    Zn    0.25000   0.97557   0.97557   0.01267  Uiso   1.00
P1     P     0.99153   0.20632   0.05526   0.01267  Uiso   1.00
P2     P     0.50847   0.05526   0.20632   0.01267  Uiso   1.00
P3     P     0.00847   0.79368   0.94474   0.01267  Uiso   1.00
P4     P     0.49153   0.94474   0.79368   0.01267  Uiso   1.00
H1     H     0.01320   0.23490   0.24750   0.01267  Uiso   1.00
H2     H     0.72640   0.34590   0.96250   0.01267  Uiso   1.00
H3     H     0.21440   0.36310   0.08630   0.01267  Uiso   1.00
H4     H     0.48680   0.24750   0.23490   0.01267  Uiso   1.00
H5     H     0.77360   0.96250   0.34590   0.01267  Uiso   1.00
H6     H     0.28560   0.08630   0.36310   0.01267  Uiso   1.00
H7     H     0.98680   0.76510   0.75250   0.01267  Uiso   1.00
H8     H     0.27360   0.65410   0.03750   0.01267  Uiso   1.00
H9     H     0.78560   0.63690   0.91370   0.01267  Uiso   1.00
H10    H     0.51320   0.75250   0.76510   0.01267  Uiso   1.00
H11    H     0.22640   0.03750   0.65410   0.01267  Uiso   1.00
H12    H     0.71440   0.91370   0.63690   0.01267  Uiso   1.00
C1     C     0.86100   0.45668   0.97332   0.01267  Uiso   1.00
C2     C     0.99010   0.37309   0.02575   0.01267  Uiso   1.00
C3     C     0.12820   0.41820   0.05160   0.01267  Uiso   1.00
C4     C     0.63900   0.97332   0.45668   0.01267  Uiso   1.00
C5     C     0.50990   0.02575   0.37309   0.01267  Uiso   1.00
C6     C     0.37180   0.05160   0.41820   0.01267  Uiso   1.00
C7     C     0.13900   0.54332   0.02668   0.01267  Uiso   1.00
C8     C     0.00990   0.62691   0.97425   0.01267  Uiso   1.00
C9     C     0.87180   0.58180   0.94840   0.01267  Uiso   1.00
C10    C     0.36100   0.02668   0.54332   0.01267  Uiso   1.00
C11    C     0.49010   0.97425   0.62691   0.01267  Uiso   1.00
C12    C     0.62820   0.94840   0.58180   0.01267  Uiso   1.00
O1     O     0.06210   0.18481   0.19931   0.01267  Uiso   1.00
O2     O     0.82700   0.18768   0.02698   0.01267  Uiso   1.00
O3     O     0.08930   0.12064   0.96892   0.01267  Uiso   1.00
O4     O     0.72100   0.42088   0.94338   0.01267  Uiso   1.00
O5     O     0.43790   0.19931   0.18481   0.01267  Uiso   1.00
O6     O     0.67300   0.02698   0.18768   0.01267  Uiso   1.00
O7     O     0.41070   0.96892   0.12064   0.01267  Uiso   1.00
O8     O     0.77900   0.94338   0.42088   0.01267  Uiso   1.00
O9     O     0.93790   0.81519   0.80069   0.01267  Uiso   1.00
O10    O     0.17300   0.81232   0.97302   0.01267  Uiso   1.00
O11    O     0.91070   0.87936   0.03108   0.01267  Uiso   1.00
O12    O     0.27900   0.57912   0.05662   0.01267  Uiso   1.00
O13    O     0.56210   0.80069   0.81519   0.01267  Uiso   1.00
O14    O     0.32700   0.97302   0.81232   0.01267  Uiso   1.00
O15    O     0.58930   0.03108   0.87936   0.01267  Uiso   1.00
O16    O     0.22100   0.05662   0.57912   0.01267  Uiso   1.00
