data_JIVHIG_clean
_audit_creation_date              2014-07-02
_audit_creation_method            'Materials Studio'
_symmetry_space_group_name_H-M    'P1'
_symmetry_Int_Tables_number       1
_symmetry_cell_setting            triclinic
loop_
_symmetry_equiv_pos_as_xyz
  x,y,z
_cell_length_a                    13.8683
_cell_length_b                    16.2281
_cell_length_c                    20.4910
_cell_angle_alpha                 90.0000
_cell_angle_beta                  104.7150
_cell_angle_gamma                 90.0000
loop_
_atom_site_label
_atom_site_type_symbol
_atom_site_fract_x
_atom_site_fract_y
_atom_site_fract_z
_atom_site_U_iso_or_equiv
_atom_site_adp_type
_atom_site_occupancy
K1     K     0.01002   0.39783   0.88517   0.01267  Uiso   1.00
K2     K     0.06504   0.37118   0.11015   0.01267  Uiso   1.00
K3     K     0.21901   0.48151   0.02823   0.01267  Uiso   1.00
K4     K     0.98998   0.89783   0.61483   0.01267  Uiso   1.00
K5     K     0.93496   0.87118   0.38985   0.01267  Uiso   1.00
K6     K     0.78099   0.98151   0.47177   0.01267  Uiso   1.00
K7     K     0.98998   0.60217   0.11483   0.01267  Uiso   1.00
K8     K     0.93496   0.62882   0.88985   0.01267  Uiso   1.00
K9     K     0.78099   0.51849   0.97177   0.01267  Uiso   1.00
K10    K     0.01002   0.10217   0.38517   0.01267  Uiso   1.00
K11    K     0.06504   0.12882   0.61015   0.01267  Uiso   1.00
K12    K     0.21901   0.01849   0.52823   0.01267  Uiso   1.00
H1     H     0.20150   0.08160   0.96900   0.01267  Uiso   1.00
H2     H     0.31770   0.12120   0.91060   0.01267  Uiso   1.00
H3     H     0.34130   0.26090   0.89340   0.01267  Uiso   1.00
H4     H     0.25110   0.35900   0.93450   0.01267  Uiso   1.00
H5     H     0.07460   0.21050   0.05730   0.01267  Uiso   1.00
H6     H     0.96910   0.13190   0.93530   0.01267  Uiso   1.00
H7     H     0.92060   0.16100   0.99450   0.01267  Uiso   1.00
H8     H     0.96170   0.22800   0.95090   0.01267  Uiso   1.00
H9     H     0.15500   0.08360   0.08740   0.01267  Uiso   1.00
H10    H     0.03720   0.07520   0.07750   0.01267  Uiso   1.00
H11    H     0.08750   0.04270   0.02020   0.01267  Uiso   1.00
H12    H     0.62780   0.38920   0.68410   0.01267  Uiso   1.00
H13    H     0.71740   0.44320   0.61230   0.01267  Uiso   1.00
H14    H     0.86820   0.51170   0.65850   0.01267  Uiso   1.00
H15    H     0.92600   0.52670   0.77500   0.01267  Uiso   1.00
H16    H     0.66340   0.43030   0.85470   0.01267  Uiso   1.00
H17    H     0.52560   0.34490   0.82190   0.01267  Uiso   1.00
H18    H     0.52010   0.41340   0.76480   0.01267  Uiso   1.00
H19    H     0.55460   0.32150   0.75350   0.01267  Uiso   1.00
H20    H     0.72210   0.27030   0.82080   0.01267  Uiso   1.00
H21    H     0.78980   0.32920   0.87670   0.01267  Uiso   1.00
H22    H     0.68830   0.29210   0.88780   0.01267  Uiso   1.00
H23    H     0.34040   0.64110   0.81750   0.01267  Uiso   1.00
H24    H     0.35830   0.75670   0.88750   0.01267  Uiso   1.00
H25    H     0.26200   0.76940   0.96440   0.01267  Uiso   1.00
H26    H     0.14830   0.66790   0.97110   0.01267  Uiso   1.00
H27    H     0.17660   0.46930   0.82410   0.01267  Uiso   1.00
H28    H     0.29710   0.41420   0.77930   0.01267  Uiso   1.00
H29    H     0.34560   0.44840   0.85360   0.01267  Uiso   1.00
H30    H     0.35670   0.49960   0.78920   0.01267  Uiso   1.00
H31    H     0.09630   0.55110   0.73570   0.01267  Uiso   1.00
H32    H     0.15220   0.47800   0.70780   0.01267  Uiso   1.00
H33    H     0.19850   0.56890   0.71550   0.01267  Uiso   1.00
H34    H     0.88210   0.22500   0.71340   0.01267  Uiso   1.00
H35    H     0.85510   0.31780   0.72900   0.01267  Uiso   1.00
H36    H     0.08780   0.20860   0.85010   0.01267  Uiso   1.00
H37    H     0.02230   0.15980   0.78600   0.01267  Uiso   1.00
H38    H     0.14240   0.30050   0.77870   0.01267  Uiso   1.00
H39    H     0.16970   0.20800   0.76290   0.01267  Uiso   1.00
H40    H     0.93640   0.31550   0.64090   0.01267  Uiso   1.00
H41    H     0.00100   0.36610   0.70420   0.01267  Uiso   1.00
H42    H     0.45640   0.36720   0.01960   0.01267  Uiso   1.00
H43    H     0.52240   0.42910   0.07390   0.01267  Uiso   1.00
H44    H     0.48360   0.57290   0.06610   0.01267  Uiso   1.00
H45    H     0.39200   0.60500   0.00710   0.01267  Uiso   1.00
H46    H     0.79850   0.58160   0.53100   0.01267  Uiso   1.00
H47    H     0.68230   0.62120   0.58940   0.01267  Uiso   1.00
H48    H     0.65870   0.76090   0.60660   0.01267  Uiso   1.00
H49    H     0.74890   0.85900   0.56550   0.01267  Uiso   1.00
H50    H     0.92540   0.71050   0.44270   0.01267  Uiso   1.00
H51    H     0.03090   0.63190   0.56470   0.01267  Uiso   1.00
H52    H     0.07940   0.66100   0.50550   0.01267  Uiso   1.00
H53    H     0.03830   0.72800   0.54910   0.01267  Uiso   1.00
H54    H     0.84500   0.58360   0.41260   0.01267  Uiso   1.00
H55    H     0.96280   0.57520   0.42250   0.01267  Uiso   1.00
H56    H     0.91250   0.54270   0.47980   0.01267  Uiso   1.00
H57    H     0.37220   0.88920   0.81590   0.01267  Uiso   1.00
H58    H     0.28260   0.94320   0.88770   0.01267  Uiso   1.00
H59    H     0.13180   0.01170   0.84150   0.01267  Uiso   1.00
H60    H     0.07400   0.02670   0.72500   0.01267  Uiso   1.00
H61    H     0.33660   0.93030   0.64530   0.01267  Uiso   1.00
H62    H     0.47440   0.84490   0.67810   0.01267  Uiso   1.00
H63    H     0.47990   0.91340   0.73520   0.01267  Uiso   1.00
H64    H     0.44540   0.82150   0.74650   0.01267  Uiso   1.00
H65    H     0.27790   0.77030   0.67920   0.01267  Uiso   1.00
H66    H     0.21020   0.82920   0.62330   0.01267  Uiso   1.00
H67    H     0.31170   0.79210   0.61220   0.01267  Uiso   1.00
H68    H     0.65960   0.14110   0.68250   0.01267  Uiso   1.00
H69    H     0.64170   0.25670   0.61250   0.01267  Uiso   1.00
H70    H     0.73800   0.26940   0.53560   0.01267  Uiso   1.00
H71    H     0.85170   0.16790   0.52890   0.01267  Uiso   1.00
H72    H     0.82340   0.96930   0.67590   0.01267  Uiso   1.00
H73    H     0.70290   0.91420   0.72070   0.01267  Uiso   1.00
H74    H     0.65440   0.94840   0.64640   0.01267  Uiso   1.00
H75    H     0.64330   0.99960   0.71080   0.01267  Uiso   1.00
H76    H     0.90370   0.05110   0.76430   0.01267  Uiso   1.00
H77    H     0.84780   0.97800   0.79220   0.01267  Uiso   1.00
H78    H     0.80150   0.06890   0.78450   0.01267  Uiso   1.00
H79    H     0.11790   0.72500   0.78660   0.01267  Uiso   1.00
H80    H     0.14490   0.81780   0.77100   0.01267  Uiso   1.00
H81    H     0.91220   0.70860   0.64990   0.01267  Uiso   1.00
H82    H     0.97770   0.65980   0.71400   0.01267  Uiso   1.00
H83    H     0.85760   0.80050   0.72130   0.01267  Uiso   1.00
H84    H     0.83030   0.70800   0.73710   0.01267  Uiso   1.00
H85    H     0.06360   0.81550   0.85910   0.01267  Uiso   1.00
H86    H     0.99900   0.86610   0.79580   0.01267  Uiso   1.00
H87    H     0.54360   0.86720   0.48040   0.01267  Uiso   1.00
H88    H     0.47760   0.92910   0.42610   0.01267  Uiso   1.00
H89    H     0.51640   0.07290   0.43390   0.01267  Uiso   1.00
H90    H     0.60800   0.10500   0.49290   0.01267  Uiso   1.00
H91    H     0.79850   0.91840   0.03100   0.01267  Uiso   1.00
H92    H     0.68230   0.87880   0.08940   0.01267  Uiso   1.00
H93    H     0.65870   0.73910   0.10660   0.01267  Uiso   1.00
H94    H     0.74890   0.64100   0.06550   0.01267  Uiso   1.00
H95    H     0.92540   0.78950   0.94270   0.01267  Uiso   1.00
H96    H     0.03090   0.86810   0.06470   0.01267  Uiso   1.00
H97    H     0.07940   0.83900   0.00550   0.01267  Uiso   1.00
H98    H     0.03830   0.77200   0.04910   0.01267  Uiso   1.00
H99    H     0.84500   0.91640   0.91260   0.01267  Uiso   1.00
H100   H     0.96280   0.92480   0.92250   0.01267  Uiso   1.00
H101   H     0.91250   0.95730   0.97980   0.01267  Uiso   1.00
H102   H     0.37220   0.61080   0.31590   0.01267  Uiso   1.00
H103   H     0.28260   0.55680   0.38770   0.01267  Uiso   1.00
H104   H     0.13180   0.48830   0.34150   0.01267  Uiso   1.00
H105   H     0.07400   0.47330   0.22500   0.01267  Uiso   1.00
H106   H     0.33660   0.56970   0.14530   0.01267  Uiso   1.00
H107   H     0.47440   0.65510   0.17810   0.01267  Uiso   1.00
H108   H     0.47990   0.58660   0.23520   0.01267  Uiso   1.00
H109   H     0.44540   0.67850   0.24650   0.01267  Uiso   1.00
H110   H     0.27790   0.72970   0.17920   0.01267  Uiso   1.00
H111   H     0.21020   0.67080   0.12330   0.01267  Uiso   1.00
H112   H     0.31170   0.70790   0.11220   0.01267  Uiso   1.00
H113   H     0.65960   0.35890   0.18250   0.01267  Uiso   1.00
H114   H     0.64170   0.24330   0.11250   0.01267  Uiso   1.00
H115   H     0.73800   0.23060   0.03560   0.01267  Uiso   1.00
H116   H     0.85170   0.33210   0.02890   0.01267  Uiso   1.00
H117   H     0.82340   0.53070   0.17590   0.01267  Uiso   1.00
H118   H     0.70290   0.58580   0.22070   0.01267  Uiso   1.00
H119   H     0.65440   0.55160   0.14640   0.01267  Uiso   1.00
H120   H     0.64330   0.50040   0.21080   0.01267  Uiso   1.00
H121   H     0.90370   0.44890   0.26430   0.01267  Uiso   1.00
H122   H     0.84780   0.52200   0.29220   0.01267  Uiso   1.00
H123   H     0.80150   0.43110   0.28450   0.01267  Uiso   1.00
H124   H     0.11790   0.77500   0.28660   0.01267  Uiso   1.00
H125   H     0.14490   0.68220   0.27100   0.01267  Uiso   1.00
H126   H     0.91220   0.79140   0.14990   0.01267  Uiso   1.00
H127   H     0.97770   0.84020   0.21400   0.01267  Uiso   1.00
H128   H     0.85760   0.69950   0.22130   0.01267  Uiso   1.00
H129   H     0.83030   0.79200   0.23710   0.01267  Uiso   1.00
H130   H     0.06360   0.68450   0.35910   0.01267  Uiso   1.00
H131   H     0.99900   0.63390   0.29580   0.01267  Uiso   1.00
H132   H     0.54360   0.63280   0.98040   0.01267  Uiso   1.00
H133   H     0.47760   0.57090   0.92610   0.01267  Uiso   1.00
H134   H     0.51640   0.42710   0.93390   0.01267  Uiso   1.00
H135   H     0.60800   0.39500   0.99290   0.01267  Uiso   1.00
H136   H     0.20150   0.41840   0.46900   0.01267  Uiso   1.00
H137   H     0.31770   0.37880   0.41060   0.01267  Uiso   1.00
H138   H     0.34130   0.23910   0.39340   0.01267  Uiso   1.00
H139   H     0.25110   0.14100   0.43450   0.01267  Uiso   1.00
H140   H     0.07460   0.28950   0.55730   0.01267  Uiso   1.00
H141   H     0.96910   0.36810   0.43530   0.01267  Uiso   1.00
H142   H     0.92060   0.33900   0.49450   0.01267  Uiso   1.00
H143   H     0.96170   0.27200   0.45090   0.01267  Uiso   1.00
H144   H     0.15500   0.41640   0.58740   0.01267  Uiso   1.00
H145   H     0.03720   0.42480   0.57750   0.01267  Uiso   1.00
H146   H     0.08750   0.45730   0.52020   0.01267  Uiso   1.00
H147   H     0.62780   0.11080   0.18410   0.01267  Uiso   1.00
H148   H     0.71740   0.05680   0.11230   0.01267  Uiso   1.00
H149   H     0.86820   0.98830   0.15850   0.01267  Uiso   1.00
H150   H     0.92600   0.97330   0.27500   0.01267  Uiso   1.00
H151   H     0.66340   0.06970   0.35470   0.01267  Uiso   1.00
H152   H     0.52560   0.15510   0.32190   0.01267  Uiso   1.00
H153   H     0.52010   0.08660   0.26480   0.01267  Uiso   1.00
H154   H     0.55460   0.17850   0.25350   0.01267  Uiso   1.00
H155   H     0.72210   0.22970   0.32080   0.01267  Uiso   1.00
H156   H     0.78980   0.17080   0.37670   0.01267  Uiso   1.00
H157   H     0.68830   0.20790   0.38780   0.01267  Uiso   1.00
H158   H     0.34040   0.85890   0.31750   0.01267  Uiso   1.00
H159   H     0.35830   0.74330   0.38750   0.01267  Uiso   1.00
H160   H     0.26200   0.73060   0.46440   0.01267  Uiso   1.00
H161   H     0.14830   0.83210   0.47110   0.01267  Uiso   1.00
H162   H     0.17660   0.03070   0.32410   0.01267  Uiso   1.00
H163   H     0.29710   0.08580   0.27930   0.01267  Uiso   1.00
H164   H     0.34560   0.05160   0.35360   0.01267  Uiso   1.00
H165   H     0.35670   0.00040   0.28920   0.01267  Uiso   1.00
H166   H     0.09630   0.94890   0.23570   0.01267  Uiso   1.00
H167   H     0.15220   0.02200   0.20780   0.01267  Uiso   1.00
H168   H     0.19850   0.93110   0.21550   0.01267  Uiso   1.00
H169   H     0.88210   0.27500   0.21340   0.01267  Uiso   1.00
H170   H     0.85510   0.18220   0.22900   0.01267  Uiso   1.00
H171   H     0.08780   0.29140   0.35010   0.01267  Uiso   1.00
H172   H     0.02230   0.34020   0.28600   0.01267  Uiso   1.00
H173   H     0.14240   0.19950   0.27870   0.01267  Uiso   1.00
H174   H     0.16970   0.29200   0.26290   0.01267  Uiso   1.00
H175   H     0.93640   0.18450   0.14090   0.01267  Uiso   1.00
H176   H     0.00100   0.13390   0.20420   0.01267  Uiso   1.00
H177   H     0.45640   0.13280   0.51960   0.01267  Uiso   1.00
H178   H     0.52240   0.07090   0.57390   0.01267  Uiso   1.00
H179   H     0.48360   0.92710   0.56610   0.01267  Uiso   1.00
H180   H     0.39200   0.89500   0.50710   0.01267  Uiso   1.00
C1     C     0.17060   0.28090   0.97841   0.01267  Uiso   1.00
C2     C     0.15520   0.19510   0.98745   0.01267  Uiso   1.00
C3     C     0.21110   0.13860   0.96220   0.01267  Uiso   1.00
C4     C     0.28050   0.16160   0.92730   0.01267  Uiso   1.00
C5     C     0.29440   0.24400   0.91740   0.01267  Uiso   1.00
C6     C     0.24060   0.30240   0.94219   0.01267  Uiso   1.00
C7     C     0.07490   0.16920   0.02110   0.01267  Uiso   1.00
C8     C     0.97240   0.17290   0.97090   0.01267  Uiso   1.00
C9     C     0.09000   0.08530   0.05450   0.01267  Uiso   1.00
C10    C     0.80890   0.47050   0.80040   0.01267  Uiso   1.00
C11    C     0.71980   0.42620   0.77220   0.01267  Uiso   1.00
C12    C     0.68820   0.41770   0.70290   0.01267  Uiso   1.00
C13    C     0.74140   0.44940   0.65980   0.01267  Uiso   1.00
C14    C     0.83030   0.49020   0.68730   0.01267  Uiso   1.00
C15    C     0.86420   0.49980   0.75680   0.01267  Uiso   1.00
C16    C     0.66420   0.38850   0.81900   0.01267  Uiso   1.00
C17    C     0.55660   0.36500   0.78700   0.01267  Uiso   1.00
C18    C     0.72120   0.31320   0.85430   0.01267  Uiso   1.00
C19    C     0.17270   0.59150   0.89764   0.01267  Uiso   1.00
C20    C     0.23210   0.58420   0.85120   0.01267  Uiso   1.00
C21    C     0.30030   0.64600   0.84860   0.01267  Uiso   1.00
C22    C     0.31140   0.71510   0.89050   0.01267  Uiso   1.00
C23    C     0.25480   0.72270   0.93570   0.01267  Uiso   1.00
C24    C     0.18710   0.66210   0.93920   0.01267  Uiso   1.00
C25    C     0.21900   0.50860   0.80590   0.01267  Uiso   1.00
C26    C     0.31250   0.46390   0.80710   0.01267  Uiso   1.00
C27    C     0.16150   0.52840   0.73510   0.01267  Uiso   1.00
C28    C     0.91070   0.27890   0.73104   0.01267  Uiso   1.00
C29    C     0.04850   0.21480   0.80276   0.01267  Uiso   1.00
C30    C     0.11390   0.24680   0.76065   0.01267  Uiso   1.00
C31    C     0.97590   0.31060   0.68831   0.01267  Uiso   1.00
C32    C     0.48470   0.42350   0.02610   0.01267  Uiso   1.00
C33    C     0.44660   0.56400   0.01850   0.01267  Uiso   1.00
C34    C     0.82940   0.78090   0.52159   0.01267  Uiso   1.00
C35    C     0.84480   0.69510   0.51255   0.01267  Uiso   1.00
C36    C     0.78890   0.63860   0.53780   0.01267  Uiso   1.00
C37    C     0.71950   0.66160   0.57270   0.01267  Uiso   1.00
C38    C     0.70560   0.74400   0.58260   0.01267  Uiso   1.00
C39    C     0.75940   0.80240   0.55781   0.01267  Uiso   1.00
C40    C     0.92510   0.66920   0.47890   0.01267  Uiso   1.00
C41    C     0.02760   0.67290   0.52910   0.01267  Uiso   1.00
C42    C     0.91000   0.58530   0.44550   0.01267  Uiso   1.00
C43    C     0.19110   0.97050   0.69960   0.01267  Uiso   1.00
C44    C     0.28020   0.92620   0.72780   0.01267  Uiso   1.00
C45    C     0.31180   0.91770   0.79710   0.01267  Uiso   1.00
C46    C     0.25860   0.94940   0.84020   0.01267  Uiso   1.00
C47    C     0.16970   0.99020   0.81270   0.01267  Uiso   1.00
C48    C     0.13580   0.99980   0.74320   0.01267  Uiso   1.00
C49    C     0.33580   0.88850   0.68100   0.01267  Uiso   1.00
C50    C     0.44340   0.86500   0.71300   0.01267  Uiso   1.00
C51    C     0.27880   0.81320   0.64570   0.01267  Uiso   1.00
C52    C     0.82730   0.09150   0.60236   0.01267  Uiso   1.00
C53    C     0.76790   0.08420   0.64880   0.01267  Uiso   1.00
C54    C     0.69970   0.14600   0.65140   0.01267  Uiso   1.00
C55    C     0.68860   0.21510   0.60950   0.01267  Uiso   1.00
C56    C     0.74520   0.22270   0.56430   0.01267  Uiso   1.00
C57    C     0.81290   0.16210   0.56080   0.01267  Uiso   1.00
C58    C     0.78100   0.00860   0.69410   0.01267  Uiso   1.00
C59    C     0.68750   0.96390   0.69290   0.01267  Uiso   1.00
C60    C     0.83850   0.02840   0.76490   0.01267  Uiso   1.00
C61    C     0.08930   0.77890   0.76896   0.01267  Uiso   1.00
C62    C     0.95150   0.71480   0.69724   0.01267  Uiso   1.00
C63    C     0.88610   0.74680   0.73935   0.01267  Uiso   1.00
C64    C     0.02410   0.81060   0.81169   0.01267  Uiso   1.00
C65    C     0.51530   0.92350   0.47390   0.01267  Uiso   1.00
C66    C     0.55340   0.06400   0.48150   0.01267  Uiso   1.00
C67    C     0.82940   0.71910   0.02159   0.01267  Uiso   1.00
C68    C     0.84480   0.80490   0.01255   0.01267  Uiso   1.00
C69    C     0.78890   0.86140   0.03780   0.01267  Uiso   1.00
C70    C     0.71950   0.83840   0.07270   0.01267  Uiso   1.00
C71    C     0.70560   0.75600   0.08260   0.01267  Uiso   1.00
C72    C     0.75940   0.69760   0.05781   0.01267  Uiso   1.00
C73    C     0.92510   0.83080   0.97890   0.01267  Uiso   1.00
C74    C     0.02760   0.82710   0.02910   0.01267  Uiso   1.00
C75    C     0.91000   0.91470   0.94550   0.01267  Uiso   1.00
C76    C     0.19110   0.52950   0.19960   0.01267  Uiso   1.00
C77    C     0.28020   0.57380   0.22780   0.01267  Uiso   1.00
C78    C     0.31180   0.58230   0.29710   0.01267  Uiso   1.00
C79    C     0.25860   0.55060   0.34020   0.01267  Uiso   1.00
C80    C     0.16970   0.50980   0.31270   0.01267  Uiso   1.00
C81    C     0.13580   0.50020   0.24320   0.01267  Uiso   1.00
C82    C     0.33580   0.61150   0.18100   0.01267  Uiso   1.00
C83    C     0.44340   0.63500   0.21300   0.01267  Uiso   1.00
C84    C     0.27880   0.68680   0.14570   0.01267  Uiso   1.00
C85    C     0.82730   0.40850   0.10236   0.01267  Uiso   1.00
C86    C     0.76790   0.41580   0.14880   0.01267  Uiso   1.00
C87    C     0.69970   0.35400   0.15140   0.01267  Uiso   1.00
C88    C     0.68860   0.28490   0.10950   0.01267  Uiso   1.00
C89    C     0.74520   0.27730   0.06430   0.01267  Uiso   1.00
C90    C     0.81290   0.33790   0.06080   0.01267  Uiso   1.00
C91    C     0.78100   0.49140   0.19410   0.01267  Uiso   1.00
C92    C     0.68750   0.53610   0.19290   0.01267  Uiso   1.00
C93    C     0.83850   0.47160   0.26490   0.01267  Uiso   1.00
C94    C     0.08930   0.72110   0.26896   0.01267  Uiso   1.00
C95    C     0.95150   0.78520   0.19724   0.01267  Uiso   1.00
C96    C     0.88610   0.75320   0.23935   0.01267  Uiso   1.00
C97    C     0.02410   0.68940   0.31169   0.01267  Uiso   1.00
C98    C     0.51530   0.57650   0.97390   0.01267  Uiso   1.00
C99    C     0.55340   0.43600   0.98150   0.01267  Uiso   1.00
C100   C     0.17060   0.21910   0.47841   0.01267  Uiso   1.00
C101   C     0.15520   0.30490   0.48745   0.01267  Uiso   1.00
C102   C     0.21110   0.36140   0.46220   0.01267  Uiso   1.00
C103   C     0.28050   0.33840   0.42730   0.01267  Uiso   1.00
C104   C     0.29440   0.25600   0.41740   0.01267  Uiso   1.00
C105   C     0.24060   0.19760   0.44219   0.01267  Uiso   1.00
C106   C     0.07490   0.33080   0.52110   0.01267  Uiso   1.00
C107   C     0.97240   0.32710   0.47090   0.01267  Uiso   1.00
C108   C     0.09000   0.41470   0.55450   0.01267  Uiso   1.00
C109   C     0.80890   0.02950   0.30040   0.01267  Uiso   1.00
C110   C     0.71980   0.07380   0.27220   0.01267  Uiso   1.00
C111   C     0.68820   0.08230   0.20290   0.01267  Uiso   1.00
C112   C     0.74140   0.05060   0.15980   0.01267  Uiso   1.00
C113   C     0.83030   0.00980   0.18730   0.01267  Uiso   1.00
C114   C     0.86420   0.00020   0.25680   0.01267  Uiso   1.00
C115   C     0.66420   0.11150   0.31900   0.01267  Uiso   1.00
C116   C     0.55660   0.13500   0.28700   0.01267  Uiso   1.00
C117   C     0.72120   0.18680   0.35430   0.01267  Uiso   1.00
C118   C     0.17270   0.90850   0.39764   0.01267  Uiso   1.00
C119   C     0.23210   0.91580   0.35120   0.01267  Uiso   1.00
C120   C     0.30030   0.85400   0.34860   0.01267  Uiso   1.00
C121   C     0.31140   0.78490   0.39050   0.01267  Uiso   1.00
C122   C     0.25480   0.77730   0.43570   0.01267  Uiso   1.00
C123   C     0.18710   0.83790   0.43920   0.01267  Uiso   1.00
C124   C     0.21900   0.99140   0.30590   0.01267  Uiso   1.00
C125   C     0.31250   0.03610   0.30710   0.01267  Uiso   1.00
C126   C     0.16150   0.97160   0.23510   0.01267  Uiso   1.00
C127   C     0.91070   0.22110   0.23104   0.01267  Uiso   1.00
C128   C     0.04850   0.28520   0.30276   0.01267  Uiso   1.00
C129   C     0.11390   0.25320   0.26065   0.01267  Uiso   1.00
C130   C     0.97590   0.18940   0.18831   0.01267  Uiso   1.00
C131   C     0.48470   0.07650   0.52610   0.01267  Uiso   1.00
C132   C     0.44660   0.93600   0.51850   0.01267  Uiso   1.00
O1     O     0.12030   0.33781   0.00187   0.01267  Uiso   1.00
O2     O     0.84043   0.48307   0.86622   0.01267  Uiso   1.00
O3     O     0.10750   0.53499   0.90228   0.01267  Uiso   1.00
O4     O     0.96779   0.26977   0.79990   0.01267  Uiso   1.00
O5     O     0.05819   0.25656   0.69170   0.01267  Uiso   1.00
O6     O     0.40540   0.48283   0.01107   0.01267  Uiso   1.00
O7     O     0.98650   0.48050   0.99890   0.01267  Uiso   1.00
O8     O     0.87970   0.83781   0.49813   0.01267  Uiso   1.00
O9     O     0.15957   0.98307   0.63378   0.01267  Uiso   1.00
O10    O     0.89250   0.03499   0.59772   0.01267  Uiso   1.00
O11    O     0.03221   0.76977   0.70010   0.01267  Uiso   1.00
O12    O     0.94181   0.75656   0.80830   0.01267  Uiso   1.00
O13    O     0.59460   0.98283   0.48893   0.01267  Uiso   1.00
O14    O     0.01350   0.98050   0.50110   0.01267  Uiso   1.00
O15    O     0.87970   0.66219   0.99813   0.01267  Uiso   1.00
O16    O     0.15957   0.51693   0.13378   0.01267  Uiso   1.00
O17    O     0.89250   0.46501   0.09772   0.01267  Uiso   1.00
O18    O     0.03221   0.73023   0.20010   0.01267  Uiso   1.00
O19    O     0.94181   0.74344   0.30830   0.01267  Uiso   1.00
O20    O     0.59460   0.51717   0.98893   0.01267  Uiso   1.00
O21    O     0.01350   0.51950   0.00110   0.01267  Uiso   1.00
O22    O     0.12030   0.16219   0.50187   0.01267  Uiso   1.00
O23    O     0.84043   0.01693   0.36622   0.01267  Uiso   1.00
O24    O     0.10750   0.96501   0.40228   0.01267  Uiso   1.00
O25    O     0.96779   0.23023   0.29990   0.01267  Uiso   1.00
O26    O     0.05819   0.24344   0.19170   0.01267  Uiso   1.00
O27    O     0.40540   0.01717   0.51107   0.01267  Uiso   1.00
O28    O     0.98650   0.01950   0.49890   0.01267  Uiso   1.00
