data_image0
_cell_length_a       24.087
_cell_length_b       5.3812
_cell_length_c       6.66
_cell_angle_alpha    90
_cell_angle_beta     90
_cell_angle_gamma    90

_symmetry_space_group_name_H-M    "P 1"
_symmetry_int_tables_number       1

loop_
  _symmetry_equiv_pos_as_xyz
  'x, y, z'

loop_
  _atom_site_label
  _atom_site_occupancy
  _atom_site_fract_x
  _atom_site_fract_y
  _atom_site_fract_z
  _atom_site_thermal_displace_type
  _atom_site_B_iso_or_equiv
  _atom_site_type_symbol
  O1       1.0000 0.68270  0.45760  0.18550  Biso   1.000  O
  O2       1.0000 0.55030  0.93760  0.68860  Biso   1.000  O
  O3       1.0000 0.31730  0.54240  0.18550  Biso   1.000  O
  O4       1.0000 0.44970  0.06240  0.68860  Biso   1.000  O
  O5       1.0000 0.81730  0.95760  0.31450  Biso   1.000  O
  O6       1.0000 0.94970  0.43760  0.81140  Biso   1.000  O
  O7       1.0000 0.18270  0.04240  0.31450  Biso   1.000  O
  O8       1.0000 0.05030  0.56240  0.81140  Biso   1.000  O
  O9       1.0000 0.31730  0.54240  0.81450  Biso   1.000  O
  O10      1.0000 0.44970  0.06240  0.31140  Biso   1.000  O
  O11      1.0000 0.68270  0.45760  0.81450  Biso   1.000  O
  O12      1.0000 0.55030  0.93760  0.31140  Biso   1.000  O
  O13      1.0000 0.18270  0.04240  0.68550  Biso   1.000  O
  O14      1.0000 0.05030  0.56240  0.18860  Biso   1.000  O
  O15      1.0000 0.81730  0.95760  0.68550  Biso   1.000  O
  O16      1.0000 0.94970  0.43760  0.18860  Biso   1.000  O
  Zr1      1.0000 0.68410  0.45000  0.50000  Biso   1.000  Zr
  P1       1.0000 0.58720  0.95770  0.50000  Biso   1.000  P
  O17      1.0000 0.62800  0.74300  0.50000  Biso   1.000  O
  O18      1.0000 0.61760  0.20500  0.50000  Biso   1.000  O
  Zr2      1.0000 0.31590  0.55000  0.50000  Biso   1.000  Zr
  P2       1.0000 0.41280  0.04230  0.50000  Biso   1.000  P
  O19      1.0000 0.37200  0.25700  0.50000  Biso   1.000  O
  O20      1.0000 0.38240  0.79500  0.50000  Biso   1.000  O
  Zr3      1.0000 0.81590  0.95000  0.00000  Biso   1.000  Zr
  P3       1.0000 0.91280  0.45770  0.00000  Biso   1.000  P
  O21      1.0000 0.87200  0.24300  0.00000  Biso   1.000  O
  O22      1.0000 0.88240  0.70500  0.00000  Biso   1.000  O
  Zr4      1.0000 0.18410  0.05000  0.00000  Biso   1.000  Zr
  P4       1.0000 0.08720  0.54230  0.00000  Biso   1.000  P
  O23      1.0000 0.12800  0.75700  0.00000  Biso   1.000  O
  O24      1.0000 0.11760  0.29500  0.00000  Biso   1.000  O
  P5       1.0000 0.72070  0.44370  0.00000  Biso   1.000  P
  O25      1.0000 0.76110  0.65950  0.00000  Biso   1.000  O
  O26      1.0000 0.75260  0.19750  0.00000  Biso   1.000  O
  P6       1.0000 0.27930  0.55630  0.00000  Biso   1.000  P
  O27      1.0000 0.23890  0.34050  0.00000  Biso   1.000  O
  O28      1.0000 0.24740  0.80250  0.00000  Biso   1.000  O
  P7       1.0000 0.77930  0.94370  0.50000  Biso   1.000  P
  O29      1.0000 0.73890  0.15950  0.50000  Biso   1.000  O
  O30      1.0000 0.74740  0.69750  0.50000  Biso   1.000  O
  P8       1.0000 0.22070  0.05630  0.50000  Biso   1.000  P
  O31      1.0000 0.26110  0.84050  0.50000  Biso   1.000  O
  O32      1.0000 0.25260  0.30250  0.50000  Biso   1.000  O
  H1       1.0000 0.50000  0.00000  0.31140  Biso   1.000  H
  H2       1.0000 0.00000  0.50000  0.18860  Biso   1.000  H
  H3       1.0000 0.50000  0.00000  0.68860  Biso   1.000  H
  H4       1.0000 0.00000  0.50000  0.81140  Biso   1.000  H
