data_JIWKUW_clean
_audit_creation_date              2014-07-02
_audit_creation_method            'Materials Studio'
_symmetry_space_group_name_H-M    'P1'
_symmetry_Int_Tables_number       1
_symmetry_cell_setting            triclinic
loop_
_symmetry_equiv_pos_as_xyz
  x,y,z
_cell_length_a                    16.8750
_cell_length_b                    17.3103
_cell_length_c                    20.2441
_cell_angle_alpha                 99.1820
_cell_angle_beta                  97.8090
_cell_angle_gamma                 108.5430
loop_
_atom_site_label
_atom_site_type_symbol
_atom_site_fract_x
_atom_site_fract_y
_atom_site_fract_z
_atom_site_U_iso_or_equiv
_atom_site_adp_type
_atom_site_occupancy
Tb1    Tb    0.16639   0.62106   0.90066   0.01267  Uiso   1.00
Tb2    Tb    0.25902   0.57857   0.74329   0.01267  Uiso   1.00
Tb3    Tb    0.16413   0.98674   0.27038   0.01267  Uiso   1.00
Tb4    Tb    0.24773   0.20764   0.37859   0.01267  Uiso   1.00
Tb5    Tb    0.83361   0.37894   0.09934   0.01267  Uiso   1.00
Tb6    Tb    0.74098   0.42143   0.25671   0.01267  Uiso   1.00
Tb7    Tb    0.83587   0.01326   0.72962   0.01267  Uiso   1.00
Tb8    Tb    0.75227   0.79236   0.62141   0.01267  Uiso   1.00
Na1    Na    0.35740   0.54294   0.54545   0.01267  Uiso   1.00
Na2    Na    0.04460   0.71960   0.14715   0.01267  Uiso   1.00
Na3    Na    0.84050   0.37240   0.79390   0.01267  Uiso   1.00
Na4    Na    0.95810   0.42710   0.54720   0.01267  Uiso   1.00
Na5    Na    0.64260   0.45706   0.45455   0.01267  Uiso   1.00
Na6    Na    0.95540   0.28040   0.85285   0.01267  Uiso   1.00
Na7    Na    0.15950   0.62760   0.20610   0.01267  Uiso   1.00
Na8    Na    0.04190   0.57290   0.45280   0.01267  Uiso   1.00
H1     H     0.11810   0.88160   0.79020   0.01267  Uiso   1.00
H2     H     0.36090   0.91850   0.77630   0.01267  Uiso   1.00
H3     H     0.24910   0.03550   0.80980   0.01267  Uiso   1.00
H4     H     0.30930   0.02290   0.75740   0.01267  Uiso   1.00
H5     H     0.20860   0.99590   0.73060   0.01267  Uiso   1.00
H6     H     0.04580   0.67830   0.77010   0.01267  Uiso   1.00
H7     H     0.02760   0.75940   0.80370   0.01267  Uiso   1.00
H8     H     0.13520   0.81370   0.93190   0.01267  Uiso   1.00
H9     H     0.03480   0.78960   0.93020   0.01267  Uiso   1.00
H10    H     0.96610   0.63260   0.91260   0.01267  Uiso   1.00
H11    H     0.93610   0.66060   0.84460   0.01267  Uiso   1.00
H12    H     0.38130   0.75450   0.83940   0.01267  Uiso   1.00
H13    H     0.42840   0.82770   0.80400   0.01267  Uiso   1.00
H14    H     0.37330   0.80280   0.68210   0.01267  Uiso   1.00
H15    H     0.38370   0.72180   0.63920   0.01267  Uiso   1.00
H16    H     0.46560   0.67930   0.70000   0.01267  Uiso   1.00
H17    H     0.50270   0.75700   0.76390   0.01267  Uiso   1.00
H18    H     0.29680   0.31320   0.84930   0.01267  Uiso   1.00
H19    H     0.41040   0.50030   0.01170   0.01267  Uiso   1.00
H20    H     0.36140   0.30170   0.98370   0.01267  Uiso   1.00
H21    H     0.42850   0.31980   0.93430   0.01267  Uiso   1.00
H22    H     0.44800   0.38060   0.00750   0.01267  Uiso   1.00
H23    H     0.14840   0.38360   0.77900   0.01267  Uiso   1.00
H24    H     0.19640   0.31930   0.76040   0.01267  Uiso   1.00
H25    H     0.35570   0.42450   0.74620   0.01267  Uiso   1.00
H26    H     0.30160   0.35330   0.67990   0.01267  Uiso   1.00
H27    H     0.19020   0.39310   0.61740   0.01267  Uiso   1.00
H28    H     0.14410   0.32200   0.65540   0.01267  Uiso   1.00
H29    H     0.39970   0.63170   0.01440   0.01267  Uiso   1.00
H30    H     0.36530   0.65280   0.94450   0.01267  Uiso   1.00
H31    H     0.28510   0.54800   0.06400   0.01267  Uiso   1.00
H32    H     0.21670   0.59090   0.07970   0.01267  Uiso   1.00
H33    H     0.26550   0.71820   0.07910   0.01267  Uiso   1.00
H34    H     0.36240   0.72770   0.07610   0.01267  Uiso   1.00
H35    H     0.91780   0.95640   0.42880   0.01267  Uiso   1.00
H36    H     0.90520   0.16170   0.36710   0.01267  Uiso   1.00
H37    H     0.78320   0.07450   0.40000   0.01267  Uiso   1.00
H38    H     0.78290   0.98830   0.41910   0.01267  Uiso   1.00
H39    H     0.82810   0.07390   0.47470   0.01267  Uiso   1.00
H40    H     0.12640   0.98770   0.42150   0.01267  Uiso   1.00
H41    H     0.04120   0.92060   0.43180   0.01267  Uiso   1.00
H42    H     0.96970   0.79390   0.27580   0.01267  Uiso   1.00
H43    H     0.93670   0.85120   0.32720   0.01267  Uiso   1.00
H44    H     0.08500   0.82030   0.39850   0.01267  Uiso   1.00
H45    H     0.08250   0.78380   0.32020   0.01267  Uiso   1.00
H46    H     0.00550   0.23590   0.30980   0.01267  Uiso   1.00
H47    H     0.05160   0.18230   0.26860   0.01267  Uiso   1.00
H48    H     0.09450   0.35590   0.40630   0.01267  Uiso   1.00
H49    H     0.09350   0.27990   0.44270   0.01267  Uiso   1.00
H50    H     0.11290   0.33890   0.28360   0.01267  Uiso   1.00
H51    H     0.20540   0.37710   0.33260   0.01267  Uiso   1.00
H52    H     0.50530   0.10540   0.48100   0.01267  Uiso   1.00
H53    H     0.50690   0.03390   0.28260   0.01267  Uiso   1.00
H54    H     0.60300   0.00330   0.37480   0.01267  Uiso   1.00
H55    H     0.65110   0.10220   0.39400   0.01267  Uiso   1.00
H56    H     0.61660   0.05400   0.45130   0.01267  Uiso   1.00
H57    H     0.38770   0.12040   0.51850   0.01267  Uiso   1.00
H58    H     0.29850   0.08550   0.46570   0.01267  Uiso   1.00
H59    H     0.32400   0.88170   0.17430   0.01267  Uiso   1.00
H60    H     0.32910   0.90520   0.25500   0.01267  Uiso   1.00
H61    H     0.35160   0.09960   0.21650   0.01267  Uiso   1.00
H62    H     0.40430   0.04010   0.19680   0.01267  Uiso   1.00
H63    H     0.33760   0.19960   0.58010   0.01267  Uiso   1.00
H64    H     0.34020   0.28820   0.56520   0.01267  Uiso   1.00
H65    H     0.44290   0.32630   0.52230   0.01267  Uiso   1.00
H66    H     0.48280   0.25440   0.50770   0.01267  Uiso   1.00
H67    H     0.21020   0.91110   0.10980   0.01267  Uiso   1.00
H68    H     0.29350   0.98570   0.10580   0.01267  Uiso   1.00
H69    H     0.88190   0.11840   0.20980   0.01267  Uiso   1.00
H70    H     0.63910   0.08150   0.22370   0.01267  Uiso   1.00
H71    H     0.75090   0.96450   0.19020   0.01267  Uiso   1.00
H72    H     0.69070   0.97710   0.24260   0.01267  Uiso   1.00
H73    H     0.79140   0.00410   0.26940   0.01267  Uiso   1.00
H74    H     0.95420   0.32170   0.22990   0.01267  Uiso   1.00
H75    H     0.97240   0.24060   0.19630   0.01267  Uiso   1.00
H76    H     0.86480   0.18630   0.06810   0.01267  Uiso   1.00
H77    H     0.96520   0.21040   0.06980   0.01267  Uiso   1.00
H78    H     0.03390   0.36740   0.08740   0.01267  Uiso   1.00
H79    H     0.06390   0.33940   0.15540   0.01267  Uiso   1.00
H80    H     0.61870   0.24550   0.16060   0.01267  Uiso   1.00
H81    H     0.57160   0.17230   0.19600   0.01267  Uiso   1.00
H82    H     0.62670   0.19720   0.31790   0.01267  Uiso   1.00
H83    H     0.61630   0.27820   0.36080   0.01267  Uiso   1.00
H84    H     0.53440   0.32070   0.30000   0.01267  Uiso   1.00
H85    H     0.49730   0.24300   0.23610   0.01267  Uiso   1.00
H86    H     0.70320   0.68680   0.15070   0.01267  Uiso   1.00
H87    H     0.58960   0.49970   0.98830   0.01267  Uiso   1.00
H88    H     0.63860   0.69830   0.01630   0.01267  Uiso   1.00
H89    H     0.57150   0.68020   0.06570   0.01267  Uiso   1.00
H90    H     0.55200   0.61940   0.99250   0.01267  Uiso   1.00
H91    H     0.85160   0.61640   0.22100   0.01267  Uiso   1.00
H92    H     0.80360   0.68070   0.23960   0.01267  Uiso   1.00
H93    H     0.64430   0.57550   0.25380   0.01267  Uiso   1.00
H94    H     0.69840   0.64670   0.32010   0.01267  Uiso   1.00
H95    H     0.80980   0.60690   0.38260   0.01267  Uiso   1.00
H96    H     0.85590   0.67800   0.34460   0.01267  Uiso   1.00
H97    H     0.60030   0.36830   0.98560   0.01267  Uiso   1.00
H98    H     0.63470   0.34720   0.05550   0.01267  Uiso   1.00
H99    H     0.71490   0.45200   0.93600   0.01267  Uiso   1.00
H100   H     0.78330   0.40910   0.92030   0.01267  Uiso   1.00
H101   H     0.73450   0.28180   0.92090   0.01267  Uiso   1.00
H102   H     0.63760   0.27230   0.92390   0.01267  Uiso   1.00
H103   H     0.08220   0.04360   0.57120   0.01267  Uiso   1.00
H104   H     0.09480   0.83830   0.63290   0.01267  Uiso   1.00
H105   H     0.21680   0.92550   0.60000   0.01267  Uiso   1.00
H106   H     0.21710   0.01170   0.58090   0.01267  Uiso   1.00
H107   H     0.17190   0.92610   0.52530   0.01267  Uiso   1.00
H108   H     0.87360   0.01230   0.57850   0.01267  Uiso   1.00
H109   H     0.95880   0.07940   0.56820   0.01267  Uiso   1.00
H110   H     0.03030   0.20610   0.72420   0.01267  Uiso   1.00
H111   H     0.06330   0.14880   0.67280   0.01267  Uiso   1.00
H112   H     0.91500   0.17970   0.60150   0.01267  Uiso   1.00
H113   H     0.91750   0.21620   0.67980   0.01267  Uiso   1.00
H114   H     0.99450   0.76410   0.69020   0.01267  Uiso   1.00
H115   H     0.94840   0.81770   0.73140   0.01267  Uiso   1.00
H116   H     0.90550   0.64410   0.59370   0.01267  Uiso   1.00
H117   H     0.90650   0.72010   0.55730   0.01267  Uiso   1.00
H118   H     0.88710   0.66110   0.71640   0.01267  Uiso   1.00
H119   H     0.79460   0.62290   0.66740   0.01267  Uiso   1.00
H120   H     0.49470   0.89460   0.51900   0.01267  Uiso   1.00
H121   H     0.49310   0.96610   0.71740   0.01267  Uiso   1.00
H122   H     0.39700   0.99670   0.62520   0.01267  Uiso   1.00
H123   H     0.34890   0.89780   0.60600   0.01267  Uiso   1.00
H124   H     0.38340   0.94600   0.54870   0.01267  Uiso   1.00
H125   H     0.61230   0.87960   0.48150   0.01267  Uiso   1.00
H126   H     0.70150   0.91450   0.53430   0.01267  Uiso   1.00
H127   H     0.67600   0.11830   0.82570   0.01267  Uiso   1.00
H128   H     0.67090   0.09480   0.74500   0.01267  Uiso   1.00
H129   H     0.64840   0.90040   0.78350   0.01267  Uiso   1.00
H130   H     0.59570   0.95990   0.80320   0.01267  Uiso   1.00
H131   H     0.66240   0.80040   0.41990   0.01267  Uiso   1.00
H132   H     0.65980   0.71180   0.43480   0.01267  Uiso   1.00
H133   H     0.55710   0.67370   0.47770   0.01267  Uiso   1.00
H134   H     0.51720   0.74560   0.49230   0.01267  Uiso   1.00
H135   H     0.78980   0.08890   0.89020   0.01267  Uiso   1.00
H136   H     0.70650   0.01430   0.89420   0.01267  Uiso   1.00
C1     C     0.21990   0.75180   0.80000   0.01267  Uiso   1.00
C2     C     0.15470   0.78220   0.80240   0.01267  Uiso   1.00
C3     C     0.16520   0.86270   0.79110   0.01267  Uiso   1.00
C4     C     0.24130   0.91520   0.78140   0.01267  Uiso   1.00
C5     C     0.30740   0.88390   0.78260   0.01267  Uiso   1.00
C6     C     0.29960   0.80450   0.79250   0.01267  Uiso   1.00
C7     C     0.25310   0.99950   0.76880   0.01267  Uiso   1.00
C8     C     0.06700   0.72780   0.80830   0.01267  Uiso   1.00
C9     C     0.08250   0.76780   0.93260   0.01267  Uiso   1.00
C10    C     0.09310   0.73640   0.99810   0.01267  Uiso   1.00
C11    C     0.97800   0.63890   0.86680   0.01267  Uiso   1.00
C12    C     0.96770   0.55470   0.82480   0.01267  Uiso   1.00
C13    C     0.37660   0.77790   0.79820   0.01267  Uiso   1.00
C14    C     0.35290   0.74110   0.67290   0.01267  Uiso   1.00
C15    C     0.26010   0.70810   0.64300   0.01267  Uiso   1.00
C16    C     0.45670   0.70230   0.74530   0.01267  Uiso   1.00
C17    C     0.46230   0.64390   0.79230   0.01267  Uiso   1.00
C18    C     0.27730   0.49610   0.87660   0.01267  Uiso   1.00
C19    C     0.26480   0.41520   0.84200   0.01267  Uiso   1.00
C20    C     0.30560   0.36830   0.87280   0.01267  Uiso   1.00
C21    C     0.35860   0.39880   0.93670   0.01267  Uiso   1.00
C22    C     0.37230   0.47820   0.96860   0.01267  Uiso   1.00
C23    C     0.33270   0.52950   0.94090   0.01267  Uiso   1.00
C24    C     0.40310   0.34550   0.96840   0.01267  Uiso   1.00
C25    C     0.20450   0.37930   0.77410   0.01267  Uiso   1.00
C26    C     0.31350   0.41180   0.70330   0.01267  Uiso   1.00
C27    C     0.34900   0.46950   0.65830   0.01267  Uiso   1.00
C28    C     0.16690   0.38310   0.65880   0.01267  Uiso   1.00
C29    C     0.09430   0.41840   0.66220   0.01267  Uiso   1.00
C30    C     0.34980   0.61550   0.97660   0.01267  Uiso   1.00
C31    C     0.23950   0.56600   0.04260   0.01267  Uiso   1.00
C32    C     0.16840   0.48980   0.99780   0.01267  Uiso   1.00
C33    C     0.30530   0.71510   0.04790   0.01267  Uiso   1.00
C34    C     0.30960   0.77850   0.00560   0.01267  Uiso   1.00
C35    C     0.05300   0.07850   0.35600   0.01267  Uiso   1.00
C36    C     0.01860   0.01140   0.38680   0.01267  Uiso   1.00
C37    C     0.94180   0.00220   0.40870   0.01267  Uiso   1.00
C38    C     0.89950   0.05820   0.40170   0.01267  Uiso   1.00
C39    C     0.93420   0.12350   0.37250   0.01267  Uiso   1.00
C40    C     0.01110   0.13560   0.35030   0.01267  Uiso   1.00
C41    C     0.81600   0.04780   0.42600   0.01267  Uiso   1.00
C42    C     0.06650   0.95390   0.39950   0.01267  Uiso   1.00
C43    C     0.97710   0.85240   0.29590   0.01267  Uiso   1.00
C44    C     0.95510   0.89420   0.23910   0.01267  Uiso   1.00
C45    C     0.10370   0.83530   0.35650   0.01267  Uiso   1.00
C46    C     0.19920   0.86870   0.36960   0.01267  Uiso   1.00
C47    C     0.04670   0.20640   0.31500   0.01267  Uiso   1.00
C48    C     0.12550   0.31780   0.41600   0.01267  Uiso   1.00
C49    C     0.21500   0.36840   0.45740   0.01267  Uiso   1.00
C50    C     0.16100   0.32480   0.30560   0.01267  Uiso   1.00
C51    C     0.19730   0.28420   0.25130   0.01267  Uiso   1.00
C52    C     0.36250   0.08950   0.34830   0.01267  Uiso   1.00
C53    C     0.40120   0.10440   0.41870   0.01267  Uiso   1.00
C54    C     0.47890   0.09430   0.43430   0.01267  Uiso   1.00
C55    C     0.52050   0.06870   0.38510   0.01267  Uiso   1.00
C56    C     0.48040   0.05280   0.31730   0.01267  Uiso   1.00
C57    C     0.40240   0.06360   0.29820   0.01267  Uiso   1.00
C58    C     0.60540   0.05590   0.40290   0.01267  Uiso   1.00
C59    C     0.22180   0.19770   0.53140   0.01267  Uiso   1.00
C60    C     0.35740   0.12620   0.47520   0.01267  Uiso   1.00
C61    C     0.29370   0.89780   0.20970   0.01267  Uiso   1.00
C62    C     0.36310   0.04900   0.22500   0.01267  Uiso   1.00
C63    C     0.45350   0.29760   0.42290   0.01267  Uiso   1.00
C64    C     0.31780   0.22750   0.54550   0.01267  Uiso   1.00
C65    C     0.20800   0.82900   0.20200   0.01267  Uiso   1.00
C66    C     0.43790   0.27530   0.48940   0.01267  Uiso   1.00
C67    C     0.24620   0.96980   0.13070   0.01267  Uiso   1.00
C68    C     0.19480   0.02360   0.12280   0.01267  Uiso   1.00
C69    C     0.78010   0.24820   0.20000   0.01267  Uiso   1.00
C70    C     0.84530   0.21780   0.19760   0.01267  Uiso   1.00
C71    C     0.83480   0.13730   0.20890   0.01267  Uiso   1.00
C72    C     0.75870   0.08480   0.21860   0.01267  Uiso   1.00
C73    C     0.69260   0.11610   0.21740   0.01267  Uiso   1.00
C74    C     0.70040   0.19550   0.20750   0.01267  Uiso   1.00
C75    C     0.74690   0.00050   0.23120   0.01267  Uiso   1.00
C76    C     0.93300   0.27220   0.19170   0.01267  Uiso   1.00
C77    C     0.91750   0.23220   0.06740   0.01267  Uiso   1.00
C78    C     0.90690   0.26360   0.00190   0.01267  Uiso   1.00
C79    C     0.02200   0.36110   0.13320   0.01267  Uiso   1.00
C80    C     0.03230   0.44530   0.17520   0.01267  Uiso   1.00
C81    C     0.62340   0.22210   0.20180   0.01267  Uiso   1.00
C82    C     0.64710   0.25890   0.32710   0.01267  Uiso   1.00
C83    C     0.73990   0.29190   0.35700   0.01267  Uiso   1.00
C84    C     0.54330   0.29770   0.25470   0.01267  Uiso   1.00
C85    C     0.53770   0.35610   0.20770   0.01267  Uiso   1.00
C86    C     0.72270   0.50390   0.12340   0.01267  Uiso   1.00
C87    C     0.73520   0.58480   0.15800   0.01267  Uiso   1.00
C88    C     0.69440   0.63170   0.12720   0.01267  Uiso   1.00
C89    C     0.64140   0.60120   0.06330   0.01267  Uiso   1.00
C90    C     0.62770   0.52180   0.03140   0.01267  Uiso   1.00
C91    C     0.66730   0.47050   0.05910   0.01267  Uiso   1.00
C92    C     0.59690   0.65450   0.03160   0.01267  Uiso   1.00
C93    C     0.79550   0.62070   0.22590   0.01267  Uiso   1.00
C94    C     0.68650   0.58820   0.29670   0.01267  Uiso   1.00
C95    C     0.65100   0.53050   0.34170   0.01267  Uiso   1.00
C96    C     0.83310   0.61690   0.34120   0.01267  Uiso   1.00
C97    C     0.90570   0.58160   0.33780   0.01267  Uiso   1.00
C98    C     0.65020   0.38450   0.02340   0.01267  Uiso   1.00
C99    C     0.76050   0.43400   0.95740   0.01267  Uiso   1.00
C100   C     0.83160   0.51020   0.00220   0.01267  Uiso   1.00
C101   C     0.69470   0.28490   0.95210   0.01267  Uiso   1.00
C102   C     0.69040   0.22150   0.99440   0.01267  Uiso   1.00
C103   C     0.94700   0.92150   0.64400   0.01267  Uiso   1.00
C104   C     0.98140   0.98860   0.61320   0.01267  Uiso   1.00
C105   C     0.05820   0.99780   0.59130   0.01267  Uiso   1.00
C106   C     0.10050   0.94180   0.59830   0.01267  Uiso   1.00
C107   C     0.06580   0.87650   0.62750   0.01267  Uiso   1.00
C108   C     0.98890   0.86440   0.64970   0.01267  Uiso   1.00
C109   C     0.18400   0.95220   0.57400   0.01267  Uiso   1.00
C110   C     0.93350   0.04610   0.60050   0.01267  Uiso   1.00
C111   C     0.02290   0.14760   0.70410   0.01267  Uiso   1.00
C112   C     0.04490   0.10580   0.76090   0.01267  Uiso   1.00
C113   C     0.89630   0.16470   0.64350   0.01267  Uiso   1.00
C114   C     0.80080   0.13130   0.63040   0.01267  Uiso   1.00
C115   C     0.95330   0.79360   0.68500   0.01267  Uiso   1.00
C116   C     0.87450   0.68220   0.58400   0.01267  Uiso   1.00
C117   C     0.78500   0.63160   0.54260   0.01267  Uiso   1.00
C118   C     0.83900   0.67520   0.69440   0.01267  Uiso   1.00
C119   C     0.80270   0.71580   0.74870   0.01267  Uiso   1.00
C120   C     0.63750   0.91050   0.65170   0.01267  Uiso   1.00
C121   C     0.59880   0.89560   0.58130   0.01267  Uiso   1.00
C122   C     0.52110   0.90570   0.56570   0.01267  Uiso   1.00
C123   C     0.47950   0.93130   0.61490   0.01267  Uiso   1.00
C124   C     0.51960   0.94720   0.68270   0.01267  Uiso   1.00
C125   C     0.59760   0.93640   0.70180   0.01267  Uiso   1.00
C126   C     0.39460   0.94410   0.59710   0.01267  Uiso   1.00
C127   C     0.77820   0.80230   0.46860   0.01267  Uiso   1.00
C128   C     0.64260   0.87380   0.52480   0.01267  Uiso   1.00
C129   C     0.70630   0.10220   0.79030   0.01267  Uiso   1.00
C130   C     0.63690   0.95100   0.77500   0.01267  Uiso   1.00
C131   C     0.54650   0.70240   0.57710   0.01267  Uiso   1.00
C132   C     0.68220   0.77250   0.45450   0.01267  Uiso   1.00
C133   C     0.79200   0.17100   0.79800   0.01267  Uiso   1.00
C134   C     0.56210   0.72470   0.51060   0.01267  Uiso   1.00
C135   C     0.75380   0.03020   0.86930   0.01267  Uiso   1.00
C136   C     0.80520   0.97640   0.87720   0.01267  Uiso   1.00
N1     N     0.35340   0.21130   0.48450   0.01267  Uiso   1.00
N2     N     0.06500   0.69910   0.87420   0.01267  Uiso   1.00
N3     N     0.37350   0.71420   0.73710   0.01267  Uiso   1.00
N4     N     0.23480   0.42180   0.71890   0.01267  Uiso   1.00
N5     N     0.27630   0.62920   0.00530   0.01267  Uiso   1.00
N6     N     0.06590   0.89520   0.33590   0.01267  Uiso   1.00
N7     N     0.13110   0.26820   0.35080   0.01267  Uiso   1.00
N8     N     0.28200   0.97590   0.20280   0.01267  Uiso   1.00
N9     N     0.64660   0.78870   0.51550   0.01267  Uiso   1.00
N10    N     0.93500   0.30090   0.12580   0.01267  Uiso   1.00
N11    N     0.62650   0.28580   0.26290   0.01267  Uiso   1.00
N12    N     0.76520   0.57820   0.28110   0.01267  Uiso   1.00
N13    N     0.72370   0.37080   0.99470   0.01267  Uiso   1.00
N14    N     0.93410   0.10480   0.66410   0.01267  Uiso   1.00
N15    N     0.86890   0.73180   0.64920   0.01267  Uiso   1.00
N16    N     0.71800   0.02410   0.79720   0.01267  Uiso   1.00
O1     O     0.14450   0.84990   0.21060   0.01267  Uiso   1.00
O2     O     0.18360   0.17690   0.46970   0.01267  Uiso   1.00
O3     O     0.16280   0.04490   0.17330   0.01267  Uiso   1.00
O4     O     0.38990   0.28070   0.37430   0.01267  Uiso   1.00
O5     O     0.21050   0.67270   0.80700   0.01267  Uiso   1.00
O6     O     0.11270   0.67210   0.99440   0.01267  Uiso   1.00
O7     O     0.08170   0.77620   0.05040   0.01267  Uiso   1.00
O8     O     0.03360   0.53460   0.82930   0.01267  Uiso   1.00
O9     O     0.89490   0.51120   0.79130   0.01267  Uiso   1.00
O10    O     0.21430   0.63980   0.65690   0.01267  Uiso   1.00
O11    O     0.23090   0.74630   0.60530   0.01267  Uiso   1.00
O12    O     0.39420   0.59700   0.80400   0.01267  Uiso   1.00
O13    O     0.53350   0.64360   0.81600   0.01267  Uiso   1.00
O14    O     0.23780   0.54310   0.84860   0.01267  Uiso   1.00
O15    O     0.32330   0.53120   0.65540   0.01267  Uiso   1.00
O16    O     0.40420   0.45680   0.62600   0.01267  Uiso   1.00
O17    O     0.11630   0.49340   0.69470   0.01267  Uiso   1.00
O18    O     0.02190   0.37350   0.63150   0.01267  Uiso   1.00
O19    O     0.12450   0.50260   0.94740   0.01267  Uiso   1.00
O20    O     0.15430   0.42070   0.01420   0.01267  Uiso   1.00
O21    O     0.26800   0.75540   0.94500   0.01267  Uiso   1.00
O22    O     0.34990   0.85390   0.03340   0.01267  Uiso   1.00
O23    O     0.12660   0.08780   0.33280   0.01267  Uiso   1.00
O24    O     0.01690   0.94150   0.21850   0.01267  Uiso   1.00
O25    O     0.88000   0.87560   0.21380   0.01267  Uiso   1.00
O26    O     0.23520   0.93460   0.35090   0.01267  Uiso   1.00
O27    O     0.23790   0.82690   0.39540   0.01267  Uiso   1.00
O28    O     0.27630   0.34420   0.44400   0.01267  Uiso   1.00
O29    O     0.22430   0.43170   0.50250   0.01267  Uiso   1.00
O30    O     0.23480   0.23660   0.26800   0.01267  Uiso   1.00
O31    O     0.18820   0.30080   0.19270   0.01267  Uiso   1.00
O32    O     0.28650   0.09810   0.33210   0.01267  Uiso   1.00
O33    O     0.18520   0.19850   0.58120   0.01267  Uiso   1.00
O34    O     0.52810   0.33750   0.41890   0.01267  Uiso   1.00
O35    O     0.20580   0.75640   0.18990   0.01267  Uiso   1.00
O36    O     0.18160   0.04170   0.06640   0.01267  Uiso   1.00
O37    O     0.89530   0.49330   0.46800   0.01267  Uiso   1.00
O38    O     0.02260   0.63450   0.23390   0.01267  Uiso   1.00
O39    O     0.05630   0.59180   0.09410   0.01267  Uiso   1.00
O40    O     0.85550   0.15010   0.78940   0.01267  Uiso   1.00
O41    O     0.81640   0.82310   0.53030   0.01267  Uiso   1.00
O42    O     0.83720   0.95510   0.82670   0.01267  Uiso   1.00
O43    O     0.61010   0.71930   0.62570   0.01267  Uiso   1.00
O44    O     0.78950   0.32730   0.19300   0.01267  Uiso   1.00
O45    O     0.88730   0.32790   0.00560   0.01267  Uiso   1.00
O46    O     0.91830   0.22380   0.94960   0.01267  Uiso   1.00
O47    O     0.96640   0.46540   0.17070   0.01267  Uiso   1.00
O48    O     0.10510   0.48880   0.20870   0.01267  Uiso   1.00
O49    O     0.78570   0.36020   0.34310   0.01267  Uiso   1.00
O50    O     0.76910   0.25370   0.39470   0.01267  Uiso   1.00
O51    O     0.60580   0.40300   0.19600   0.01267  Uiso   1.00
O52    O     0.46650   0.35640   0.18400   0.01267  Uiso   1.00
O53    O     0.76220   0.45690   0.15140   0.01267  Uiso   1.00
O54    O     0.67670   0.46880   0.34460   0.01267  Uiso   1.00
O55    O     0.59580   0.54320   0.37400   0.01267  Uiso   1.00
O56    O     0.88370   0.50660   0.30530   0.01267  Uiso   1.00
O57    O     0.97810   0.62650   0.36850   0.01267  Uiso   1.00
O58    O     0.87550   0.49740   0.05260   0.01267  Uiso   1.00
O59    O     0.84570   0.57930   0.98580   0.01267  Uiso   1.00
O60    O     0.73200   0.24460   0.05500   0.01267  Uiso   1.00
O61    O     0.65010   0.14610   0.96660   0.01267  Uiso   1.00
O62    O     0.87340   0.91220   0.66720   0.01267  Uiso   1.00
O63    O     0.98310   0.05850   0.78150   0.01267  Uiso   1.00
O64    O     0.12000   0.12440   0.78620   0.01267  Uiso   1.00
O65    O     0.76480   0.06540   0.64910   0.01267  Uiso   1.00
O66    O     0.76210   0.17310   0.60460   0.01267  Uiso   1.00
O67    O     0.72370   0.65580   0.55600   0.01267  Uiso   1.00
O68    O     0.77570   0.56830   0.49750   0.01267  Uiso   1.00
O69    O     0.76520   0.76340   0.73200   0.01267  Uiso   1.00
O70    O     0.81180   0.69920   0.80730   0.01267  Uiso   1.00
O71    O     0.71350   0.90190   0.66790   0.01267  Uiso   1.00
O72    O     0.81480   0.80150   0.41880   0.01267  Uiso   1.00
O73    O     0.47190   0.66250   0.58110   0.01267  Uiso   1.00
O74    O     0.79420   0.24360   0.81010   0.01267  Uiso   1.00
O75    O     0.81840   0.95830   0.93360   0.01267  Uiso   1.00
O76    O     0.10470   0.50670   0.53200   0.01267  Uiso   1.00
O77    O     0.97740   0.36550   0.76610   0.01267  Uiso   1.00
O78    O     0.94370   0.40820   0.90590   0.01267  Uiso   1.00
