data_JIYXUL_clean
_audit_creation_date              2014-07-02
_audit_creation_method            'Materials Studio'
_symmetry_space_group_name_H-M    'P1'
_symmetry_Int_Tables_number       1
_symmetry_cell_setting            triclinic
loop_
_symmetry_equiv_pos_as_xyz
  x,y,z
_cell_length_a                    12.5898
_cell_length_b                    14.9339
_cell_length_c                    19.7390
_cell_angle_alpha                 111.3500
_cell_angle_beta                  101.6610
_cell_angle_gamma                 93.9770
loop_
_atom_site_label
_atom_site_type_symbol
_atom_site_fract_x
_atom_site_fract_y
_atom_site_fract_z
_atom_site_U_iso_or_equiv
_atom_site_adp_type
_atom_site_occupancy
Na1    Na    0.89430   0.41030   0.42140   0.01267  Uiso   1.00
Na2    Na    0.02190   0.02680   0.42640   0.01267  Uiso   1.00
Na3    Na    0.62130   0.10840   0.38720   0.01267  Uiso   1.00
Na4    Na    0.83050   0.42550   0.13640   0.01267  Uiso   1.00
Na5    Na    0.35690   0.46180   0.95280   0.01267  Uiso   1.00
Na6    Na    0.05710   0.14530   0.75820   0.01267  Uiso   1.00
Na7    Na    0.10570   0.58970   0.57860   0.01267  Uiso   1.00
Na8    Na    0.97810   0.97320   0.57360   0.01267  Uiso   1.00
Na9    Na    0.37870   0.89160   0.61280   0.01267  Uiso   1.00
Na10   Na    0.16950   0.57450   0.86360   0.01267  Uiso   1.00
Na11   Na    0.64310   0.53820   0.04720   0.01267  Uiso   1.00
Na12   Na    0.94290   0.85470   0.24180   0.01267  Uiso   1.00
Na13   Na    0.50000   0.00000   0.50000   0.01267  Uiso   1.00
Fe1    Fe    0.34663   0.35335   0.48166   0.01267  Uiso   1.00
Fe2    Fe    0.79497   0.31641   0.56353   0.01267  Uiso   1.00
Fe3    Fe    0.65337   0.64665   0.51834   0.01267  Uiso   1.00
Fe4    Fe    0.20503   0.68359   0.43647   0.01267  Uiso   1.00
Sb1    Sb    0.40051   0.49158   0.35593   0.01267  Uiso   1.00
Sb2    Sb    0.59949   0.50842   0.64407   0.01267  Uiso   1.00
W1     W     0.60529   0.37471   0.41946   0.01267  Uiso   1.00
W2     W     0.45745   0.22825   0.24635   0.01267  Uiso   1.00
W3     W     0.64618   0.41071   0.26783   0.01267  Uiso   1.00
W4     W     0.59635   0.66472   0.34157   0.01267  Uiso   1.00
W5     W     0.45035   0.52270   0.17065   0.01267  Uiso   1.00
W6     W     0.33286   0.68093   0.29261   0.01267  Uiso   1.00
W7     W     0.12020   0.47793   0.26567   0.01267  Uiso   1.00
W8     W     0.23922   0.31884   0.14597   0.01267  Uiso   1.00
W9     W     0.19416   0.28243   0.29355   0.01267  Uiso   1.00
W10    W     0.39471   0.62529   0.58054   0.01267  Uiso   1.00
W11    W     0.54255   0.77175   0.75365   0.01267  Uiso   1.00
W12    W     0.35382   0.58929   0.73217   0.01267  Uiso   1.00
W13    W     0.40365   0.33528   0.65843   0.01267  Uiso   1.00
W14    W     0.54965   0.47730   0.82935   0.01267  Uiso   1.00
W15    W     0.66714   0.31907   0.70739   0.01267  Uiso   1.00
W16    W     0.87980   0.52207   0.73433   0.01267  Uiso   1.00
W17    W     0.76078   0.68116   0.85403   0.01267  Uiso   1.00
W18    W     0.80584   0.71757   0.70645   0.01267  Uiso   1.00
C1     C     0.15370   0.23430   0.47750   0.01267  Uiso   1.00
C2     C     0.23050   0.16380   0.44240   0.01267  Uiso   1.00
C3     C     0.91780   0.18140   0.60260   0.01267  Uiso   1.00
C4     C     0.85220   0.12570   0.52070   0.01267  Uiso   1.00
C5     C     0.84630   0.76570   0.52250   0.01267  Uiso   1.00
C6     C     0.76950   0.83620   0.55760   0.01267  Uiso   1.00
C7     C     0.08220   0.81860   0.39740   0.01267  Uiso   1.00
C8     C     0.14780   0.87430   0.47930   0.01267  Uiso   1.00
O1     O     0.70010   0.33300   0.47670   0.01267  Uiso   1.00
O2     O     0.48090   0.35910   0.44740   0.01267  Uiso   1.00
O3     O     0.63890   0.50420   0.46630   0.01267  Uiso   1.00
O4     O     0.70440   0.38400   0.35220   0.01267  Uiso   1.00
O5     O     0.55260   0.23980   0.33540   0.01267  Uiso   1.00
O6     O     0.50230   0.39640   0.32210   0.01267  Uiso   1.00
O7     O     0.32900   0.22950   0.28360   0.01267  Uiso   1.00
O8     O     0.57720   0.27580   0.21500   0.01267  Uiso   1.00
O9     O     0.36890   0.27280   0.17270   0.01267  Uiso   1.00
O10    O     0.75670   0.40210   0.22840   0.01267  Uiso   1.00
O11    O     0.66390   0.54620   0.32290   0.01267  Uiso   1.00
O12    O     0.53710   0.43420   0.19340   0.01267  Uiso   1.00
O13    O     0.42820   0.34310   0.57360   0.01267  Uiso   1.00
O14    O     0.48410   0.74540   0.33080   0.01267  Uiso   1.00
O15    O     0.57470   0.62220   0.23210   0.01267  Uiso   1.00
O16    O     0.43350   0.56170   0.29170   0.01267  Uiso   1.00
O17    O     0.46700   0.51320   0.08340   0.01267  Uiso   1.00
O18    O     0.32280   0.42920   0.14140   0.01267  Uiso   1.00
O19    O     0.36380   0.62630   0.19190   0.01267  Uiso   1.00
O20    O     0.67670   0.30360   0.61210   0.01267  Uiso   1.00
O21    O     0.20830   0.57930   0.25270   0.01267  Uiso   1.00
O22    O     0.98950   0.50470   0.24370   0.01267  Uiso   1.00
O23    O     0.83310   0.45200   0.63210   0.01267  Uiso   1.00
O24    O     0.12280   0.39630   0.16290   0.01267  Uiso   1.00
O25    O     0.08120   0.36090   0.28230   0.01267  Uiso   1.00
O26    O     0.27410   0.40770   0.27260   0.01267  Uiso   1.00
O27    O     0.16860   0.23650   0.18360   0.01267  Uiso   1.00
O28    O     0.25950   0.35970   0.38940   0.01267  Uiso   1.00
O29    O     0.31840   0.20410   0.43700   0.01267  Uiso   1.00
O30    O     0.19680   0.32460   0.50420   0.01267  Uiso   1.00
O31    O     0.90180   0.26910   0.63110   0.01267  Uiso   1.00
O32    O     0.78110   0.17230   0.49660   0.01267  Uiso   1.00
O33    O     0.92920   0.33780   0.51820   0.01267  Uiso   1.00
O34    O     0.86860   0.04370   0.48520   0.01267  Uiso   1.00
O35    O     0.20070   0.07540   0.42140   0.01267  Uiso   1.00
O36    O     0.06160   0.20250   0.47820   0.01267  Uiso   1.00
O37    O     0.97790   0.13880   0.63330   0.01267  Uiso   1.00
O38    O     0.91180   0.54190   0.54020   0.01267  Uiso   1.00
O39    O     0.62420   0.95560   0.41660   0.01267  Uiso   1.00
O40    O     0.66670   0.37710   0.03830   0.01267  Uiso   1.00
O41    O     0.75890   0.57910   0.16940   0.01267  Uiso   1.00
O42    O     0.52590   0.15230   0.48590   0.01267  Uiso   1.00
O43    O     0.96510   0.02820   0.30350   0.01267  Uiso   1.00
O44    O     0.29990   0.66700   0.52330   0.01267  Uiso   1.00
O45    O     0.51910   0.64090   0.55260   0.01267  Uiso   1.00
O46    O     0.36110   0.49580   0.53370   0.01267  Uiso   1.00
O47    O     0.29560   0.61600   0.64780   0.01267  Uiso   1.00
O48    O     0.44740   0.76020   0.66460   0.01267  Uiso   1.00
O49    O     0.49770   0.60360   0.67790   0.01267  Uiso   1.00
O50    O     0.67100   0.77050   0.71640   0.01267  Uiso   1.00
O51    O     0.42280   0.72420   0.78500   0.01267  Uiso   1.00
O52    O     0.63110   0.72720   0.82730   0.01267  Uiso   1.00
O53    O     0.24330   0.59790   0.77160   0.01267  Uiso   1.00
O54    O     0.33610   0.45380   0.67710   0.01267  Uiso   1.00
O55    O     0.46290   0.56580   0.80660   0.01267  Uiso   1.00
O56    O     0.57180   0.65690   0.42640   0.01267  Uiso   1.00
O57    O     0.51590   0.25460   0.66920   0.01267  Uiso   1.00
O58    O     0.42530   0.37780   0.76790   0.01267  Uiso   1.00
O59    O     0.56650   0.43830   0.70830   0.01267  Uiso   1.00
O60    O     0.53300   0.48680   0.91660   0.01267  Uiso   1.00
O61    O     0.67720   0.57080   0.85860   0.01267  Uiso   1.00
O62    O     0.63620   0.37370   0.80810   0.01267  Uiso   1.00
O63    O     0.32330   0.69640   0.38790   0.01267  Uiso   1.00
O64    O     0.79170   0.42070   0.74730   0.01267  Uiso   1.00
O65    O     0.01050   0.49530   0.75630   0.01267  Uiso   1.00
O66    O     0.16690   0.54800   0.36790   0.01267  Uiso   1.00
O67    O     0.87720   0.60370   0.83710   0.01267  Uiso   1.00
O68    O     0.91880   0.63910   0.71770   0.01267  Uiso   1.00
O69    O     0.72590   0.59230   0.72740   0.01267  Uiso   1.00
O70    O     0.83140   0.76350   0.81640   0.01267  Uiso   1.00
O71    O     0.74050   0.64030   0.61060   0.01267  Uiso   1.00
O72    O     0.68160   0.79590   0.56300   0.01267  Uiso   1.00
O73    O     0.80320   0.67540   0.49580   0.01267  Uiso   1.00
O74    O     0.09820   0.73090   0.36890   0.01267  Uiso   1.00
O75    O     0.21890   0.82770   0.50340   0.01267  Uiso   1.00
O76    O     0.07080   0.66220   0.48180   0.01267  Uiso   1.00
O77    O     0.13140   0.95630   0.51480   0.01267  Uiso   1.00
O78    O     0.79930   0.92460   0.57860   0.01267  Uiso   1.00
O79    O     0.93840   0.79750   0.52180   0.01267  Uiso   1.00
O80    O     0.02210   0.86120   0.36670   0.01267  Uiso   1.00
O81    O     0.08820   0.45810   0.45980   0.01267  Uiso   1.00
O82    O     0.37580   0.04440   0.58340   0.01267  Uiso   1.00
O83    O     0.33330   0.62290   0.96170   0.01267  Uiso   1.00
O84    O     0.24110   0.42090   0.83060   0.01267  Uiso   1.00
O85    O     0.47410   0.84770   0.51410   0.01267  Uiso   1.00
O86    O     0.03490   0.97180   0.69650   0.01267  Uiso   1.00
