data_image0
_cell_length_a       17.5191
_cell_length_b       17.5191
_cell_length_c       15.163
_cell_angle_alpha    90
_cell_angle_beta     90
_cell_angle_gamma    90

_symmetry_space_group_name_H-M    "P 1"
_symmetry_int_tables_number       1

loop_
  _symmetry_equiv_pos_as_xyz
  'x, y, z'

loop_
  _atom_site_label
  _atom_site_occupancy
  _atom_site_fract_x
  _atom_site_fract_y
  _atom_site_fract_z
  _atom_site_thermal_displace_type
  _atom_site_B_iso_or_equiv
  _atom_site_type_symbol
  Co1      1.0000 0.90112  0.14164  0.96851  Biso   1.000  Co
  C1       1.0000 0.05260  0.12510  0.90330  Biso   1.000  C
  C2       1.0000 0.00680  0.14630  0.82170  Biso   1.000  C
  H1       1.0000 0.01990  0.11020  0.77300  Biso   1.000  H
  C3       1.0000 0.02920  0.22710  0.79430  Biso   1.000  C
  H2       1.0000 0.00180  0.24110  0.74040  Biso   1.000  H
  H3       1.0000 0.08430  0.22910  0.78340  Biso   1.000  H
  H4       1.0000 0.01590  0.26290  0.84150  Biso   1.000  H
  C4       1.0000 0.73690  0.14220  0.88910  Biso   1.000  C
  C5       1.0000 0.65370  0.13250  0.91170  Biso   1.000  C
  C6       1.0000 0.63160  0.12450  0.99930  Biso   1.000  C
  H5       1.0000 0.66890  0.12660  0.04470  Biso   1.000  H
  C7       1.0000 0.55510  0.11330  0.02060  Biso   1.000  C
  H6       1.0000 0.54050  0.10630  0.08040  Biso   1.000  H
  C8       1.0000 0.49970  0.11240  0.95430  Biso   1.000  C
  C9       1.0000 0.52210  0.12120  0.86710  Biso   1.000  C
  H7       1.0000 0.48480  0.12090  0.82160  Biso   1.000  H
  C10      1.0000 0.59870  0.13060  0.84590  Biso   1.000  C
  H8       1.0000 0.61350  0.13560  0.78600  Biso   1.000  H
  C11      1.0000 0.41710  0.10430  0.97670  Biso   1.000  C
  C12      1.0000 0.36680  0.06650  0.92110  Biso   1.000  C
  H9       1.0000 0.38510  0.04330  0.86860  Biso   1.000  H
  C13      1.0000 0.29010  0.06270  0.94180  Biso   1.000  C
  H10      1.0000 0.25680  0.03680  0.90250  Biso   1.000  H
  C14      1.0000 0.30910  0.12960  0.06950  Biso   1.000  C
  H11      1.0000 0.28920  0.15190  0.12170  Biso   1.000  H
  C15      1.0000 0.38630  0.13540  0.05380  Biso   1.000  C
  H12      1.0000 0.41850  0.16040  0.09510  Biso   1.000  H
  N1       1.0000 0.26057  0.09398  0.01492  Biso   1.000  N
  O1       1.0000 0.12363  0.11371  0.89667  Biso   1.000  O
  O2       1.0000 0.01969  0.12207  0.97695  Biso   1.000  O
  O3       1.0000 0.92794  0.13972  0.84133  Biso   1.000  O
  O4       1.0000 0.75235  0.14610  0.80792  Biso   1.000  O
  O5       1.0000 0.78401  0.14492  0.95070  Biso   1.000  O
  Co2      1.0000 0.09888  0.85836  0.96851  Biso   1.000  Co
  C16      1.0000 0.94740  0.87490  0.90330  Biso   1.000  C
  C17      1.0000 0.99320  0.85370  0.82170  Biso   1.000  C
  H13      1.0000 0.98010  0.88980  0.77300  Biso   1.000  H
  C18      1.0000 0.97080  0.77290  0.79430  Biso   1.000  C
  H14      1.0000 0.99820  0.75890  0.74040  Biso   1.000  H
  H15      1.0000 0.91570  0.77090  0.78340  Biso   1.000  H
  H16      1.0000 0.98410  0.73710  0.84150  Biso   1.000  H
  C19      1.0000 0.26310  0.85780  0.88910  Biso   1.000  C
  C20      1.0000 0.34630  0.86750  0.91170  Biso   1.000  C
  C21      1.0000 0.36840  0.87550  0.99930  Biso   1.000  C
  H17      1.0000 0.33110  0.87340  0.04470  Biso   1.000  H
  C22      1.0000 0.44490  0.88670  0.02060  Biso   1.000  C
  H18      1.0000 0.45950  0.89370  0.08040  Biso   1.000  H
  C23      1.0000 0.50030  0.88760  0.95430  Biso   1.000  C
  C24      1.0000 0.47790  0.87880  0.86710  Biso   1.000  C
  H19      1.0000 0.51520  0.87910  0.82160  Biso   1.000  H
  C25      1.0000 0.40130  0.86940  0.84590  Biso   1.000  C
  H20      1.0000 0.38650  0.86440  0.78600  Biso   1.000  H
  C26      1.0000 0.58290  0.89570  0.97670  Biso   1.000  C
  C27      1.0000 0.63320  0.93350  0.92110  Biso   1.000  C
  H21      1.0000 0.61490  0.95670  0.86860  Biso   1.000  H
  C28      1.0000 0.70990  0.93730  0.94180  Biso   1.000  C
  H22      1.0000 0.74320  0.96320  0.90250  Biso   1.000  H
  C29      1.0000 0.69090  0.87040  0.06950  Biso   1.000  C
  H23      1.0000 0.71080  0.84810  0.12170  Biso   1.000  H
  C30      1.0000 0.61370  0.86460  0.05380  Biso   1.000  C
  H24      1.0000 0.58150  0.83960  0.09510  Biso   1.000  H
  N2       1.0000 0.73943  0.90602  0.01492  Biso   1.000  N
  O6       1.0000 0.87637  0.88629  0.89667  Biso   1.000  O
  O7       1.0000 0.98031  0.87793  0.97695  Biso   1.000  O
  O8       1.0000 0.07206  0.86028  0.84133  Biso   1.000  O
  O9       1.0000 0.24765  0.85390  0.80792  Biso   1.000  O
  O10      1.0000 0.21599  0.85508  0.95070  Biso   1.000  O
  Co3      1.0000 0.14164  0.09888  0.03149  Biso   1.000  Co
  C31      1.0000 0.12510  0.94740  0.09670  Biso   1.000  C
  C32      1.0000 0.14630  0.99320  0.17830  Biso   1.000  C
  H25      1.0000 0.11020  0.98010  0.22700  Biso   1.000  H
  C33      1.0000 0.22710  0.97080  0.20570  Biso   1.000  C
  H26      1.0000 0.24110  0.99820  0.25960  Biso   1.000  H
  H27      1.0000 0.22910  0.91570  0.21660  Biso   1.000  H
  H28      1.0000 0.26290  0.98410  0.15850  Biso   1.000  H
  C34      1.0000 0.14220  0.26310  0.11090  Biso   1.000  C
  C35      1.0000 0.13250  0.34630  0.08830  Biso   1.000  C
  C36      1.0000 0.12450  0.36840  0.00070  Biso   1.000  C
  H29      1.0000 0.12660  0.33110  0.95530  Biso   1.000  H
  C37      1.0000 0.11330  0.44490  0.97940  Biso   1.000  C
  H30      1.0000 0.10630  0.45950  0.91960  Biso   1.000  H
  C38      1.0000 0.11240  0.50030  0.04570  Biso   1.000  C
  C39      1.0000 0.12120  0.47790  0.13290  Biso   1.000  C
  H31      1.0000 0.12090  0.51520  0.17840  Biso   1.000  H
  C40      1.0000 0.13060  0.40130  0.15410  Biso   1.000  C
  H32      1.0000 0.13560  0.38650  0.21400  Biso   1.000  H
  C41      1.0000 0.10430  0.58290  0.02330  Biso   1.000  C
  C42      1.0000 0.06650  0.63320  0.07890  Biso   1.000  C
  H33      1.0000 0.04330  0.61490  0.13140  Biso   1.000  H
  C43      1.0000 0.06270  0.70990  0.05820  Biso   1.000  C
  H34      1.0000 0.03680  0.74320  0.09750  Biso   1.000  H
  C44      1.0000 0.12960  0.69090  0.93050  Biso   1.000  C
  H35      1.0000 0.15190  0.71080  0.87830  Biso   1.000  H
  C45      1.0000 0.13540  0.61370  0.94620  Biso   1.000  C
  H36      1.0000 0.16040  0.58150  0.90490  Biso   1.000  H
  N3       1.0000 0.09398  0.73943  0.98508  Biso   1.000  N
  O11      1.0000 0.11371  0.87637  0.10333  Biso   1.000  O
  O12      1.0000 0.12207  0.98031  0.02305  Biso   1.000  O
  O13      1.0000 0.13972  0.07206  0.15867  Biso   1.000  O
  O14      1.0000 0.14610  0.24765  0.19208  Biso   1.000  O
  O15      1.0000 0.14492  0.21599  0.04930  Biso   1.000  O
  Co4      1.0000 0.85836  0.90112  0.03149  Biso   1.000  Co
  C46      1.0000 0.87490  0.05260  0.09670  Biso   1.000  C
  C47      1.0000 0.85370  0.00680  0.17830  Biso   1.000  C
  H37      1.0000 0.88980  0.01990  0.22700  Biso   1.000  H
  C48      1.0000 0.77290  0.02920  0.20570  Biso   1.000  C
  H38      1.0000 0.75890  0.00180  0.25960  Biso   1.000  H
  H39      1.0000 0.77090  0.08430  0.21660  Biso   1.000  H
  H40      1.0000 0.73710  0.01590  0.15850  Biso   1.000  H
  C49      1.0000 0.85780  0.73690  0.11090  Biso   1.000  C
  C50      1.0000 0.86750  0.65370  0.08830  Biso   1.000  C
  C51      1.0000 0.87550  0.63160  0.00070  Biso   1.000  C
  H41      1.0000 0.87340  0.66890  0.95530  Biso   1.000  H
  C52      1.0000 0.88670  0.55510  0.97940  Biso   1.000  C
  H42      1.0000 0.89370  0.54050  0.91960  Biso   1.000  H
  C53      1.0000 0.88760  0.49970  0.04570  Biso   1.000  C
  C54      1.0000 0.87880  0.52210  0.13290  Biso   1.000  C
  H43      1.0000 0.87910  0.48480  0.17840  Biso   1.000  H
  C55      1.0000 0.86940  0.59870  0.15410  Biso   1.000  C
  H44      1.0000 0.86440  0.61350  0.21400  Biso   1.000  H
  C56      1.0000 0.89570  0.41710  0.02330  Biso   1.000  C
  C57      1.0000 0.93350  0.36680  0.07890  Biso   1.000  C
  H45      1.0000 0.95670  0.38510  0.13140  Biso   1.000  H
  C58      1.0000 0.93730  0.29010  0.05820  Biso   1.000  C
  H46      1.0000 0.96320  0.25680  0.09750  Biso   1.000  H
  C59      1.0000 0.87040  0.30910  0.93050  Biso   1.000  C
  H47      1.0000 0.84810  0.28920  0.87830  Biso   1.000  H
  C60      1.0000 0.86460  0.38630  0.94620  Biso   1.000  C
  H48      1.0000 0.83960  0.41850  0.90490  Biso   1.000  H
  N4       1.0000 0.90602  0.26057  0.98508  Biso   1.000  N
  O16      1.0000 0.88629  0.12363  0.10333  Biso   1.000  O
  O17      1.0000 0.87793  0.01969  0.02305  Biso   1.000  O
  O18      1.0000 0.86028  0.92794  0.15867  Biso   1.000  O
  O19      1.0000 0.85390  0.75235  0.19208  Biso   1.000  O
  O20      1.0000 0.85508  0.78401  0.04930  Biso   1.000  O
  Co5      1.0000 0.90112  0.85836  0.46851  Biso   1.000  Co
  C61      1.0000 0.05260  0.87490  0.40330  Biso   1.000  C
  C62      1.0000 0.00680  0.85370  0.32170  Biso   1.000  C
  H49      1.0000 0.01990  0.88980  0.27300  Biso   1.000  H
  C63      1.0000 0.02920  0.77290  0.29430  Biso   1.000  C
  H50      1.0000 0.00180  0.75890  0.24040  Biso   1.000  H
  H51      1.0000 0.08430  0.77090  0.28340  Biso   1.000  H
  H52      1.0000 0.01590  0.73710  0.34150  Biso   1.000  H
  C64      1.0000 0.73690  0.85780  0.38910  Biso   1.000  C
  C65      1.0000 0.65370  0.86750  0.41170  Biso   1.000  C
  C66      1.0000 0.63160  0.87550  0.49930  Biso   1.000  C
  H53      1.0000 0.66890  0.87340  0.54470  Biso   1.000  H
  C67      1.0000 0.55510  0.88670  0.52060  Biso   1.000  C
  H54      1.0000 0.54050  0.89370  0.58040  Biso   1.000  H
  C68      1.0000 0.49970  0.88760  0.45430  Biso   1.000  C
  C69      1.0000 0.52210  0.87880  0.36710  Biso   1.000  C
  H55      1.0000 0.48480  0.87910  0.32160  Biso   1.000  H
  C70      1.0000 0.59870  0.86940  0.34590  Biso   1.000  C
  H56      1.0000 0.61350  0.86440  0.28600  Biso   1.000  H
  C71      1.0000 0.41710  0.89570  0.47670  Biso   1.000  C
  C72      1.0000 0.36680  0.93350  0.42110  Biso   1.000  C
  H57      1.0000 0.38510  0.95670  0.36860  Biso   1.000  H
  C73      1.0000 0.29010  0.93730  0.44180  Biso   1.000  C
  H58      1.0000 0.25680  0.96320  0.40250  Biso   1.000  H
  C74      1.0000 0.30910  0.87040  0.56950  Biso   1.000  C
  H59      1.0000 0.28920  0.84810  0.62170  Biso   1.000  H
  C75      1.0000 0.38630  0.86460  0.55380  Biso   1.000  C
  H60      1.0000 0.41850  0.83960  0.59510  Biso   1.000  H
  N5       1.0000 0.26057  0.90602  0.51492  Biso   1.000  N
  O21      1.0000 0.12363  0.88629  0.39667  Biso   1.000  O
  O22      1.0000 0.01969  0.87793  0.47695  Biso   1.000  O
  O23      1.0000 0.92794  0.86028  0.34133  Biso   1.000  O
  O24      1.0000 0.75235  0.85390  0.30792  Biso   1.000  O
  O25      1.0000 0.78401  0.85508  0.45070  Biso   1.000  O
  Co6      1.0000 0.09888  0.14164  0.46851  Biso   1.000  Co
  C76      1.0000 0.94740  0.12510  0.40330  Biso   1.000  C
  C77      1.0000 0.99320  0.14630  0.32170  Biso   1.000  C
  H61      1.0000 0.98010  0.11020  0.27300  Biso   1.000  H
  C78      1.0000 0.97080  0.22710  0.29430  Biso   1.000  C
  H62      1.0000 0.99820  0.24110  0.24040  Biso   1.000  H
  H63      1.0000 0.91570  0.22910  0.28340  Biso   1.000  H
  H64      1.0000 0.98410  0.26290  0.34150  Biso   1.000  H
  C79      1.0000 0.26310  0.14220  0.38910  Biso   1.000  C
  C80      1.0000 0.34630  0.13250  0.41170  Biso   1.000  C
  C81      1.0000 0.36840  0.12450  0.49930  Biso   1.000  C
  H65      1.0000 0.33110  0.12660  0.54470  Biso   1.000  H
  C82      1.0000 0.44490  0.11330  0.52060  Biso   1.000  C
  H66      1.0000 0.45950  0.10630  0.58040  Biso   1.000  H
  C83      1.0000 0.50030  0.11240  0.45430  Biso   1.000  C
  C84      1.0000 0.47790  0.12120  0.36710  Biso   1.000  C
  H67      1.0000 0.51520  0.12090  0.32160  Biso   1.000  H
  C85      1.0000 0.40130  0.13060  0.34590  Biso   1.000  C
  H68      1.0000 0.38650  0.13560  0.28600  Biso   1.000  H
  C86      1.0000 0.58290  0.10430  0.47670  Biso   1.000  C
  C87      1.0000 0.63320  0.06650  0.42110  Biso   1.000  C
  H69      1.0000 0.61490  0.04330  0.36860  Biso   1.000  H
  C88      1.0000 0.70990  0.06270  0.44180  Biso   1.000  C
  H70      1.0000 0.74320  0.03680  0.40250  Biso   1.000  H
  C89      1.0000 0.69090  0.12960  0.56950  Biso   1.000  C
  H71      1.0000 0.71080  0.15190  0.62170  Biso   1.000  H
  C90      1.0000 0.61370  0.13540  0.55380  Biso   1.000  C
  H72      1.0000 0.58150  0.16040  0.59510  Biso   1.000  H
  N6       1.0000 0.73943  0.09398  0.51492  Biso   1.000  N
  O26      1.0000 0.87637  0.11371  0.39667  Biso   1.000  O
  O27      1.0000 0.98031  0.12207  0.47695  Biso   1.000  O
  O28      1.0000 0.07206  0.13972  0.34133  Biso   1.000  O
  O29      1.0000 0.24765  0.14610  0.30792  Biso   1.000  O
  O30      1.0000 0.21599  0.14492  0.45070  Biso   1.000  O
  Co7      1.0000 0.14164  0.90112  0.53149  Biso   1.000  Co
  C91      1.0000 0.12510  0.05260  0.59670  Biso   1.000  C
  C92      1.0000 0.14630  0.00680  0.67830  Biso   1.000  C
  H73      1.0000 0.11020  0.01990  0.72700  Biso   1.000  H
  C93      1.0000 0.22710  0.02920  0.70570  Biso   1.000  C
  H74      1.0000 0.24110  0.00180  0.75960  Biso   1.000  H
  H75      1.0000 0.22910  0.08430  0.71660  Biso   1.000  H
  H76      1.0000 0.26290  0.01590  0.65850  Biso   1.000  H
  C94      1.0000 0.14220  0.73690  0.61090  Biso   1.000  C
  C95      1.0000 0.13250  0.65370  0.58830  Biso   1.000  C
  C96      1.0000 0.12450  0.63160  0.50070  Biso   1.000  C
  H77      1.0000 0.12660  0.66890  0.45530  Biso   1.000  H
  C97      1.0000 0.11330  0.55510  0.47940  Biso   1.000  C
  H78      1.0000 0.10630  0.54050  0.41960  Biso   1.000  H
  C98      1.0000 0.11240  0.49970  0.54570  Biso   1.000  C
  C99      1.0000 0.12120  0.52210  0.63290  Biso   1.000  C
  H79      1.0000 0.12090  0.48480  0.67840  Biso   1.000  H
  C100     1.0000 0.13060  0.59870  0.65410  Biso   1.000  C
  H80      1.0000 0.13560  0.61350  0.71400  Biso   1.000  H
  C101     1.0000 0.10430  0.41710  0.52330  Biso   1.000  C
  C102     1.0000 0.06650  0.36680  0.57890  Biso   1.000  C
  H81      1.0000 0.04330  0.38510  0.63140  Biso   1.000  H
  C103     1.0000 0.06270  0.29010  0.55820  Biso   1.000  C
  H82      1.0000 0.03680  0.25680  0.59750  Biso   1.000  H
  C104     1.0000 0.12960  0.30910  0.43050  Biso   1.000  C
  H83      1.0000 0.15190  0.28920  0.37830  Biso   1.000  H
  C105     1.0000 0.13540  0.38630  0.44620  Biso   1.000  C
  H84      1.0000 0.16040  0.41850  0.40490  Biso   1.000  H
  N7       1.0000 0.09398  0.26057  0.48508  Biso   1.000  N
  O31      1.0000 0.11371  0.12363  0.60333  Biso   1.000  O
  O32      1.0000 0.12207  0.01969  0.52305  Biso   1.000  O
  O33      1.0000 0.13972  0.92794  0.65867  Biso   1.000  O
  O34      1.0000 0.14610  0.75235  0.69208  Biso   1.000  O
  O35      1.0000 0.14492  0.78401  0.54930  Biso   1.000  O
  Co8      1.0000 0.85836  0.09888  0.53149  Biso   1.000  Co
  C106     1.0000 0.87490  0.94740  0.59670  Biso   1.000  C
  C107     1.0000 0.85370  0.99320  0.67830  Biso   1.000  C
  H85      1.0000 0.88980  0.98010  0.72700  Biso   1.000  H
  C108     1.0000 0.77290  0.97080  0.70570  Biso   1.000  C
  H86      1.0000 0.75890  0.99820  0.75960  Biso   1.000  H
  H87      1.0000 0.77090  0.91570  0.71660  Biso   1.000  H
  H88      1.0000 0.73710  0.98410  0.65850  Biso   1.000  H
  C109     1.0000 0.85780  0.26310  0.61090  Biso   1.000  C
  C110     1.0000 0.86750  0.34630  0.58830  Biso   1.000  C
  C111     1.0000 0.87550  0.36840  0.50070  Biso   1.000  C
  H89      1.0000 0.87340  0.33110  0.45530  Biso   1.000  H
  C112     1.0000 0.88670  0.44490  0.47940  Biso   1.000  C
  H90      1.0000 0.89370  0.45950  0.41960  Biso   1.000  H
  C113     1.0000 0.88760  0.50030  0.54570  Biso   1.000  C
  C114     1.0000 0.87880  0.47790  0.63290  Biso   1.000  C
  H91      1.0000 0.87910  0.51520  0.67840  Biso   1.000  H
  C115     1.0000 0.86940  0.40130  0.65410  Biso   1.000  C
  H92      1.0000 0.86440  0.38650  0.71400  Biso   1.000  H
  C116     1.0000 0.89570  0.58290  0.52330  Biso   1.000  C
  C117     1.0000 0.93350  0.63320  0.57890  Biso   1.000  C
  H93      1.0000 0.95670  0.61490  0.63140  Biso   1.000  H
  C118     1.0000 0.93730  0.70990  0.55820  Biso   1.000  C
  H94      1.0000 0.96320  0.74320  0.59750  Biso   1.000  H
  C119     1.0000 0.87040  0.69090  0.43050  Biso   1.000  C
  H95      1.0000 0.84810  0.71080  0.37830  Biso   1.000  H
  C120     1.0000 0.86460  0.61370  0.44620  Biso   1.000  C
  H96      1.0000 0.83960  0.58150  0.40490  Biso   1.000  H
  N8       1.0000 0.90602  0.73943  0.48508  Biso   1.000  N
  O36      1.0000 0.88629  0.87637  0.60333  Biso   1.000  O
  O37      1.0000 0.87793  0.98031  0.52305  Biso   1.000  O
  O38      1.0000 0.86028  0.07206  0.65867  Biso   1.000  O
  O39      1.0000 0.85390  0.24765  0.69208  Biso   1.000  O
  O40      1.0000 0.85508  0.21599  0.54930  Biso   1.000  O
  Co9      1.0000 0.85290  0.14710  0.75000  Biso   1.000  Co
  Co10     1.0000 0.14710  0.85290  0.75000  Biso   1.000  Co
  Co11     1.0000 0.14710  0.14710  0.25000  Biso   1.000  Co
  Co12     1.0000 0.85290  0.85290  0.25000  Biso   1.000  Co
