data_image0
_cell_length_a       6.6103
_cell_length_b       17.8984
_cell_length_c       11.0989
_cell_angle_alpha    90
_cell_angle_beta     91.2461
_cell_angle_gamma    90

_symmetry_space_group_name_H-M    "P 1"
_symmetry_int_tables_number       1

loop_
  _symmetry_equiv_pos_as_xyz
  'x, y, z'

loop_
  _atom_site_label
  _atom_site_occupancy
  _atom_site_fract_x
  _atom_site_fract_y
  _atom_site_fract_z
  _atom_site_thermal_displace_type
  _atom_site_B_iso_or_equiv
  _atom_site_type_symbol
  Al1      1.0000 0.22970  0.22389  0.25430  Biso   1.000  Al
  O1       1.0000 0.98740  0.22100  0.15510  Biso   1.000  O
  O2       1.0000 0.82400  0.64920  0.62070  Biso   1.000  O
  O3       1.0000 0.36450  0.14520  0.16830  Biso   1.000  O
  O4       1.0000 0.16600  0.30830  0.35570  Biso   1.000  O
  O5       1.0000 0.67140  0.79650  0.85850  Biso   1.000  O
  Al2      1.0000 0.24570  0.72322  0.75430  Biso   1.000  Al
  O6       1.0000 0.49710  0.73240  0.67930  Biso   1.000  O
  O7       1.0000 0.36370  0.79573  0.86050  Biso   1.000  O
  O8       1.0000 0.88480  0.29850  0.34400  Biso   1.000  O
  O9       1.0000 0.68150  0.13970  0.15750  Biso   1.000  O
  O10      1.0000 0.18180  0.65050  0.63680  Biso   1.000  O
  C1       1.0000 0.32103  0.94358  0.95644  Biso   1.000  C
  C2       1.0000 0.33283  0.00499  0.05082  Biso   1.000  C
  C3       1.0000 0.70338  0.01674  0.01976  Biso   1.000  C
  C4       1.0000 0.68886  0.95637  0.92428  Biso   1.000  C
  C5       1.0000 0.52012  0.90130  0.95041  Biso   1.000  C
  C6       1.0000 0.50545  0.05897  0.02702  Biso   1.000  C
  C7       1.0000 0.51601  0.84025  0.85751  Biso   1.000  C
  C8       1.0000 0.51191  0.12283  0.11526  Biso   1.000  C
  C9       1.0000 0.84598  0.51030  0.56757  Biso   1.000  C
  C10      1.0000 0.82168  0.44130  0.48900  Biso   1.000  C
  C11      1.0000 0.16799  0.45824  0.41621  Biso   1.000  C
  C12      1.0000 0.19568  0.52875  0.49219  Biso   1.000  C
  C13      1.0000 0.99478  0.56649  0.51694  Biso   1.000  C
  C14      1.0000 0.02489  0.40370  0.47570  Biso   1.000  C
  C15      1.0000 0.00909  0.63377  0.59867  Biso   1.000  C
  C16      1.0000 0.01624  0.32925  0.41261  Biso   1.000  C
  Al3      1.0000 0.77030  0.72389  0.74570  Biso   1.000  Al
  O11      1.0000 0.01260  0.72100  0.84490  Biso   1.000  O
  O12      1.0000 0.17600  0.14920  0.37930  Biso   1.000  O
  O13      1.0000 0.63550  0.64520  0.83170  Biso   1.000  O
  O14      1.0000 0.83400  0.80830  0.64430  Biso   1.000  O
  O15      1.0000 0.32860  0.29650  0.14150  Biso   1.000  O
  Al4      1.0000 0.75430  0.22322  0.24570  Biso   1.000  Al
  O16      1.0000 0.50290  0.23240  0.32070  Biso   1.000  O
  O17      1.0000 0.63630  0.29573  0.13950  Biso   1.000  O
  O18      1.0000 0.11520  0.79850  0.65600  Biso   1.000  O
  O19      1.0000 0.31850  0.63970  0.84250  Biso   1.000  O
  O20      1.0000 0.81820  0.15050  0.36320  Biso   1.000  O
  C17      1.0000 0.67897  0.44358  0.04356  Biso   1.000  C
  C18      1.0000 0.66717  0.50499  0.94918  Biso   1.000  C
  C19      1.0000 0.29662  0.51674  0.98024  Biso   1.000  C
  C20      1.0000 0.31114  0.45637  0.07572  Biso   1.000  C
  C21      1.0000 0.47988  0.40130  0.04959  Biso   1.000  C
  C22      1.0000 0.49455  0.55897  0.97298  Biso   1.000  C
  C23      1.0000 0.48399  0.34025  0.14249  Biso   1.000  C
  C24      1.0000 0.48809  0.62283  0.88474  Biso   1.000  C
  C25      1.0000 0.15402  0.01030  0.43243  Biso   1.000  C
  C26      1.0000 0.17832  0.94130  0.51100  Biso   1.000  C
  C27      1.0000 0.83201  0.95824  0.58379  Biso   1.000  C
  C28      1.0000 0.80432  0.02875  0.50781  Biso   1.000  C
  C29      1.0000 0.00522  0.06649  0.48306  Biso   1.000  C
  C30      1.0000 0.97511  0.90370  0.52430  Biso   1.000  C
  C31      1.0000 0.99091  0.13377  0.40133  Biso   1.000  C
  C32      1.0000 0.98376  0.82925  0.58739  Biso   1.000  C
