data_image0
_cell_length_a       22.696
_cell_length_b       12.696
_cell_length_c       16.126
_cell_angle_alpha    90
_cell_angle_beta     90
_cell_angle_gamma    90

_symmetry_space_group_name_H-M    "P 1"
_symmetry_int_tables_number       1

loop_
  _symmetry_equiv_pos_as_xyz
  'x, y, z'

loop_
  _atom_site_label
  _atom_site_occupancy
  _atom_site_fract_x
  _atom_site_fract_y
  _atom_site_fract_z
  _atom_site_thermal_displace_type
  _atom_site_B_iso_or_equiv
  _atom_site_type_symbol
  Fe1      1.0000 0.51950  0.28810  0.11868  Biso   1.000  Fe
  Fe2      1.0000 0.26261  0.39886  0.00064  Biso   1.000  Fe
  N1       1.0000 0.48950  0.11730  0.13710  Biso   1.000  N
  N2       1.0000 0.58975  0.19230  0.06630  Biso   1.000  N
  N3       1.0000 0.62910  0.02950  0.05730  Biso   1.000  N
  N4       1.0000 0.67060  0.10110  0.03290  Biso   1.000  N
  N5       1.0000 0.74080  0.26640  0.00320  Biso   1.000  N
  N6       1.0000 0.67167  0.38860  0.02500  Biso   1.000  N
  N7       1.0000 0.72420  0.43790  0.00770  Biso   1.000  N
  N8       1.0000 0.29190  0.37770  0.86720  Biso   1.000  N
  N9       1.0000 0.35310  0.35880  0.00850  Biso   1.000  N
  N10      1.0000 0.43650  0.30720  0.94500  Biso   1.000  N
  N11      1.0000 0.44652  0.30910  0.02820  Biso   1.000  N
  N12      1.0000 0.34720  0.36750  0.20060  Biso   1.000  N
  N13      1.0000 0.44325  0.33170  0.19590  Biso   1.000  N
  N14      1.0000 0.42740  0.33710  0.27810  Biso   1.000  N
  C1       1.0000 0.43800  0.08330  0.16550  Biso   1.000  C
  H1       1.0000 0.41160  0.13300  0.18570  Biso   1.000  H
  C2       1.0000 0.42130  0.97950  0.16710  Biso   1.000  C
  H2       1.0000 0.38480  0.96010  0.18840  Biso   1.000  H
  C3       1.0000 0.45920  0.90500  0.13690  Biso   1.000  C
  H3       1.0000 0.44850  0.83430  0.13630  Biso   1.000  H
  C4       1.0000 0.51380  0.93660  0.10710  Biso   1.000  C
  H4       1.0000 0.54100  0.88780  0.08760  Biso   1.000  H
  C5       1.0000 0.52640  0.04430  0.10740  Biso   1.000  C
  C6       1.0000 0.58230  0.08700  0.07600  Biso   1.000  C
  C7       1.0000 0.64580  0.19630  0.04040  Biso   1.000  C
  C8       1.0000 0.68360  0.28670  0.02200  Biso   1.000  C
  C9       1.0000 0.76410  0.36290  0.99690  Biso   1.000  C
  H5       1.0000 0.80370  0.37590  0.98630  Biso   1.000  H
  C10      1.0000 0.25880  0.38840  0.79960  Biso   1.000  C
  H6       1.0000 0.21990  0.41010  0.80610  Biso   1.000  H
  C11      1.0000 0.27920  0.36910  0.72060  Biso   1.000  C
  H7       1.0000 0.25480  0.37660  0.67470  Biso   1.000  H
  C12      1.0000 0.33780  0.33810  0.71190  Biso   1.000  C
  H8       1.0000 0.35320  0.32470  0.65950  Biso   1.000  H
  C13      1.0000 0.37290  0.32710  0.78120  Biso   1.000  C
  H9       1.0000 0.41220  0.30760  0.77620  Biso   1.000  H
  C14      1.0000 0.34820  0.34600  0.85840  Biso   1.000  C
  C15      1.0000 0.38140  0.33680  0.93660  Biso   1.000  C
  C16      1.0000 0.39640  0.33950  0.06430  Biso   1.000  C
  C17      1.0000 0.39430  0.35030  0.15400  Biso   1.000  C
  C18      1.0000 0.37090  0.35950  0.27650  Biso   1.000  C
  H10      1.0000 0.34890  0.36900  0.32450  Biso   1.000  H
  Fe3      1.0000 0.98050  0.21190  0.61868  Biso   1.000  Fe
  Fe4      1.0000 0.23739  0.10114  0.50064  Biso   1.000  Fe
  N15      1.0000 0.01050  0.38270  0.63710  Biso   1.000  N
  N16      1.0000 0.91025  0.30770  0.56630  Biso   1.000  N
  N17      1.0000 0.87090  0.47050  0.55730  Biso   1.000  N
  N18      1.0000 0.82940  0.39890  0.53290  Biso   1.000  N
  N19      1.0000 0.75920  0.23360  0.50320  Biso   1.000  N
  N20      1.0000 0.82833  0.11140  0.52500  Biso   1.000  N
  N21      1.0000 0.77580  0.06210  0.50770  Biso   1.000  N
  N22      1.0000 0.20810  0.12230  0.36720  Biso   1.000  N
  N23      1.0000 0.14690  0.14120  0.50850  Biso   1.000  N
  N24      1.0000 0.06350  0.19280  0.44500  Biso   1.000  N
  N25      1.0000 0.05348  0.19090  0.52820  Biso   1.000  N
  N26      1.0000 0.15280  0.13250  0.70060  Biso   1.000  N
  N27      1.0000 0.05675  0.16830  0.69590  Biso   1.000  N
  N28      1.0000 0.07260  0.16290  0.77810  Biso   1.000  N
  C19      1.0000 0.06200  0.41670  0.66550  Biso   1.000  C
  H11      1.0000 0.08840  0.36700  0.68570  Biso   1.000  H
  C20      1.0000 0.07870  0.52050  0.66710  Biso   1.000  C
  H12      1.0000 0.11520  0.53990  0.68840  Biso   1.000  H
  C21      1.0000 0.04080  0.59500  0.63690  Biso   1.000  C
  H13      1.0000 0.05150  0.66570  0.63630  Biso   1.000  H
  C22      1.0000 0.98620  0.56340  0.60710  Biso   1.000  C
  H14      1.0000 0.95900  0.61220  0.58760  Biso   1.000  H
  C23      1.0000 0.97360  0.45570  0.60740  Biso   1.000  C
  C24      1.0000 0.91770  0.41300  0.57600  Biso   1.000  C
  C25      1.0000 0.85420  0.30370  0.54040  Biso   1.000  C
  C26      1.0000 0.81640  0.21330  0.52200  Biso   1.000  C
  C27      1.0000 0.73590  0.13710  0.49690  Biso   1.000  C
  H15      1.0000 0.69630  0.12410  0.48630  Biso   1.000  H
  C28      1.0000 0.24120  0.11160  0.29960  Biso   1.000  C
  H16      1.0000 0.28010  0.08990  0.30610  Biso   1.000  H
  C29      1.0000 0.22080  0.13090  0.22060  Biso   1.000  C
  H17      1.0000 0.24520  0.12340  0.17470  Biso   1.000  H
  C30      1.0000 0.16220  0.16190  0.21190  Biso   1.000  C
  H18      1.0000 0.14680  0.17530  0.15950  Biso   1.000  H
  C31      1.0000 0.12710  0.17290  0.28120  Biso   1.000  C
  H19      1.0000 0.08780  0.19240  0.27620  Biso   1.000  H
  C32      1.0000 0.15180  0.15400  0.35840  Biso   1.000  C
  C33      1.0000 0.11860  0.16320  0.43660  Biso   1.000  C
  C34      1.0000 0.10360  0.16050  0.56430  Biso   1.000  C
  C35      1.0000 0.10570  0.14970  0.65400  Biso   1.000  C
  C36      1.0000 0.12910  0.14050  0.77650  Biso   1.000  C
  H20      1.0000 0.15110  0.13100  0.82450  Biso   1.000  H
  Fe5      1.0000 0.48050  0.28810  0.38132  Biso   1.000  Fe
  Fe6      1.0000 0.73739  0.39886  0.49936  Biso   1.000  Fe
  N29      1.0000 0.51050  0.11730  0.36290  Biso   1.000  N
  N30      1.0000 0.41025  0.19230  0.43370  Biso   1.000  N
  N31      1.0000 0.37090  0.02950  0.44270  Biso   1.000  N
  N32      1.0000 0.32940  0.10110  0.46710  Biso   1.000  N
  N33      1.0000 0.25920  0.26640  0.49680  Biso   1.000  N
  N34      1.0000 0.32833  0.38860  0.47500  Biso   1.000  N
  N35      1.0000 0.27580  0.43790  0.49230  Biso   1.000  N
  N36      1.0000 0.70810  0.37770  0.63280  Biso   1.000  N
  N37      1.0000 0.64690  0.35880  0.49150  Biso   1.000  N
  N38      1.0000 0.56350  0.30720  0.55500  Biso   1.000  N
  N39      1.0000 0.55348  0.30910  0.47180  Biso   1.000  N
  N40      1.0000 0.65280  0.36750  0.29940  Biso   1.000  N
  N41      1.0000 0.55675  0.33170  0.30410  Biso   1.000  N
  N42      1.0000 0.57260  0.33710  0.22190  Biso   1.000  N
  C37      1.0000 0.56200  0.08330  0.33450  Biso   1.000  C
  H21      1.0000 0.58840  0.13300  0.31430  Biso   1.000  H
  C38      1.0000 0.57870  0.97950  0.33290  Biso   1.000  C
  H22      1.0000 0.61520  0.96010  0.31160  Biso   1.000  H
  C39      1.0000 0.54080  0.90500  0.36310  Biso   1.000  C
  H23      1.0000 0.55150  0.83430  0.36370  Biso   1.000  H
  C40      1.0000 0.48620  0.93660  0.39290  Biso   1.000  C
  H24      1.0000 0.45900  0.88780  0.41240  Biso   1.000  H
  C41      1.0000 0.47360  0.04430  0.39260  Biso   1.000  C
  C42      1.0000 0.41770  0.08700  0.42400  Biso   1.000  C
  C43      1.0000 0.35420  0.19630  0.45960  Biso   1.000  C
  C44      1.0000 0.31640  0.28670  0.47800  Biso   1.000  C
  C45      1.0000 0.23590  0.36290  0.50310  Biso   1.000  C
  H25      1.0000 0.19630  0.37590  0.51370  Biso   1.000  H
  C46      1.0000 0.74120  0.38840  0.70040  Biso   1.000  C
  H26      1.0000 0.78010  0.41010  0.69390  Biso   1.000  H
  C47      1.0000 0.72080  0.36910  0.77940  Biso   1.000  C
  H27      1.0000 0.74520  0.37660  0.82530  Biso   1.000  H
  C48      1.0000 0.66220  0.33810  0.78810  Biso   1.000  C
  H28      1.0000 0.64680  0.32470  0.84050  Biso   1.000  H
  C49      1.0000 0.62710  0.32710  0.71880  Biso   1.000  C
  H29      1.0000 0.58780  0.30760  0.72380  Biso   1.000  H
  C50      1.0000 0.65180  0.34600  0.64160  Biso   1.000  C
  C51      1.0000 0.61860  0.33680  0.56340  Biso   1.000  C
  C52      1.0000 0.60360  0.33950  0.43570  Biso   1.000  C
  C53      1.0000 0.60570  0.35030  0.34600  Biso   1.000  C
  C54      1.0000 0.62910  0.35950  0.22350  Biso   1.000  C
  H30      1.0000 0.65110  0.36900  0.17550  Biso   1.000  H
  Fe7      1.0000 0.01950  0.21190  0.88132  Biso   1.000  Fe
  Fe8      1.0000 0.76261  0.10114  0.99936  Biso   1.000  Fe
  N43      1.0000 0.98950  0.38270  0.86290  Biso   1.000  N
  N44      1.0000 0.08975  0.30770  0.93370  Biso   1.000  N
  N45      1.0000 0.12910  0.47050  0.94270  Biso   1.000  N
  N46      1.0000 0.17060  0.39890  0.96710  Biso   1.000  N
  N47      1.0000 0.24080  0.23360  0.99680  Biso   1.000  N
  N48      1.0000 0.17167  0.11140  0.97500  Biso   1.000  N
  N49      1.0000 0.22420  0.06210  0.99230  Biso   1.000  N
  N50      1.0000 0.79190  0.12230  0.13280  Biso   1.000  N
  N51      1.0000 0.85310  0.14120  0.99150  Biso   1.000  N
  N52      1.0000 0.93650  0.19280  0.05500  Biso   1.000  N
  N53      1.0000 0.94652  0.19090  0.97180  Biso   1.000  N
  N54      1.0000 0.84720  0.13250  0.79940  Biso   1.000  N
  N55      1.0000 0.94325  0.16830  0.80410  Biso   1.000  N
  N56      1.0000 0.92740  0.16290  0.72190  Biso   1.000  N
  C55      1.0000 0.93800  0.41670  0.83450  Biso   1.000  C
  H31      1.0000 0.91160  0.36700  0.81430  Biso   1.000  H
  C56      1.0000 0.92130  0.52050  0.83290  Biso   1.000  C
  H32      1.0000 0.88480  0.53990  0.81160  Biso   1.000  H
  C57      1.0000 0.95920  0.59500  0.86310  Biso   1.000  C
  H33      1.0000 0.94850  0.66570  0.86370  Biso   1.000  H
  C58      1.0000 0.01380  0.56340  0.89290  Biso   1.000  C
  H34      1.0000 0.04100  0.61220  0.91240  Biso   1.000  H
  C59      1.0000 0.02640  0.45570  0.89260  Biso   1.000  C
  C60      1.0000 0.08230  0.41300  0.92400  Biso   1.000  C
  C61      1.0000 0.14580  0.30370  0.95960  Biso   1.000  C
  C62      1.0000 0.18360  0.21330  0.97800  Biso   1.000  C
  C63      1.0000 0.26410  0.13710  0.00310  Biso   1.000  C
  H35      1.0000 0.30370  0.12410  0.01370  Biso   1.000  H
  C64      1.0000 0.75880  0.11160  0.20040  Biso   1.000  C
  H36      1.0000 0.71990  0.08990  0.19390  Biso   1.000  H
  C65      1.0000 0.77920  0.13090  0.27940  Biso   1.000  C
  H37      1.0000 0.75480  0.12340  0.32530  Biso   1.000  H
  C66      1.0000 0.83780  0.16190  0.28810  Biso   1.000  C
  H38      1.0000 0.85320  0.17530  0.34050  Biso   1.000  H
  C67      1.0000 0.87290  0.17290  0.21880  Biso   1.000  C
  H39      1.0000 0.91220  0.19240  0.22380  Biso   1.000  H
  C68      1.0000 0.84820  0.15400  0.14160  Biso   1.000  C
  C69      1.0000 0.88140  0.16320  0.06340  Biso   1.000  C
  C70      1.0000 0.89640  0.16050  0.93570  Biso   1.000  C
  C71      1.0000 0.89430  0.14970  0.84600  Biso   1.000  C
  C72      1.0000 0.87090  0.14050  0.72350  Biso   1.000  C
  H40      1.0000 0.84890  0.13100  0.67550  Biso   1.000  H
  Fe9      1.0000 0.48050  0.71190  0.88132  Biso   1.000  Fe
  Fe10     1.0000 0.73739  0.60114  0.99936  Biso   1.000  Fe
  N57      1.0000 0.51050  0.88270  0.86290  Biso   1.000  N
  N58      1.0000 0.41025  0.80770  0.93370  Biso   1.000  N
  N59      1.0000 0.37090  0.97050  0.94270  Biso   1.000  N
  N60      1.0000 0.32940  0.89890  0.96710  Biso   1.000  N
  N61      1.0000 0.25920  0.73360  0.99680  Biso   1.000  N
  N62      1.0000 0.32833  0.61140  0.97500  Biso   1.000  N
  N63      1.0000 0.27580  0.56210  0.99230  Biso   1.000  N
  N64      1.0000 0.70810  0.62230  0.13280  Biso   1.000  N
  N65      1.0000 0.64690  0.64120  0.99150  Biso   1.000  N
  N66      1.0000 0.56350  0.69280  0.05500  Biso   1.000  N
  N67      1.0000 0.55348  0.69090  0.97180  Biso   1.000  N
  N68      1.0000 0.65280  0.63250  0.79940  Biso   1.000  N
  N69      1.0000 0.55675  0.66830  0.80410  Biso   1.000  N
  N70      1.0000 0.57260  0.66290  0.72190  Biso   1.000  N
  C73      1.0000 0.56200  0.91670  0.83450  Biso   1.000  C
  H41      1.0000 0.58840  0.86700  0.81430  Biso   1.000  H
  C74      1.0000 0.57870  0.02050  0.83290  Biso   1.000  C
  H42      1.0000 0.61520  0.03990  0.81160  Biso   1.000  H
  C75      1.0000 0.54080  0.09500  0.86310  Biso   1.000  C
  H43      1.0000 0.55150  0.16570  0.86370  Biso   1.000  H
  C76      1.0000 0.48620  0.06340  0.89290  Biso   1.000  C
  H44      1.0000 0.45900  0.11220  0.91240  Biso   1.000  H
  C77      1.0000 0.47360  0.95570  0.89260  Biso   1.000  C
  C78      1.0000 0.41770  0.91300  0.92400  Biso   1.000  C
  C79      1.0000 0.35420  0.80370  0.95960  Biso   1.000  C
  C80      1.0000 0.31640  0.71330  0.97800  Biso   1.000  C
  C81      1.0000 0.23590  0.63710  0.00310  Biso   1.000  C
  H45      1.0000 0.19630  0.62410  0.01370  Biso   1.000  H
  C82      1.0000 0.74120  0.61160  0.20040  Biso   1.000  C
  H46      1.0000 0.78010  0.58990  0.19390  Biso   1.000  H
  C83      1.0000 0.72080  0.63090  0.27940  Biso   1.000  C
  H47      1.0000 0.74520  0.62340  0.32530  Biso   1.000  H
  C84      1.0000 0.66220  0.66190  0.28810  Biso   1.000  C
  H48      1.0000 0.64680  0.67530  0.34050  Biso   1.000  H
  C85      1.0000 0.62710  0.67290  0.21880  Biso   1.000  C
  H49      1.0000 0.58780  0.69240  0.22380  Biso   1.000  H
  C86      1.0000 0.65180  0.65400  0.14160  Biso   1.000  C
  C87      1.0000 0.61860  0.66320  0.06340  Biso   1.000  C
  C88      1.0000 0.60360  0.66050  0.93570  Biso   1.000  C
  C89      1.0000 0.60570  0.64970  0.84600  Biso   1.000  C
  C90      1.0000 0.62910  0.64050  0.72350  Biso   1.000  C
  H50      1.0000 0.65110  0.63100  0.67550  Biso   1.000  H
  Fe11     1.0000 0.01950  0.78810  0.38132  Biso   1.000  Fe
  Fe12     1.0000 0.76261  0.89886  0.49936  Biso   1.000  Fe
  N71      1.0000 0.98950  0.61730  0.36290  Biso   1.000  N
  N72      1.0000 0.08975  0.69230  0.43370  Biso   1.000  N
  N73      1.0000 0.12910  0.52950  0.44270  Biso   1.000  N
  N74      1.0000 0.17060  0.60110  0.46710  Biso   1.000  N
  N75      1.0000 0.24080  0.76640  0.49680  Biso   1.000  N
  N76      1.0000 0.17167  0.88860  0.47500  Biso   1.000  N
  N77      1.0000 0.22420  0.93790  0.49230  Biso   1.000  N
  N78      1.0000 0.79190  0.87770  0.63280  Biso   1.000  N
  N79      1.0000 0.85310  0.85880  0.49150  Biso   1.000  N
  N80      1.0000 0.93650  0.80720  0.55500  Biso   1.000  N
  N81      1.0000 0.94652  0.80910  0.47180  Biso   1.000  N
  N82      1.0000 0.84720  0.86750  0.29940  Biso   1.000  N
  N83      1.0000 0.94325  0.83170  0.30410  Biso   1.000  N
  N84      1.0000 0.92740  0.83710  0.22190  Biso   1.000  N
  C91      1.0000 0.93800  0.58330  0.33450  Biso   1.000  C
  H51      1.0000 0.91160  0.63300  0.31430  Biso   1.000  H
  C92      1.0000 0.92130  0.47950  0.33290  Biso   1.000  C
  H52      1.0000 0.88480  0.46010  0.31160  Biso   1.000  H
  C93      1.0000 0.95920  0.40500  0.36310  Biso   1.000  C
  H53      1.0000 0.94850  0.33430  0.36370  Biso   1.000  H
  C94      1.0000 0.01380  0.43660  0.39290  Biso   1.000  C
  H54      1.0000 0.04100  0.38780  0.41240  Biso   1.000  H
  C95      1.0000 0.02640  0.54430  0.39260  Biso   1.000  C
  C96      1.0000 0.08230  0.58700  0.42400  Biso   1.000  C
  C97      1.0000 0.14580  0.69630  0.45960  Biso   1.000  C
  C98      1.0000 0.18360  0.78670  0.47800  Biso   1.000  C
  C99      1.0000 0.26410  0.86290  0.50310  Biso   1.000  C
  H55      1.0000 0.30370  0.87590  0.51370  Biso   1.000  H
  C100     1.0000 0.75880  0.88840  0.70040  Biso   1.000  C
  H56      1.0000 0.71990  0.91010  0.69390  Biso   1.000  H
  C101     1.0000 0.77920  0.86910  0.77940  Biso   1.000  C
  H57      1.0000 0.75480  0.87660  0.82530  Biso   1.000  H
  C102     1.0000 0.83780  0.83810  0.78810  Biso   1.000  C
  H58      1.0000 0.85320  0.82470  0.84050  Biso   1.000  H
  C103     1.0000 0.87290  0.82710  0.71880  Biso   1.000  C
  H59      1.0000 0.91220  0.80760  0.72380  Biso   1.000  H
  C104     1.0000 0.84820  0.84600  0.64160  Biso   1.000  C
  C105     1.0000 0.88140  0.83680  0.56340  Biso   1.000  C
  C106     1.0000 0.89640  0.83950  0.43570  Biso   1.000  C
  C107     1.0000 0.89430  0.85030  0.34600  Biso   1.000  C
  C108     1.0000 0.87090  0.85950  0.22350  Biso   1.000  C
  H60      1.0000 0.84890  0.86900  0.17550  Biso   1.000  H
  Fe13     1.0000 0.51950  0.71190  0.61868  Biso   1.000  Fe
  Fe14     1.0000 0.26261  0.60114  0.50064  Biso   1.000  Fe
  N85      1.0000 0.48950  0.88270  0.63710  Biso   1.000  N
  N86      1.0000 0.58975  0.80770  0.56630  Biso   1.000  N
  N87      1.0000 0.62910  0.97050  0.55730  Biso   1.000  N
  N88      1.0000 0.67060  0.89890  0.53290  Biso   1.000  N
  N89      1.0000 0.74080  0.73360  0.50320  Biso   1.000  N
  N90      1.0000 0.67167  0.61140  0.52500  Biso   1.000  N
  N91      1.0000 0.72420  0.56210  0.50770  Biso   1.000  N
  N92      1.0000 0.29190  0.62230  0.36720  Biso   1.000  N
  N93      1.0000 0.35310  0.64120  0.50850  Biso   1.000  N
  N94      1.0000 0.43650  0.69280  0.44500  Biso   1.000  N
  N95      1.0000 0.44652  0.69090  0.52820  Biso   1.000  N
  N96      1.0000 0.34720  0.63250  0.70060  Biso   1.000  N
  N97      1.0000 0.44325  0.66830  0.69590  Biso   1.000  N
  N98      1.0000 0.42740  0.66290  0.77810  Biso   1.000  N
  C109     1.0000 0.43800  0.91670  0.66550  Biso   1.000  C
  H61      1.0000 0.41160  0.86700  0.68570  Biso   1.000  H
  C110     1.0000 0.42130  0.02050  0.66710  Biso   1.000  C
  H62      1.0000 0.38480  0.03990  0.68840  Biso   1.000  H
  C111     1.0000 0.45920  0.09500  0.63690  Biso   1.000  C
  H63      1.0000 0.44850  0.16570  0.63630  Biso   1.000  H
  C112     1.0000 0.51380  0.06340  0.60710  Biso   1.000  C
  H64      1.0000 0.54100  0.11220  0.58760  Biso   1.000  H
  C113     1.0000 0.52640  0.95570  0.60740  Biso   1.000  C
  C114     1.0000 0.58230  0.91300  0.57600  Biso   1.000  C
  C115     1.0000 0.64580  0.80370  0.54040  Biso   1.000  C
  C116     1.0000 0.68360  0.71330  0.52200  Biso   1.000  C
  C117     1.0000 0.76410  0.63710  0.49690  Biso   1.000  C
  H65      1.0000 0.80370  0.62410  0.48630  Biso   1.000  H
  C118     1.0000 0.25880  0.61160  0.29960  Biso   1.000  C
  H66      1.0000 0.21990  0.58990  0.30610  Biso   1.000  H
  C119     1.0000 0.27920  0.63090  0.22060  Biso   1.000  C
  H67      1.0000 0.25480  0.62340  0.17470  Biso   1.000  H
  C120     1.0000 0.33780  0.66190  0.21190  Biso   1.000  C
  H68      1.0000 0.35320  0.67530  0.15950  Biso   1.000  H
  C121     1.0000 0.37290  0.67290  0.28120  Biso   1.000  C
  H69      1.0000 0.41220  0.69240  0.27620  Biso   1.000  H
  C122     1.0000 0.34820  0.65400  0.35840  Biso   1.000  C
  C123     1.0000 0.38140  0.66320  0.43660  Biso   1.000  C
  C124     1.0000 0.39640  0.66050  0.56430  Biso   1.000  C
  C125     1.0000 0.39430  0.64970  0.65400  Biso   1.000  C
  C126     1.0000 0.37090  0.64050  0.77650  Biso   1.000  C
  H70      1.0000 0.34890  0.63100  0.82450  Biso   1.000  H
  Fe15     1.0000 0.98050  0.78810  0.11868  Biso   1.000  Fe
  Fe16     1.0000 0.23739  0.89886  0.00064  Biso   1.000  Fe
  N99      1.0000 0.01050  0.61730  0.13710  Biso   1.000  N
  N100     1.0000 0.91025  0.69230  0.06630  Biso   1.000  N
  N101     1.0000 0.87090  0.52950  0.05730  Biso   1.000  N
  N102     1.0000 0.82940  0.60110  0.03290  Biso   1.000  N
  N103     1.0000 0.75920  0.76640  0.00320  Biso   1.000  N
  N104     1.0000 0.82833  0.88860  0.02500  Biso   1.000  N
  N105     1.0000 0.77580  0.93790  0.00770  Biso   1.000  N
  N106     1.0000 0.20810  0.87770  0.86720  Biso   1.000  N
  N107     1.0000 0.14690  0.85880  0.00850  Biso   1.000  N
  N108     1.0000 0.06350  0.80720  0.94500  Biso   1.000  N
  N109     1.0000 0.05348  0.80910  0.02820  Biso   1.000  N
  N110     1.0000 0.15280  0.86750  0.20060  Biso   1.000  N
  N111     1.0000 0.05675  0.83170  0.19590  Biso   1.000  N
  N112     1.0000 0.07260  0.83710  0.27810  Biso   1.000  N
  C127     1.0000 0.06200  0.58330  0.16550  Biso   1.000  C
  H71      1.0000 0.08840  0.63300  0.18570  Biso   1.000  H
  C128     1.0000 0.07870  0.47950  0.16710  Biso   1.000  C
  H72      1.0000 0.11520  0.46010  0.18840  Biso   1.000  H
  C129     1.0000 0.04080  0.40500  0.13690  Biso   1.000  C
  H73      1.0000 0.05150  0.33430  0.13630  Biso   1.000  H
  C130     1.0000 0.98620  0.43660  0.10710  Biso   1.000  C
  H74      1.0000 0.95900  0.38780  0.08760  Biso   1.000  H
  C131     1.0000 0.97360  0.54430  0.10740  Biso   1.000  C
  C132     1.0000 0.91770  0.58700  0.07600  Biso   1.000  C
  C133     1.0000 0.85420  0.69630  0.04040  Biso   1.000  C
  C134     1.0000 0.81640  0.78670  0.02200  Biso   1.000  C
  C135     1.0000 0.73590  0.86290  0.99690  Biso   1.000  C
  H75      1.0000 0.69630  0.87590  0.98630  Biso   1.000  H
  C136     1.0000 0.24120  0.88840  0.79960  Biso   1.000  C
  H76      1.0000 0.28010  0.91010  0.80610  Biso   1.000  H
  C137     1.0000 0.22080  0.86910  0.72060  Biso   1.000  C
  H77      1.0000 0.24520  0.87660  0.67470  Biso   1.000  H
  C138     1.0000 0.16220  0.83810  0.71190  Biso   1.000  C
  H78      1.0000 0.14680  0.82470  0.65950  Biso   1.000  H
  C139     1.0000 0.12710  0.82710  0.78120  Biso   1.000  C
  H79      1.0000 0.08780  0.80760  0.77620  Biso   1.000  H
  C140     1.0000 0.15180  0.84600  0.85840  Biso   1.000  C
  C141     1.0000 0.11860  0.83680  0.93660  Biso   1.000  C
  C142     1.0000 0.10360  0.83950  0.06430  Biso   1.000  C
  C143     1.0000 0.10570  0.85030  0.15400  Biso   1.000  C
  C144     1.0000 0.12910  0.85950  0.27650  Biso   1.000  C
  H80      1.0000 0.15110  0.86900  0.32450  Biso   1.000  H
