data_image0
_cell_length_a       15.645
_cell_length_b       15.645
_cell_length_c       19.75
_cell_angle_alpha    90
_cell_angle_beta     90
_cell_angle_gamma    90

_symmetry_space_group_name_H-M    "P 1"
_symmetry_int_tables_number       1

loop_
  _symmetry_equiv_pos_as_xyz
  'x, y, z'

loop_
  _atom_site_label
  _atom_site_occupancy
  _atom_site_fract_x
  _atom_site_fract_y
  _atom_site_fract_z
  _atom_site_thermal_displace_type
  _atom_site_B_iso_or_equiv
  _atom_site_type_symbol
  N1       1.0000 0.06777  0.18031  0.04619  Biso   1.000  N
  C1       1.0000 0.02823  0.14756  0.99136  Biso   1.000  C
  H1       1.0000 0.96890  0.15030  0.98920  Biso   1.000  H
  C2       1.0000 0.07165  0.11020  0.93849  Biso   1.000  C
  H2       1.0000 0.04200  0.08800  0.90170  Biso   1.000  H
  C3       1.0000 0.15991  0.10613  0.94066  Biso   1.000  C
  H3       1.0000 0.19030  0.08220  0.90490  Biso   1.000  H
  C4       1.0000 0.20261  0.13821  0.99702  Biso   1.000  C
  C5       1.0000 0.15343  0.17433  0.04816  Biso   1.000  C
  H4       1.0000 0.18150  0.19570  0.08610  Biso   1.000  H
  N2       1.0000 0.56777  0.68031  0.54619  Biso   1.000  N
  C6       1.0000 0.52823  0.64756  0.49136  Biso   1.000  C
  H5       1.0000 0.46890  0.65030  0.48920  Biso   1.000  H
  C7       1.0000 0.57165  0.61020  0.43849  Biso   1.000  C
  H6       1.0000 0.54200  0.58800  0.40170  Biso   1.000  H
  C8       1.0000 0.65991  0.60613  0.44066  Biso   1.000  C
  H7       1.0000 0.69030  0.58220  0.40490  Biso   1.000  H
  C9       1.0000 0.70261  0.63821  0.49702  Biso   1.000  C
  C10      1.0000 0.65343  0.67433  0.54816  Biso   1.000  C
  H8       1.0000 0.68150  0.69570  0.58610  Biso   1.000  H
  N3       1.0000 0.43223  0.81969  0.54619  Biso   1.000  N
  C11      1.0000 0.47177  0.85244  0.49136  Biso   1.000  C
  H9       1.0000 0.53110  0.84970  0.48920  Biso   1.000  H
  C12      1.0000 0.42835  0.88980  0.43849  Biso   1.000  C
  H10      1.0000 0.45800  0.91200  0.40170  Biso   1.000  H
  C13      1.0000 0.34009  0.89387  0.44066  Biso   1.000  C
  H11      1.0000 0.30970  0.91780  0.40490  Biso   1.000  H
  C14      1.0000 0.29739  0.86179  0.49702  Biso   1.000  C
  C15      1.0000 0.34657  0.82567  0.54816  Biso   1.000  C
  H12      1.0000 0.31850  0.80430  0.58610  Biso   1.000  H
  N4       1.0000 0.93223  0.31969  0.04619  Biso   1.000  N
  C16      1.0000 0.97177  0.35244  0.99136  Biso   1.000  C
  H13      1.0000 0.03110  0.34970  0.98920  Biso   1.000  H
  C17      1.0000 0.92835  0.38980  0.93849  Biso   1.000  C
  H14      1.0000 0.95800  0.41200  0.90170  Biso   1.000  H
  C18      1.0000 0.84009  0.39387  0.94066  Biso   1.000  C
  H15      1.0000 0.80970  0.41780  0.90490  Biso   1.000  H
  C19      1.0000 0.79739  0.36179  0.99702  Biso   1.000  C
  C20      1.0000 0.84657  0.32567  0.04816  Biso   1.000  C
  H16      1.0000 0.81850  0.30430  0.08610  Biso   1.000  H
  N5       1.0000 0.06969  0.81777  0.29619  Biso   1.000  N
  C21      1.0000 0.10244  0.77823  0.24136  Biso   1.000  C
  H17      1.0000 0.09970  0.71890  0.23920  Biso   1.000  H
  C22      1.0000 0.13980  0.82165  0.18849  Biso   1.000  C
  H18      1.0000 0.16200  0.79200  0.15170  Biso   1.000  H
  C23      1.0000 0.14387  0.90991  0.19066  Biso   1.000  C
  H19      1.0000 0.16780  0.94030  0.15490  Biso   1.000  H
  C24      1.0000 0.11179  0.95261  0.24702  Biso   1.000  C
  C25      1.0000 0.07567  0.90343  0.29816  Biso   1.000  C
  H20      1.0000 0.05430  0.93150  0.33610  Biso   1.000  H
  N6       1.0000 0.56969  0.31777  0.79619  Biso   1.000  N
  C26      1.0000 0.60244  0.27823  0.74136  Biso   1.000  C
  H21      1.0000 0.59970  0.21890  0.73920  Biso   1.000  H
  C27      1.0000 0.63980  0.32165  0.68849  Biso   1.000  C
  H22      1.0000 0.66200  0.29200  0.65170  Biso   1.000  H
  C28      1.0000 0.64387  0.40991  0.69066  Biso   1.000  C
  H23      1.0000 0.66780  0.44030  0.65490  Biso   1.000  H
  C29      1.0000 0.61179  0.45261  0.74702  Biso   1.000  C
  C30      1.0000 0.57567  0.40343  0.79816  Biso   1.000  C
  H24      1.0000 0.55430  0.43150  0.83610  Biso   1.000  H
  N7       1.0000 0.43031  0.18223  0.79619  Biso   1.000  N
  C31      1.0000 0.39756  0.22177  0.74136  Biso   1.000  C
  H25      1.0000 0.40030  0.28110  0.73920  Biso   1.000  H
  C32      1.0000 0.36020  0.17835  0.68849  Biso   1.000  C
  H26      1.0000 0.33800  0.20800  0.65170  Biso   1.000  H
  C33      1.0000 0.35613  0.09009  0.69066  Biso   1.000  C
  H27      1.0000 0.33220  0.05970  0.65490  Biso   1.000  H
  C34      1.0000 0.38821  0.04739  0.74702  Biso   1.000  C
  C35      1.0000 0.42433  0.09657  0.79816  Biso   1.000  C
  H28      1.0000 0.44570  0.06850  0.83610  Biso   1.000  H
  N8       1.0000 0.93031  0.68223  0.29619  Biso   1.000  N
  C36      1.0000 0.89756  0.72177  0.24136  Biso   1.000  C
  H29      1.0000 0.90030  0.78110  0.23920  Biso   1.000  H
  C37      1.0000 0.86020  0.67835  0.18849  Biso   1.000  C
  H30      1.0000 0.83800  0.70800  0.15170  Biso   1.000  H
  C38      1.0000 0.85613  0.59009  0.19066  Biso   1.000  C
  H31      1.0000 0.83220  0.55970  0.15490  Biso   1.000  H
  C39      1.0000 0.88821  0.54739  0.24702  Biso   1.000  C
  C40      1.0000 0.92433  0.59657  0.29816  Biso   1.000  C
  H32      1.0000 0.94570  0.56850  0.33610  Biso   1.000  H
  N9       1.0000 0.43223  0.18031  0.95381  Biso   1.000  N
  C41      1.0000 0.47177  0.14756  0.00864  Biso   1.000  C
  H33      1.0000 0.53110  0.15030  0.01080  Biso   1.000  H
  C42      1.0000 0.42835  0.11020  0.06151  Biso   1.000  C
  H34      1.0000 0.45800  0.08800  0.09830  Biso   1.000  H
  C43      1.0000 0.34009  0.10613  0.05934  Biso   1.000  C
  H35      1.0000 0.30970  0.08220  0.09510  Biso   1.000  H
  C44      1.0000 0.29739  0.13821  0.00298  Biso   1.000  C
  C45      1.0000 0.34657  0.17433  0.95184  Biso   1.000  C
  H36      1.0000 0.31850  0.19570  0.91390  Biso   1.000  H
  N10      1.0000 0.93223  0.68031  0.45381  Biso   1.000  N
  C46      1.0000 0.97177  0.64756  0.50864  Biso   1.000  C
  H37      1.0000 0.03110  0.65030  0.51080  Biso   1.000  H
  C47      1.0000 0.92835  0.61020  0.56151  Biso   1.000  C
  H38      1.0000 0.95800  0.58800  0.59830  Biso   1.000  H
  C48      1.0000 0.84009  0.60613  0.55934  Biso   1.000  C
  H39      1.0000 0.80970  0.58220  0.59510  Biso   1.000  H
  C49      1.0000 0.79739  0.63821  0.50298  Biso   1.000  C
  C50      1.0000 0.84657  0.67433  0.45184  Biso   1.000  C
  H40      1.0000 0.81850  0.69570  0.41390  Biso   1.000  H
  N11      1.0000 0.06777  0.81969  0.45381  Biso   1.000  N
  C51      1.0000 0.02823  0.85244  0.50864  Biso   1.000  C
  H41      1.0000 0.96890  0.84970  0.51080  Biso   1.000  H
  C52      1.0000 0.07165  0.88980  0.56151  Biso   1.000  C
  H42      1.0000 0.04200  0.91200  0.59830  Biso   1.000  H
  C53      1.0000 0.15991  0.89387  0.55934  Biso   1.000  C
  H43      1.0000 0.19030  0.91780  0.59510  Biso   1.000  H
  C54      1.0000 0.20261  0.86179  0.50298  Biso   1.000  C
  C55      1.0000 0.15343  0.82567  0.45184  Biso   1.000  C
  H44      1.0000 0.18150  0.80430  0.41390  Biso   1.000  H
  N12      1.0000 0.56777  0.31969  0.95381  Biso   1.000  N
  C56      1.0000 0.52823  0.35244  0.00864  Biso   1.000  C
  H45      1.0000 0.46890  0.34970  0.01080  Biso   1.000  H
  C57      1.0000 0.57165  0.38980  0.06151  Biso   1.000  C
  H46      1.0000 0.54200  0.41200  0.09830  Biso   1.000  H
  C58      1.0000 0.65991  0.39387  0.05934  Biso   1.000  C
  H47      1.0000 0.69030  0.41780  0.09510  Biso   1.000  H
  C59      1.0000 0.70261  0.36179  0.00298  Biso   1.000  C
  C60      1.0000 0.65343  0.32567  0.95184  Biso   1.000  C
  H48      1.0000 0.68150  0.30430  0.91390  Biso   1.000  H
  N13      1.0000 0.43031  0.81777  0.70381  Biso   1.000  N
  C61      1.0000 0.39756  0.77823  0.75864  Biso   1.000  C
  H49      1.0000 0.40030  0.71890  0.76080  Biso   1.000  H
  C62      1.0000 0.36020  0.82165  0.81151  Biso   1.000  C
  H50      1.0000 0.33800  0.79200  0.84830  Biso   1.000  H
  C63      1.0000 0.35613  0.90991  0.80934  Biso   1.000  C
  H51      1.0000 0.33220  0.94030  0.84510  Biso   1.000  H
  C64      1.0000 0.38821  0.95261  0.75298  Biso   1.000  C
  C65      1.0000 0.42433  0.90343  0.70184  Biso   1.000  C
  H52      1.0000 0.44570  0.93150  0.66390  Biso   1.000  H
  N14      1.0000 0.93031  0.31777  0.20381  Biso   1.000  N
  C66      1.0000 0.89756  0.27823  0.25864  Biso   1.000  C
  H53      1.0000 0.90030  0.21890  0.26080  Biso   1.000  H
  C67      1.0000 0.86020  0.32165  0.31151  Biso   1.000  C
  H54      1.0000 0.83800  0.29200  0.34830  Biso   1.000  H
  C68      1.0000 0.85613  0.40991  0.30934  Biso   1.000  C
  H55      1.0000 0.83220  0.44030  0.34510  Biso   1.000  H
  C69      1.0000 0.88821  0.45261  0.25298  Biso   1.000  C
  C70      1.0000 0.92433  0.40343  0.20184  Biso   1.000  C
  H56      1.0000 0.94570  0.43150  0.16390  Biso   1.000  H
  N15      1.0000 0.06969  0.18223  0.20381  Biso   1.000  N
  C71      1.0000 0.10244  0.22177  0.25864  Biso   1.000  C
  H57      1.0000 0.09970  0.28110  0.26080  Biso   1.000  H
  C72      1.0000 0.13980  0.17835  0.31151  Biso   1.000  C
  H58      1.0000 0.16200  0.20800  0.34830  Biso   1.000  H
  C73      1.0000 0.14387  0.09009  0.30934  Biso   1.000  C
  H59      1.0000 0.16780  0.05970  0.34510  Biso   1.000  H
  C74      1.0000 0.11179  0.04739  0.25298  Biso   1.000  C
  C75      1.0000 0.07567  0.09657  0.20184  Biso   1.000  C
  H60      1.0000 0.05430  0.06850  0.16390  Biso   1.000  H
  N16      1.0000 0.56969  0.68223  0.70381  Biso   1.000  N
  C76      1.0000 0.60244  0.72177  0.75864  Biso   1.000  C
  H61      1.0000 0.59970  0.78110  0.76080  Biso   1.000  H
  C77      1.0000 0.63980  0.67835  0.81151  Biso   1.000  C
  H62      1.0000 0.66200  0.70800  0.84830  Biso   1.000  H
  C78      1.0000 0.64387  0.59009  0.80934  Biso   1.000  C
  H63      1.0000 0.66780  0.55970  0.84510  Biso   1.000  H
  C79      1.0000 0.61179  0.54739  0.75298  Biso   1.000  C
  C80      1.0000 0.57567  0.59657  0.70184  Biso   1.000  C
  H64      1.0000 0.55430  0.56850  0.66390  Biso   1.000  H
  Co1      1.0000 0.00000  0.25000  0.12500  Biso   1.000  Co
  Co2      1.0000 0.50000  0.75000  0.62500  Biso   1.000  Co
  Co3      1.0000 0.00000  0.75000  0.37500  Biso   1.000  Co
  Co4      1.0000 0.50000  0.25000  0.87500  Biso   1.000  Co
  N17      1.0000 0.93223  0.81969  0.95381  Biso   1.000  N
  C81      1.0000 0.97177  0.85244  0.00864  Biso   1.000  C
  H65      1.0000 0.03110  0.84970  0.01080  Biso   1.000  H
  C82      1.0000 0.92835  0.88980  0.06151  Biso   1.000  C
  H66      1.0000 0.95800  0.91200  0.09830  Biso   1.000  H
  C83      1.0000 0.84009  0.89387  0.05934  Biso   1.000  C
  H67      1.0000 0.80970  0.91780  0.09510  Biso   1.000  H
  C84      1.0000 0.79739  0.86179  0.00298  Biso   1.000  C
  C85      1.0000 0.84657  0.82567  0.95184  Biso   1.000  C
  H68      1.0000 0.81850  0.80430  0.91390  Biso   1.000  H
  N18      1.0000 0.43223  0.31969  0.45381  Biso   1.000  N
  C86      1.0000 0.47177  0.35244  0.50864  Biso   1.000  C
  H69      1.0000 0.53110  0.34970  0.51080  Biso   1.000  H
  C87      1.0000 0.42835  0.38980  0.56151  Biso   1.000  C
  H70      1.0000 0.45800  0.41200  0.59830  Biso   1.000  H
  C88      1.0000 0.34009  0.39387  0.55934  Biso   1.000  C
  H71      1.0000 0.30970  0.41780  0.59510  Biso   1.000  H
  C89      1.0000 0.29739  0.36179  0.50298  Biso   1.000  C
  C90      1.0000 0.34657  0.32567  0.45184  Biso   1.000  C
  H72      1.0000 0.31850  0.30430  0.41390  Biso   1.000  H
  N19      1.0000 0.56777  0.18031  0.45381  Biso   1.000  N
  C91      1.0000 0.52823  0.14756  0.50864  Biso   1.000  C
  H73      1.0000 0.46890  0.15030  0.51080  Biso   1.000  H
  C92      1.0000 0.57165  0.11020  0.56151  Biso   1.000  C
  H74      1.0000 0.54200  0.08800  0.59830  Biso   1.000  H
  C93      1.0000 0.65991  0.10613  0.55934  Biso   1.000  C
  H75      1.0000 0.69030  0.08220  0.59510  Biso   1.000  H
  C94      1.0000 0.70261  0.13821  0.50298  Biso   1.000  C
  C95      1.0000 0.65343  0.17433  0.45184  Biso   1.000  C
  H76      1.0000 0.68150  0.19570  0.41390  Biso   1.000  H
  N20      1.0000 0.06777  0.68031  0.95381  Biso   1.000  N
  C96      1.0000 0.02823  0.64756  0.00864  Biso   1.000  C
  H77      1.0000 0.96890  0.65030  0.01080  Biso   1.000  H
  C97      1.0000 0.07165  0.61020  0.06151  Biso   1.000  C
  H78      1.0000 0.04200  0.58800  0.09830  Biso   1.000  H
  C98      1.0000 0.15991  0.60613  0.05934  Biso   1.000  C
  H79      1.0000 0.19030  0.58220  0.09510  Biso   1.000  H
  C99      1.0000 0.20261  0.63821  0.00298  Biso   1.000  C
  C100     1.0000 0.15343  0.67433  0.95184  Biso   1.000  C
  H80      1.0000 0.18150  0.69570  0.91390  Biso   1.000  H
  N21      1.0000 0.93031  0.18223  0.70381  Biso   1.000  N
  C101     1.0000 0.89756  0.22177  0.75864  Biso   1.000  C
  H81      1.0000 0.90030  0.28110  0.76080  Biso   1.000  H
  C102     1.0000 0.86020  0.17835  0.81151  Biso   1.000  C
  H82      1.0000 0.83800  0.20800  0.84830  Biso   1.000  H
  C103     1.0000 0.85613  0.09009  0.80934  Biso   1.000  C
  H83      1.0000 0.83220  0.05970  0.84510  Biso   1.000  H
  C104     1.0000 0.88821  0.04739  0.75298  Biso   1.000  C
  C105     1.0000 0.92433  0.09657  0.70184  Biso   1.000  C
  H84      1.0000 0.94570  0.06850  0.66390  Biso   1.000  H
  N22      1.0000 0.43031  0.68223  0.20381  Biso   1.000  N
  C106     1.0000 0.39756  0.72177  0.25864  Biso   1.000  C
  H85      1.0000 0.40030  0.78110  0.26080  Biso   1.000  H
  C107     1.0000 0.36020  0.67835  0.31151  Biso   1.000  C
  H86      1.0000 0.33800  0.70800  0.34830  Biso   1.000  H
  C108     1.0000 0.35613  0.59009  0.30934  Biso   1.000  C
  H87      1.0000 0.33220  0.55970  0.34510  Biso   1.000  H
  C109     1.0000 0.38821  0.54739  0.25298  Biso   1.000  C
  C110     1.0000 0.42433  0.59657  0.20184  Biso   1.000  C
  H88      1.0000 0.44570  0.56850  0.16390  Biso   1.000  H
  N23      1.0000 0.56969  0.81777  0.20381  Biso   1.000  N
  C111     1.0000 0.60244  0.77823  0.25864  Biso   1.000  C
  H89      1.0000 0.59970  0.71890  0.26080  Biso   1.000  H
  C112     1.0000 0.63980  0.82165  0.31151  Biso   1.000  C
  H90      1.0000 0.66200  0.79200  0.34830  Biso   1.000  H
  C113     1.0000 0.64387  0.90991  0.30934  Biso   1.000  C
  H91      1.0000 0.66780  0.94030  0.34510  Biso   1.000  H
  C114     1.0000 0.61179  0.95261  0.25298  Biso   1.000  C
  C115     1.0000 0.57567  0.90343  0.20184  Biso   1.000  C
  H92      1.0000 0.55430  0.93150  0.16390  Biso   1.000  H
  N24      1.0000 0.06969  0.31777  0.70381  Biso   1.000  N
  C116     1.0000 0.10244  0.27823  0.75864  Biso   1.000  C
  H93      1.0000 0.09970  0.21890  0.76080  Biso   1.000  H
  C117     1.0000 0.13980  0.32165  0.81151  Biso   1.000  C
  H94      1.0000 0.16200  0.29200  0.84830  Biso   1.000  H
  C118     1.0000 0.14387  0.40991  0.80934  Biso   1.000  C
  H95      1.0000 0.16780  0.44030  0.84510  Biso   1.000  H
  C119     1.0000 0.11179  0.45261  0.75298  Biso   1.000  C
  C120     1.0000 0.07567  0.40343  0.70184  Biso   1.000  C
  H96      1.0000 0.05430  0.43150  0.66390  Biso   1.000  H
  N25      1.0000 0.56777  0.81969  0.04619  Biso   1.000  N
  C121     1.0000 0.52823  0.85244  0.99136  Biso   1.000  C
  H97      1.0000 0.46890  0.84970  0.98920  Biso   1.000  H
  C122     1.0000 0.57165  0.88980  0.93849  Biso   1.000  C
  H98      1.0000 0.54200  0.91200  0.90170  Biso   1.000  H
  C123     1.0000 0.65991  0.89387  0.94066  Biso   1.000  C
  H99      1.0000 0.69030  0.91780  0.90490  Biso   1.000  H
  C124     1.0000 0.70261  0.86179  0.99702  Biso   1.000  C
  C125     1.0000 0.65343  0.82567  0.04816  Biso   1.000  C
  H100     1.0000 0.68150  0.80430  0.08610  Biso   1.000  H
  N26      1.0000 0.06777  0.31969  0.54619  Biso   1.000  N
  C126     1.0000 0.02823  0.35244  0.49136  Biso   1.000  C
  H101     1.0000 0.96890  0.34970  0.48920  Biso   1.000  H
  C127     1.0000 0.07165  0.38980  0.43849  Biso   1.000  C
  H102     1.0000 0.04200  0.41200  0.40170  Biso   1.000  H
  C128     1.0000 0.15991  0.39387  0.44066  Biso   1.000  C
  H103     1.0000 0.19030  0.41780  0.40490  Biso   1.000  H
  C129     1.0000 0.20261  0.36179  0.49702  Biso   1.000  C
  C130     1.0000 0.15343  0.32567  0.54816  Biso   1.000  C
  H104     1.0000 0.18150  0.30430  0.58610  Biso   1.000  H
  N27      1.0000 0.93223  0.18031  0.54619  Biso   1.000  N
  C131     1.0000 0.97177  0.14756  0.49136  Biso   1.000  C
  H105     1.0000 0.03110  0.15030  0.48920  Biso   1.000  H
  C132     1.0000 0.92835  0.11020  0.43849  Biso   1.000  C
  H106     1.0000 0.95800  0.08800  0.40170  Biso   1.000  H
  C133     1.0000 0.84009  0.10613  0.44066  Biso   1.000  C
  H107     1.0000 0.80970  0.08220  0.40490  Biso   1.000  H
  C134     1.0000 0.79739  0.13821  0.49702  Biso   1.000  C
  C135     1.0000 0.84657  0.17433  0.54816  Biso   1.000  C
  H108     1.0000 0.81850  0.19570  0.58610  Biso   1.000  H
  N28      1.0000 0.43223  0.68031  0.04619  Biso   1.000  N
  C136     1.0000 0.47177  0.64756  0.99136  Biso   1.000  C
  H109     1.0000 0.53110  0.65030  0.98920  Biso   1.000  H
  C137     1.0000 0.42835  0.61020  0.93849  Biso   1.000  C
  H110     1.0000 0.45800  0.58800  0.90170  Biso   1.000  H
  C138     1.0000 0.34009  0.60613  0.94066  Biso   1.000  C
  H111     1.0000 0.30970  0.58220  0.90490  Biso   1.000  H
  C139     1.0000 0.29739  0.63821  0.99702  Biso   1.000  C
  C140     1.0000 0.34657  0.67433  0.04816  Biso   1.000  C
  H112     1.0000 0.31850  0.69570  0.08610  Biso   1.000  H
  N29      1.0000 0.56969  0.18223  0.29619  Biso   1.000  N
  C141     1.0000 0.60244  0.22177  0.24136  Biso   1.000  C
  H113     1.0000 0.59970  0.28110  0.23920  Biso   1.000  H
  C142     1.0000 0.63980  0.17835  0.18849  Biso   1.000  C
  H114     1.0000 0.66200  0.20800  0.15170  Biso   1.000  H
  C143     1.0000 0.64387  0.09009  0.19066  Biso   1.000  C
  H115     1.0000 0.66780  0.05970  0.15490  Biso   1.000  H
  C144     1.0000 0.61179  0.04739  0.24702  Biso   1.000  C
  C145     1.0000 0.57567  0.09657  0.29816  Biso   1.000  C
  H116     1.0000 0.55430  0.06850  0.33610  Biso   1.000  H
  N30      1.0000 0.06969  0.68223  0.79619  Biso   1.000  N
  C146     1.0000 0.10244  0.72177  0.74136  Biso   1.000  C
  H117     1.0000 0.09970  0.78110  0.73920  Biso   1.000  H
  C147     1.0000 0.13980  0.67835  0.68849  Biso   1.000  C
  H118     1.0000 0.16200  0.70800  0.65170  Biso   1.000  H
  C148     1.0000 0.14387  0.59009  0.69066  Biso   1.000  C
  H119     1.0000 0.16780  0.55970  0.65490  Biso   1.000  H
  C149     1.0000 0.11179  0.54739  0.74702  Biso   1.000  C
  C150     1.0000 0.07567  0.59657  0.79816  Biso   1.000  C
  H120     1.0000 0.05430  0.56850  0.83610  Biso   1.000  H
  N31      1.0000 0.93031  0.81777  0.79619  Biso   1.000  N
  C151     1.0000 0.89756  0.77823  0.74136  Biso   1.000  C
  H121     1.0000 0.90030  0.71890  0.73920  Biso   1.000  H
  C152     1.0000 0.86020  0.82165  0.68849  Biso   1.000  C
  H122     1.0000 0.83800  0.79200  0.65170  Biso   1.000  H
  C153     1.0000 0.85613  0.90991  0.69066  Biso   1.000  C
  H123     1.0000 0.83220  0.94030  0.65490  Biso   1.000  H
  C154     1.0000 0.88821  0.95261  0.74702  Biso   1.000  C
  C155     1.0000 0.92433  0.90343  0.79816  Biso   1.000  C
  H124     1.0000 0.94570  0.93150  0.83610  Biso   1.000  H
  N32      1.0000 0.43031  0.31777  0.29619  Biso   1.000  N
  C156     1.0000 0.39756  0.27823  0.24136  Biso   1.000  C
  H125     1.0000 0.40030  0.21890  0.23920  Biso   1.000  H
  C157     1.0000 0.36020  0.32165  0.18849  Biso   1.000  C
  H126     1.0000 0.33800  0.29200  0.15170  Biso   1.000  H
  C158     1.0000 0.35613  0.40991  0.19066  Biso   1.000  C
  H127     1.0000 0.33220  0.44030  0.15490  Biso   1.000  H
  C159     1.0000 0.38821  0.45261  0.24702  Biso   1.000  C
  C160     1.0000 0.42433  0.40343  0.29816  Biso   1.000  C
  H128     1.0000 0.44570  0.43150  0.33610  Biso   1.000  H
  Co5      1.0000 0.00000  0.75000  0.87500  Biso   1.000  Co
  Co6      1.0000 0.50000  0.25000  0.37500  Biso   1.000  Co
  Co7      1.0000 0.00000  0.25000  0.62500  Biso   1.000  Co
  Co8      1.0000 0.50000  0.75000  0.12500  Biso   1.000  Co
