data_JODFOZ_clean
_audit_creation_date              2015-10-16
_audit_creation_method            'Materials Studio'
_symmetry_space_group_name_H-M    'P1'
_symmetry_Int_Tables_number       1
_symmetry_cell_setting            triclinic
loop_
_symmetry_equiv_pos_as_xyz
  x,y,z
_cell_length_a                    8.5046
_cell_length_b                    13.3374
_cell_length_c                    14.1584
_cell_angle_alpha                 61.9002
_cell_angle_beta                  85.7190
_cell_angle_gamma                 80.8810
loop_
_atom_site_label
_atom_site_type_symbol
_atom_site_fract_x
_atom_site_fract_y
_atom_site_fract_z
_atom_site_U_iso_or_equiv
_atom_site_adp_type
_atom_site_occupancy
Co1    Co    0.20098   0.29714   0.19284   0.01267  Uiso   1.00
Co2    Co    0.70098   0.48998   0.80716   0.01267  Uiso   1.00
H1     H     0.48150   0.00400   0.83860   0.01267  Uiso   1.00
H2     H     0.32800   0.47450   0.98080   0.01267  Uiso   1.00
H3     H     0.57250   0.18060   0.77500   0.01267  Uiso   1.00
H4     H     0.40440   0.81500   0.11420   0.01267  Uiso   1.00
H5     H     0.07780   0.50810   0.51220   0.01267  Uiso   1.00
H6     H     0.79990   0.90630   0.52720   0.01267  Uiso   1.00
H7     H     0.57780   0.02030   0.48780   0.01267  Uiso   1.00
H8     H     0.05190   0.41220   0.86780   0.01267  Uiso   1.00
H9     H     0.07250   0.95560   0.22500   0.01267  Uiso   1.00
H10    H     0.25900   0.67340   0.17460   0.01267  Uiso   1.00
H11    H     0.90840   0.55960   0.09300   0.01267  Uiso   1.00
H12    H     0.19750   0.94610   0.41460   0.01267  Uiso   1.00
H13    H     0.98150   0.84260   0.16140   0.01267  Uiso   1.00
H14    H     0.68040   0.38300   0.25060   0.01267  Uiso   1.00
H15    H     0.42900   0.83110   0.91280   0.01267  Uiso   1.00
H16    H     0.01110   0.09520   0.86200   0.01267  Uiso   1.00
H17    H     0.82800   0.45530   0.01920   0.01267  Uiso   1.00
H18    H     0.11000   0.20640   0.92640   0.01267  Uiso   1.00
H19    H     0.55190   0.28000   0.13220   0.01267  Uiso   1.00
H20    H     0.40840   0.65260   0.90700   0.01267  Uiso   1.00
H21    H     0.92900   0.74390   0.08720   0.01267  Uiso   1.00
H22    H     0.79540   0.17850   0.20540   0.01267  Uiso   1.00
H23    H     0.29540   0.38390   0.79460   0.01267  Uiso   1.00
H24    H     0.46270   0.40500   0.64220   0.01267  Uiso   1.00
H25    H     0.93730   0.32470   0.50300   0.01267  Uiso   1.00
H26    H     0.44680   0.41520   0.33440   0.01267  Uiso   1.00
H27    H     0.69750   0.36070   0.58540   0.01267  Uiso   1.00
H28    H     0.61000   0.13280   0.07360   0.01267  Uiso   1.00
H29    H     0.68590   0.73860   0.75660   0.01267  Uiso   1.00
H30    H     0.51110   0.95720   0.13800   0.01267  Uiso   1.00
H31    H     0.33490   0.12840   0.40560   0.01267  Uiso   1.00
H32    H     0.75900   0.84800   0.82540   0.01267  Uiso   1.00
H33    H     0.96270   0.04720   0.35780   0.01267  Uiso   1.00
H34    H     0.94680   0.74960   0.66560   0.01267  Uiso   1.00
H35    H     0.18590   0.49520   0.24340   0.01267  Uiso   1.00
H36    H     0.18040   0.63360   0.74940   0.01267  Uiso   1.00
H37    H     0.29990   0.43350   0.47280   0.01267  Uiso   1.00
H38    H     0.83490   0.53400   0.59440   0.01267  Uiso   1.00
H39    H     0.43730   0.82770   0.49700   0.01267  Uiso   1.00
H40    H     0.90440   0.92920   0.88580   0.01267  Uiso   1.00
C1     C     0.68550   0.37710   0.31920   0.01267  Uiso   1.00
C2     C     0.54510   0.39740   0.36900   0.01267  Uiso   1.00
C3     C     0.50680   0.02870   0.88720   0.01267  Uiso   1.00
C4     C     0.09690   0.09140   0.08340   0.01267  Uiso   1.00
C5     C     0.33040   0.71670   0.63220   0.01267  Uiso   1.00
C6     C     0.20360   0.41390   0.75160   0.01267  Uiso   1.00
C7     C     0.27730   0.63300   0.13460   0.01267  Uiso   1.00
C8     C     0.49080   0.96040   0.99620   0.01267  Uiso   1.00
C9     C     0.39140   0.41720   0.51360   0.01267  Uiso   1.00
C10    C     0.05000   0.85900   0.53260   0.01267  Uiso   1.00
C11    C     0.73300   0.70190   0.82500   0.01267  Uiso   1.00
C12    C     0.83890   0.34280   0.46840   0.01267  Uiso   1.00
C13    C     0.52560   0.00140   0.06400   0.01267  Uiso   1.00
C14    C     0.64760   0.28950   0.87380   0.01267  Uiso   1.00
C15    C     0.92970   0.89080   0.95900   0.01267  Uiso   1.00
C16    C     0.14760   0.16330   0.12620   0.01267  Uiso   1.00
C17    C     0.19420   0.88230   0.48240   0.01267  Uiso   1.00
C18    C     0.23300   0.52690   0.17500   0.01267  Uiso   1.00
C19    C     0.69420   0.36470   0.51760   0.01267  Uiso   1.00
C20    C     0.99080   0.95660   0.00380   0.01267  Uiso   1.00
C21    C     0.90710   0.78200   0.01340   0.01267  Uiso   1.00
C22    C     0.81680   0.53570   0.97880   0.01267  Uiso   1.00
C23    C     0.87180   0.02010   0.39840   0.01267  Uiso   1.00
C24    C     0.55000   0.39160   0.46740   0.01267  Uiso   1.00
C25    C     0.89140   0.93080   0.48640   0.01267  Uiso   1.00
C26    C     0.71340   0.08590   0.35440   0.01267  Uiso   1.00
C27    C     0.55620   0.22670   0.20540   0.01267  Uiso   1.00
C28    C     0.42970   0.84980   0.04100   0.01267  Uiso   1.00
C29    C     0.92870   0.50310   0.63560   0.01267  Uiso   1.00
C30    C     0.57510   0.07270   0.41440   0.01267  Uiso   1.00
C31    C     0.00680   0.91590   0.11280   0.01267  Uiso   1.00
C32    C     0.18550   0.69630   0.68080   0.01267  Uiso   1.00
C33    C     0.06090   0.98440   0.15080   0.01267  Uiso   1.00
C34    C     0.83040   0.34890   0.36780   0.01267  Uiso   1.00
C35    C     0.05620   0.43210   0.79460   0.01267  Uiso   1.00
C36    C     0.70360   0.16550   0.24840   0.01267  Uiso   1.00
C37    C     0.31680   0.51450   0.02120   0.01267  Uiso   1.00
C38    C     0.21340   0.44030   0.64560   0.01267  Uiso   1.00
C39    C     0.59690   0.17480   0.91660   0.01267  Uiso   1.00
C40    C     0.86520   0.59790   0.02360   0.01267  Uiso   1.00
C41    C     0.47540   0.63620   0.68960   0.01267  Uiso   1.00
C42    C     0.40710   0.79540   0.98660   0.01267  Uiso   1.00
C43    C     0.77730   0.76760   0.86540   0.01267  Uiso   1.00
C44    C     0.33890   0.81120   0.53160   0.01267  Uiso   1.00
C45    C     0.42870   0.13870   0.36440   0.01267  Uiso   1.00
C46    C     0.37180   0.41850   0.60160   0.01267  Uiso   1.00
C47    C     0.08260   0.13380   0.97420   0.01267  Uiso   1.00
C48    C     0.36520   0.62150   0.97640   0.01267  Uiso   1.00
C49    C     0.07510   0.48710   0.58560   0.01267  Uiso   1.00
C50    C     0.35050   0.68310   0.03300   0.01267  Uiso   1.00
C51    C     0.56090   0.13520   0.84920   0.01267  Uiso   1.00
C52    C     0.04510   0.76640   0.63100   0.01267  Uiso   1.00
C53    C     0.58260   0.10800   0.02580   0.01267  Uiso   1.00
C54    C     0.02560   0.06540   0.93600   0.01267  Uiso   1.00
C55    C     0.85050   0.71610   0.96700   0.01267  Uiso   1.00
C56    C     0.97540   0.32580   0.31040   0.01267  Uiso   1.00
N1     N     0.92100   0.47550   0.73980   0.01267  Uiso   1.00
N2     N     0.25420   0.46440   0.12060   0.01267  Uiso   1.00
N3     N     0.75420   0.58500   0.87940   0.01267  Uiso   1.00
N4     N     0.42100   0.21530   0.26020   0.01267  Uiso   1.00
O1     O     0.60870   0.65200   0.64520   0.01267  Uiso   1.00
O2     O     0.65360   0.35239   0.77362   0.01267  Uiso   1.00
O3     O     0.46300   0.55830   0.78360   0.01267  Uiso   1.00
O4     O     0.15360   0.12601   0.22638   0.01267  Uiso   1.00
O5     O     0.10870   0.29720   0.35480   0.01267  Uiso   1.00
O6     O     0.96300   0.34190   0.21640   0.01267  Uiso   1.00
O7     O     0.67810   0.33079   0.93502   0.01267  Uiso   1.00
O8     O     0.17810   0.26581   0.06498   0.01267  Uiso   1.00
