data_JOFGOC_clean
_audit_creation_date              2015-10-16
_audit_creation_method            'Materials Studio'
_symmetry_space_group_name_H-M    'P1'
_symmetry_Int_Tables_number       1
_symmetry_cell_setting            triclinic
loop_
_symmetry_equiv_pos_as_xyz
  x,y,z
_cell_length_a                    13.5150
_cell_length_b                    16.1819
_cell_length_c                    16.1819
_cell_angle_alpha                 79.9570
_cell_angle_beta                  65.3170
_cell_angle_gamma                 65.3171
loop_
_atom_site_label
_atom_site_type_symbol
_atom_site_fract_x
_atom_site_fract_y
_atom_site_fract_z
_atom_site_U_iso_or_equiv
_atom_site_adp_type
_atom_site_occupancy
Cd1    Cd    0.58834   0.79197   0.79444   0.01267  Uiso   1.00
H1     H     0.45420   0.00370   0.73930   0.01267  Uiso   1.00
H2     H     0.74690   0.58880   0.76560   0.01267  Uiso   1.00
H3     H     0.46530   0.16420   0.60020   0.01267  Uiso   1.00
H4     H     0.57660   0.70340   0.00420   0.01267  Uiso   1.00
H5     H     0.36460   0.14920   0.68740   0.01267  Uiso   1.00
H6     H     0.80510   0.41300   0.76720   0.01267  Uiso   1.00
H7     H     0.62230   0.87320   0.45960   0.01267  Uiso   1.00
H8     H     0.96340   0.28480   0.58720   0.01267  Uiso   1.00
H9     H     0.64130   0.56760   0.07320   0.01267  Uiso   1.00
H10    H     0.22310   0.09440   0.71980   0.01267  Uiso   1.00
H11    H     0.33290   0.38510   0.63610   0.01267  Uiso   1.00
H12    H     0.34970   0.20140   0.52480   0.01267  Uiso   1.00
H13    H     0.15450   0.43760   0.62120   0.01267  Uiso   1.00
H14    H     0.19290   0.28730   0.88410   0.01267  Uiso   1.00
H15    H     0.15430   0.27250   0.52370   0.01267  Uiso   1.00
H16    H     0.03150   0.10570   0.77970   0.01267  Uiso   1.00
H17    H     0.51320   0.02890   0.47470   0.01267  Uiso   1.00
H18    H     0.00990   0.34670   0.87370   0.01267  Uiso   1.00
H19    H     0.95670   0.45220   0.68200   0.01267  Uiso   1.00
H20    H     0.86860   0.36280   0.83420   0.01267  Uiso   1.00
H21    H     0.64750   0.78830   0.58370   0.01267  Uiso   1.00
H22    H     0.76720   0.43520   0.98480   0.01267  Uiso   1.00
C1     C     0.52310   0.99393   0.52487   0.01267  Uiso   1.00
C2     C     0.39860   0.29410   0.77170   0.01267  Uiso   1.00
C3     C     0.40763   0.13635   0.62279   0.01267  Uiso   1.00
C4     C     0.62585   0.65144   0.96846   0.01267  Uiso   1.00
C5     C     0.85133   0.20149   0.72785   0.01267  Uiso   1.00
C6     C     0.47238   0.03449   0.60975   0.01267  Uiso   1.00
C7     C     0.28179   0.33091   0.76211   0.01267  Uiso   1.00
C8     C     0.17167   0.13267   0.69239   0.01267  Uiso   1.00
C9     C     0.84898   0.41812   0.79932   0.01267  Uiso   1.00
C10    C     0.07462   0.35278   0.82498   0.01267  Uiso   1.00
C11    C     0.66450   0.57029   0.01031   0.01267  Uiso   1.00
C12    C     0.12995   0.23930   0.57580   0.01267  Uiso   1.00
C13    C     0.18462   0.31868   0.83188   0.01267  Uiso   1.00
C14    C     0.73970   0.49093   0.95747   0.01267  Uiso   1.00
C15    C     0.77175   0.49773   0.86377   0.01267  Uiso   1.00
C16    C     0.21211   0.18253   0.61565   0.01267  Uiso   1.00
C17    C     0.01571   0.24556   0.61342   0.01267  Uiso   1.00
C18    C     0.60205   0.85035   0.59075   0.01267  Uiso   1.00
C19    C     0.97465   0.19566   0.68924   0.01267  Uiso   1.00
C20    C     0.58823   0.90107   0.51587   0.01267  Uiso   1.00
C21    C     0.26884   0.37623   0.68309   0.01267  Uiso   1.00
C22    C     0.72658   0.58367   0.82817   0.01267  Uiso   1.00
C23    C     0.06139   0.39610   0.74512   0.01267  Uiso   1.00
C24    C     0.16144   0.40794   0.67438   0.01267  Uiso   1.00
C25    C     0.05618   0.13942   0.72822   0.01267  Uiso   1.00
C26    C     0.48879   0.97782   0.68200   0.01267  Uiso   1.00
N1     N     0.55242   0.88711   0.67365   0.01267  Uiso   1.00
N2     N     0.32589   0.17814   0.57788   0.01267  Uiso   1.00
N3     N     0.95783   0.42628   0.73286   0.01267  Uiso   1.00
N4     N     0.65569   0.65953   0.87849   0.01267  Uiso   1.00
O1     O     0.47951   0.32222   0.72016   0.01267  Uiso   1.00
O2     O     0.41601   0.23282   0.83096   0.01267  Uiso   1.00
O3     O     0.77812   0.25475   0.69349   0.01267  Uiso   1.00
O4     O     0.81899   0.15065   0.79577   0.01267  Uiso   1.00
Cd2    Cd    0.61969   0.20556   0.79197   0.01267  Uiso   1.00
H23    H     0.86280   0.22030   0.10570   0.01267  Uiso   1.00
H24    H     0.79110   0.92680   0.56760   0.01267  Uiso   1.00
H25    H     0.44890   0.47520   0.20140   0.01267  Uiso   1.00
H26    H     0.66430   0.23440   0.58880   0.01267  Uiso   1.00
H27    H     0.72000   0.99580   0.70340   0.01267  Uiso   1.00
H28    H     0.51980   0.11590   0.28730   0.01267  Uiso   1.00
H29    H     0.78190   0.23280   0.41300   0.01267  Uiso   1.00
H30    H     0.59110   0.31800   0.45220   0.01267  Uiso   1.00
H31    H     0.37050   0.39980   0.16420   0.01267  Uiso   1.00
H32    H     0.48620   0.31260   0.14920   0.01267  Uiso   1.00
H33    H     0.54210   0.26070   0.00370   0.01267  Uiso   1.00
H34    H     0.79760   0.01520   0.43520   0.01267  Uiso   1.00
H35    H     0.76860   0.16580   0.36280   0.01267  Uiso   1.00
H36    H     0.40790   0.37880   0.43760   0.01267  Uiso   1.00
H37    H     0.68250   0.28020   0.09440   0.01267  Uiso   1.00
H38    H     0.50450   0.54040   0.87320   0.01267  Uiso   1.00
H39    H     0.64340   0.12630   0.34670   0.01267  Uiso   1.00
H40    H     0.56420   0.41630   0.78830   0.01267  Uiso   1.00
H41    H     0.45790   0.52530   0.02890   0.01267  Uiso   1.00
H42    H     0.75180   0.41280   0.28480   0.01267  Uiso   1.00
H43    H     0.57320   0.47630   0.27250   0.01267  Uiso   1.00
H44    H     0.28200   0.36390   0.38510   0.01267  Uiso   1.00
C27    C     0.76937   0.04253   0.49093   0.01267  Uiso   1.00
C28    C     0.45602   0.37721   0.13635   0.01267  Uiso   1.00
C29    C     0.48297   0.47513   0.99393   0.01267  Uiso   1.00
C30    C     0.82969   0.31076   0.19566   0.01267  Uiso   1.00
C31    C     0.54760   0.40925   0.85035   0.01267  Uiso   1.00
C32    C     0.30730   0.22830   0.29410   0.01267  Uiso   1.00
C33    C     0.51070   0.48413   0.90107   0.01267  Uiso   1.00
C34    C     0.49670   0.16812   0.31868   0.01267  Uiso   1.00
C35    C     0.57260   0.17502   0.35278   0.01267  Uiso   1.00
C36    C     0.35493   0.31691   0.37623   0.01267  Uiso   1.00
C37    C     0.73052   0.13623   0.49773   0.01267  Uiso   1.00
C38    C     0.73873   0.38658   0.24556   0.01267  Uiso   1.00
C39    C     0.69566   0.30761   0.13267   0.01267  Uiso   1.00
C40    C     0.54251   0.25488   0.39610   0.01267  Uiso   1.00
C41    C     0.68975   0.17183   0.58367   0.01267  Uiso   1.00
C42    C     0.49313   0.39025   0.03449   0.01267  Uiso   1.00
C43    C     0.63075   0.42420   0.23930   0.01267  Uiso   1.00
C44    C     0.94718   0.27215   0.20149   0.01267  Uiso   1.00
C45    C     0.38730   0.23789   0.33091   0.01267  Uiso   1.00
C46    C     0.60536   0.38435   0.18253   0.01267  Uiso   1.00
C47    C     0.73290   0.20068   0.41812   0.01267  Uiso   1.00
C48    C     0.76521   0.98969   0.57029   0.01267  Uiso   1.00
C49    C     0.72271   0.03154   0.65144   0.01267  Uiso   1.00
C50    C     0.80440   0.27178   0.13942   0.01267  Uiso   1.00
C51    C     0.43062   0.32562   0.40794   0.01267  Uiso   1.00
C52    C     0.53339   0.31800   0.97782   0.01267  Uiso   1.00
N5     N     0.56047   0.32635   0.88711   0.01267  Uiso   1.00
N6     N     0.49597   0.42212   0.17814   0.01267  Uiso   1.00
N7     N     0.68478   0.12151   0.65953   0.01267  Uiso   1.00
N8     N     0.61589   0.26714   0.42628   0.01267  Uiso   1.00
O5     O     0.96713   0.30651   0.25475   0.01267  Uiso   1.00
O6     O     0.35117   0.16904   0.23282   0.01267  Uiso   1.00
O7     O     0.03036   0.20423   0.15065   0.01267  Uiso   1.00
O8     O     0.19827   0.27984   0.32222   0.01267  Uiso   1.00
Cd3    Cd    0.17475   0.20803   0.20555   0.01267  Uiso   1.00
H45    H     0.35410   0.61490   0.36390   0.01267  Uiso   1.00
H46    H     0.98530   0.58700   0.23280   0.01267  Uiso   1.00
H47    H     0.09090   0.54780   0.31800   0.01267  Uiso   1.00
H48    H     0.01950   0.21170   0.41630   0.01267  Uiso   1.00
H49    H     0.21330   0.56240   0.37880   0.01267  Uiso   1.00
H50    H     0.91690   0.89430   0.22030   0.01267  Uiso   1.00
H51    H     0.22970   0.83580   0.39980   0.01267  Uiso   1.00
H52    H     0.20120   0.85080   0.31260   0.01267  Uiso   1.00
H53    H     0.18720   0.56480   0.01520   0.01267  Uiso   1.00
H54    H     0.28210   0.43240   0.92680   0.01267  Uiso   1.00
H55    H     0.03730   0.90560   0.28020   0.01267  Uiso   1.00
H56    H     0.19720   0.99630   0.26070   0.01267  Uiso   1.00
H57    H     0.01680   0.97110   0.52530   0.01267  Uiso   1.00
H58    H     0.07590   0.79860   0.47520   0.01267  Uiso   1.00
H59    H     0.28420   0.29660   0.99580   0.01267  Uiso   1.00
H60    H     0.83540   0.71520   0.41280   0.01267  Uiso   1.00
H61    H     0.36430   0.71270   0.11590   0.01267  Uiso   1.00
H62    H     0.95050   0.72750   0.47630   0.01267  Uiso   1.00
H63    H     0.10130   0.41120   0.23440   0.01267  Uiso   1.00
H64    H     0.06560   0.63720   0.16580   0.01267  Uiso   1.00
H65    H     0.95510   0.12680   0.54040   0.01267  Uiso   1.00
H66    H     0.23030   0.65330   0.12630   0.01267  Uiso   1.00
C53    C     0.92382   0.86058   0.27178   0.01267  Uiso   1.00
C54    C     0.01029   0.81747   0.38435   0.01267  Uiso   1.00
C55    C     0.18810   0.50907   0.04253   0.01267  Uiso   1.00
C56    C     0.16677   0.86365   0.37721   0.01267  Uiso   1.00
C57    C     0.24510   0.42971   0.98969   0.01267  Uiso   1.00
C58    C     0.24376   0.59206   0.32562   0.01267  Uiso   1.00
C59    C     0.94505   0.76070   0.42420   0.01267  Uiso   1.00
C60    C     0.85955   0.80434   0.31076   0.01267  Uiso   1.00
C61    C     0.99673   0.86733   0.30761   0.01267  Uiso   1.00
C62    C     0.46440   0.70590   0.22830   0.01267  Uiso   1.00
C63    C     0.24575   0.34856   0.03154   0.01267  Uiso   1.00
C64    C     0.25238   0.64722   0.17502   0.01267  Uiso   1.00
C65    C     0.37481   0.66909   0.23789   0.01267  Uiso   1.00
C66    C     0.33518   0.68132   0.16812   0.01267  Uiso   1.00
C67    C     0.06642   0.58188   0.20068   0.01267  Uiso   1.00
C68    C     0.04190   0.00607   0.47513   0.01267  Uiso   1.00
C69    C     0.32816   0.62377   0.31691   0.01267  Uiso   1.00
C70    C     0.00517   0.09893   0.48413   0.01267  Uiso   1.00
C71    C     0.20261   0.60390   0.25488   0.01267  Uiso   1.00
C72    C     0.87469   0.75444   0.38658   0.01267  Uiso   1.00
C73    C     0.13325   0.50227   0.13623   0.01267  Uiso   1.00
C74    C     0.78067   0.79851   0.27215   0.01267  Uiso   1.00
C75    C     0.04315   0.14965   0.40925   0.01267  Uiso   1.00
C76    C     0.14861   0.02218   0.31800   0.01267  Uiso   1.00
C77    C     0.11662   0.96551   0.39025   0.01267  Uiso   1.00
C78    C     0.13842   0.41633   0.17183   0.01267  Uiso   1.00
N9     N     0.11697   0.57372   0.26714   0.01267  Uiso   1.00
N10    N     0.11318   0.11289   0.32635   0.01267  Uiso   1.00
N11    N     0.08191   0.82186   0.42212   0.01267  Uiso   1.00
N12    N     0.19371   0.34047   0.12151   0.01267  Uiso   1.00
O9     O     0.47979   0.76718   0.16904   0.01267  Uiso   1.00
O10    O     0.72636   0.74525   0.30651   0.01267  Uiso   1.00
O11    O     0.76541   0.84935   0.20423   0.01267  Uiso   1.00
O12    O     0.52189   0.67778   0.27984   0.01267  Uiso   1.00
Cd4    Cd    0.61723   0.79444   0.20802   0.01267  Uiso   1.00
H67    H     0.05710   0.71980   0.90560   0.01267  Uiso   1.00
H68    H     0.36130   0.68200   0.54780   0.01267  Uiso   1.00
H69    H     0.42770   0.76720   0.58700   0.01267  Uiso   1.00
H70    H     0.44940   0.58720   0.71520   0.01267  Uiso   1.00
H71    H     0.48750   0.76560   0.41120   0.01267  Uiso   1.00
H72    H     0.32200   0.52370   0.72750   0.01267  Uiso   1.00
H73    H     0.01210   0.47470   0.97110   0.01267  Uiso   1.00
H74    H     0.12550   0.52480   0.79860   0.01267  Uiso   1.00
H75    H     0.93450   0.60020   0.83580   0.01267  Uiso   1.00
H76    H     0.18880   0.77970   0.89430   0.01267  Uiso   1.00
H77    H     0.11640   0.87370   0.65330   0.01267  Uiso   1.00
H78    H     0.91810   0.45960   0.12680   0.01267  Uiso   1.00
H79    H     0.80650   0.73930   0.99630   0.01267  Uiso   1.00
H80    H     0.41920   0.00420   0.29660   0.01267  Uiso   1.00
H81    H     0.24800   0.98480   0.56480   0.01267  Uiso   1.00
H82    H     0.03100   0.63610   0.61490   0.01267  Uiso   1.00
H83    H     0.29720   0.83420   0.63720   0.01267  Uiso   1.00
H84    H     0.28550   0.07320   0.43240   0.01267  Uiso   1.00
H85    H     0.94800   0.68740   0.85080   0.01267  Uiso   1.00
H86    H     0.92300   0.88410   0.71270   0.01267  Uiso   1.00
H87    H     0.76880   0.58370   0.21170   0.01267  Uiso   1.00
H88    H     0.22430   0.62120   0.56240   0.01267  Uiso   1.00
C79    C     0.35170   0.79932   0.58188   0.01267  Uiso   1.00
C80    C     0.82970   0.77170   0.70590   0.01267  Uiso   1.00
C81    C     0.42082   0.72785   0.79851   0.01267  Uiso   1.00
C82    C     0.95610   0.76211   0.66909   0.01267  Uiso   1.00
C83    C     0.17224   0.61565   0.81747   0.01267  Uiso   1.00
C84    C     0.30283   0.95747   0.50907   0.01267  Uiso   1.00
C85    C     0.16418   0.67438   0.59206   0.01267  Uiso   1.00
C86    C     0.36448   0.86377   0.50227   0.01267  Uiso   1.00
C87    C     0.21560   0.72822   0.86058   0.01267  Uiso   1.00
C88    C     0.33611   0.68924   0.80434   0.01267  Uiso   1.00
C89    C     0.96958   0.62279   0.86365   0.01267  Uiso   1.00
C90    C     0.98350   0.83188   0.68132   0.01267  Uiso   1.00
C91    C     0.37087   0.61342   0.75444   0.01267  Uiso   1.00
C92    C     0.95203   0.52487   0.00607   0.01267  Uiso   1.00
C93    C     0.19349   0.74512   0.60390   0.01267  Uiso   1.00
C94    C     0.32519   0.01031   0.42971   0.01267  Uiso   1.00
C95    C     0.04807   0.68309   0.62377   0.01267  Uiso   1.00
C96    C     0.80720   0.59075   0.14965   0.01267  Uiso   1.00
C97    C     0.91787   0.60975   0.96551   0.01267  Uiso   1.00
C98    C     0.10040   0.82498   0.64722   0.01267  Uiso   1.00
C99    C     0.82921   0.68200   0.02218   0.01267  Uiso   1.00
C100   C     0.89590   0.51587   0.09893   0.01267  Uiso   1.00
C101   C     0.40569   0.96846   0.34856   0.01267  Uiso   1.00
C102   C     0.13594   0.69239   0.86733   0.01267  Uiso   1.00
C103   C     0.44525   0.82817   0.41633   0.01267  Uiso   1.00
C104   C     0.29425   0.57580   0.76070   0.01267  Uiso   1.00
N13    N     0.09623   0.57788   0.82186   0.01267  Uiso   1.00
N14    N     0.77393   0.67365   0.11289   0.01267  Uiso   1.00
N15    N     0.30931   0.73286   0.57372   0.01267  Uiso   1.00
N16    N     0.46582   0.87849   0.34047   0.01267  Uiso   1.00
O13    O     0.75303   0.83096   0.76718   0.01267  Uiso   1.00
O14    O     0.38524   0.79577   0.84935   0.01267  Uiso   1.00
O15    O     0.80033   0.72016   0.67778   0.01267  Uiso   1.00
O16    O     0.52839   0.69349   0.74525   0.01267  Uiso   1.00
