data_image0
_cell_length_a       21.5373
_cell_length_b       21.5373
_cell_length_c       8.8753
_cell_angle_alpha    90
_cell_angle_beta     90
_cell_angle_gamma    120

_symmetry_space_group_name_H-M    "P 1"
_symmetry_int_tables_number       1

loop_
  _symmetry_equiv_pos_as_xyz
  'x, y, z'

loop_
  _atom_site_label
  _atom_site_occupancy
  _atom_site_fract_x
  _atom_site_fract_y
  _atom_site_fract_z
  _atom_site_thermal_displace_type
  _atom_site_B_iso_or_equiv
  _atom_site_type_symbol
  Cu1      1.0000 0.29680  0.17445  0.46447  Biso   1.000  Cu
  C1       1.0000 0.26583  0.00983  0.75000  Biso   1.000  C
  C2       1.0000 0.24627  0.03249  0.53040  Biso   1.000  C
  C3       1.0000 0.21595  0.03069  0.37960  Biso   1.000  C
  N1       1.0000 0.30355  0.08123  0.73430  Biso   1.000  N
  N2       1.0000 0.26587  0.97481  0.87730  Biso   1.000  N
  H1       1.0000 0.29110  0.99860  0.95370  Biso   1.000  H
  H2       1.0000 0.24070  0.92880  0.88150  Biso   1.000  H
  N3       1.0000 0.29009  0.09467  0.59010  Biso   1.000  N
  N4       1.0000 0.23016  0.97703  0.62350  Biso   1.000  N
  O1       1.0000 0.23797  0.09324  0.32510  Biso   1.000  O
  O2       1.0000 0.17315  0.97309  0.32210  Biso   1.000  O
  Cu2      1.0000 0.96347  0.50779  0.79780  Biso   1.000  Cu
  C4       1.0000 0.93250  0.34316  0.08333  Biso   1.000  C
  C5       1.0000 0.91294  0.36582  0.86373  Biso   1.000  C
  C6       1.0000 0.88262  0.36402  0.71293  Biso   1.000  C
  N5       1.0000 0.97022  0.41456  0.06763  Biso   1.000  N
  N6       1.0000 0.93254  0.30814  0.21063  Biso   1.000  N
  H3       1.0000 0.95777  0.33193  0.28703  Biso   1.000  H
  H4       1.0000 0.90737  0.26213  0.21483  Biso   1.000  H
  N7       1.0000 0.95676  0.42800  0.92343  Biso   1.000  N
  N8       1.0000 0.89683  0.31036  0.95683  Biso   1.000  N
  O3       1.0000 0.90464  0.42657  0.65843  Biso   1.000  O
  O4       1.0000 0.83982  0.30642  0.65543  Biso   1.000  O
  Cu3      1.0000 0.63013  0.84112  0.13114  Biso   1.000  Cu
  C7       1.0000 0.59916  0.67650  0.41667  Biso   1.000  C
  C8       1.0000 0.57960  0.69916  0.19707  Biso   1.000  C
  C9       1.0000 0.54928  0.69736  0.04627  Biso   1.000  C
  N9       1.0000 0.63688  0.74790  0.40097  Biso   1.000  N
  N10      1.0000 0.59920  0.64148  0.54397  Biso   1.000  N
  H5       1.0000 0.62443  0.66527  0.62037  Biso   1.000  H
  H6       1.0000 0.57403  0.59547  0.54817  Biso   1.000  H
  N11      1.0000 0.62342  0.76134  0.25677  Biso   1.000  N
  N12      1.0000 0.56349  0.64370  0.29017  Biso   1.000  N
  O5       1.0000 0.57130  0.75991  0.99177  Biso   1.000  O
  O6       1.0000 0.50648  0.63976  0.98877  Biso   1.000  O
  Cu4      1.0000 0.82555  0.12235  0.46447  Biso   1.000  Cu
  C10      1.0000 0.99017  0.25600  0.75000  Biso   1.000  C
  C11      1.0000 0.96751  0.21378  0.53040  Biso   1.000  C
  C12      1.0000 0.96931  0.18526  0.37960  Biso   1.000  C
  N13      1.0000 0.91877  0.22232  0.73430  Biso   1.000  N
  N14      1.0000 0.02519  0.29106  0.87730  Biso   1.000  N
  H7       1.0000 0.00140  0.29250  0.95370  Biso   1.000  H
  H8       1.0000 0.07120  0.31190  0.88150  Biso   1.000  H
  N15      1.0000 0.90533  0.19542  0.59010  Biso   1.000  N
  N16      1.0000 0.02297  0.25313  0.62350  Biso   1.000  N
  O7       1.0000 0.90676  0.14473  0.32510  Biso   1.000  O
  O8       1.0000 0.02691  0.20006  0.32210  Biso   1.000  O
  Cu5      1.0000 0.49221  0.45568  0.79780  Biso   1.000  Cu
  C13      1.0000 0.65684  0.58933  0.08333  Biso   1.000  C
  C14      1.0000 0.63418  0.54711  0.86373  Biso   1.000  C
  C15      1.0000 0.63598  0.51859  0.71293  Biso   1.000  C
  N17      1.0000 0.58544  0.55565  0.06763  Biso   1.000  N
  N18      1.0000 0.69186  0.62439  0.21063  Biso   1.000  N
  H9       1.0000 0.66807  0.62583  0.28703  Biso   1.000  H
  H10      1.0000 0.73787  0.64523  0.21483  Biso   1.000  H
  N19      1.0000 0.57200  0.52875  0.92343  Biso   1.000  N
  N20      1.0000 0.68964  0.58646  0.95683  Biso   1.000  N
  O9       1.0000 0.57343  0.47806  0.65843  Biso   1.000  O
  O10      1.0000 0.69358  0.53339  0.65543  Biso   1.000  O
  Cu6      1.0000 0.15888  0.78901  0.13114  Biso   1.000  Cu
  C16      1.0000 0.32350  0.92267  0.41667  Biso   1.000  C
  C17      1.0000 0.30084  0.88045  0.19707  Biso   1.000  C
  C18      1.0000 0.30264  0.85193  0.04627  Biso   1.000  C
  N21      1.0000 0.25210  0.88899  0.40097  Biso   1.000  N
  N22      1.0000 0.35852  0.95773  0.54397  Biso   1.000  N
  H11      1.0000 0.33473  0.95917  0.62037  Biso   1.000  H
  H12      1.0000 0.40453  0.97857  0.54817  Biso   1.000  H
  N23      1.0000 0.23866  0.86209  0.25677  Biso   1.000  N
  N24      1.0000 0.35630  0.91980  0.29017  Biso   1.000  N
  O11      1.0000 0.24009  0.81140  0.99177  Biso   1.000  O
  O12      1.0000 0.36024  0.86673  0.98877  Biso   1.000  O
  Cu7      1.0000 0.87765  0.70320  0.46447  Biso   1.000  Cu
  C19      1.0000 0.74400  0.73417  0.75000  Biso   1.000  C
  C20      1.0000 0.78622  0.75373  0.53040  Biso   1.000  C
  C21      1.0000 0.81474  0.78405  0.37960  Biso   1.000  C
  N25      1.0000 0.77768  0.69645  0.73430  Biso   1.000  N
  N26      1.0000 0.70894  0.73413  0.87730  Biso   1.000  N
  H13      1.0000 0.70750  0.70890  0.95370  Biso   1.000  H
  H14      1.0000 0.68810  0.75930  0.88150  Biso   1.000  H
  N27      1.0000 0.80458  0.70991  0.59010  Biso   1.000  N
  N28      1.0000 0.74687  0.76984  0.62350  Biso   1.000  N
  O13      1.0000 0.85527  0.76203  0.32510  Biso   1.000  O
  O14      1.0000 0.79994  0.82685  0.32210  Biso   1.000  O
  Cu8      1.0000 0.54432  0.03653  0.79780  Biso   1.000  Cu
  C22      1.0000 0.41067  0.06750  0.08333  Biso   1.000  C
  C23      1.0000 0.45289  0.08706  0.86373  Biso   1.000  C
  C24      1.0000 0.48141  0.11738  0.71293  Biso   1.000  C
  N29      1.0000 0.44435  0.02978  0.06763  Biso   1.000  N
  N30      1.0000 0.37561  0.06746  0.21063  Biso   1.000  N
  H15      1.0000 0.37417  0.04223  0.28703  Biso   1.000  H
  H16      1.0000 0.35477  0.09263  0.21483  Biso   1.000  H
  N31      1.0000 0.47125  0.04324  0.92343  Biso   1.000  N
  N32      1.0000 0.41354  0.10317  0.95683  Biso   1.000  N
  O15      1.0000 0.52194  0.09536  0.65843  Biso   1.000  O
  O16      1.0000 0.46661  0.16018  0.65543  Biso   1.000  O
  Cu9      1.0000 0.21099  0.36987  0.13114  Biso   1.000  Cu
  C25      1.0000 0.07733  0.40084  0.41667  Biso   1.000  C
  C26      1.0000 0.11955  0.42040  0.19707  Biso   1.000  C
  C27      1.0000 0.14807  0.45072  0.04627  Biso   1.000  C
  N33      1.0000 0.11101  0.36312  0.40097  Biso   1.000  N
  N34      1.0000 0.04227  0.40080  0.54397  Biso   1.000  N
  H17      1.0000 0.04083  0.37557  0.62037  Biso   1.000  H
  H18      1.0000 0.02143  0.42597  0.54817  Biso   1.000  H
  N35      1.0000 0.13791  0.37658  0.25677  Biso   1.000  N
  N36      1.0000 0.08020  0.43651  0.29017  Biso   1.000  N
  O17      1.0000 0.18860  0.42870  0.99177  Biso   1.000  O
  O18      1.0000 0.13327  0.49352  0.98877  Biso   1.000  O
  Cu10     1.0000 0.70320  0.82555  0.53553  Biso   1.000  Cu
  C28      1.0000 0.73417  0.99017  0.25000  Biso   1.000  C
  C29      1.0000 0.75373  0.96751  0.46960  Biso   1.000  C
  C30      1.0000 0.78405  0.96931  0.62040  Biso   1.000  C
  N37      1.0000 0.69645  0.91877  0.26570  Biso   1.000  N
  N38      1.0000 0.73413  0.02519  0.12270  Biso   1.000  N
  H19      1.0000 0.70890  0.00140  0.04630  Biso   1.000  H
  H20      1.0000 0.75930  0.07120  0.11850  Biso   1.000  H
  N39      1.0000 0.70991  0.90533  0.40990  Biso   1.000  N
  N40      1.0000 0.76984  0.02297  0.37650  Biso   1.000  N
  O19      1.0000 0.76203  0.90676  0.67490  Biso   1.000  O
  O20      1.0000 0.82685  0.02691  0.67790  Biso   1.000  O
  Cu11     1.0000 0.36987  0.15888  0.86886  Biso   1.000  Cu
  C31      1.0000 0.40084  0.32350  0.58333  Biso   1.000  C
  C32      1.0000 0.42040  0.30084  0.80293  Biso   1.000  C
  C33      1.0000 0.45072  0.30264  0.95373  Biso   1.000  C
  N41      1.0000 0.36312  0.25210  0.59903  Biso   1.000  N
  N42      1.0000 0.40080  0.35852  0.45603  Biso   1.000  N
  H21      1.0000 0.37557  0.33473  0.37963  Biso   1.000  H
  H22      1.0000 0.42597  0.40453  0.45183  Biso   1.000  H
  N43      1.0000 0.37658  0.23866  0.74323  Biso   1.000  N
  N44      1.0000 0.43651  0.35630  0.70983  Biso   1.000  N
  O21      1.0000 0.42870  0.24009  0.00823  Biso   1.000  O
  O22      1.0000 0.49352  0.36024  0.01123  Biso   1.000  O
  Cu12     1.0000 0.03653  0.49221  0.20220  Biso   1.000  Cu
  C34      1.0000 0.06750  0.65684  0.91667  Biso   1.000  C
  C35      1.0000 0.08706  0.63418  0.13627  Biso   1.000  C
  C36      1.0000 0.11738  0.63598  0.28707  Biso   1.000  C
  N45      1.0000 0.02978  0.58544  0.93237  Biso   1.000  N
  N46      1.0000 0.06746  0.69186  0.78937  Biso   1.000  N
  H23      1.0000 0.04223  0.66807  0.71297  Biso   1.000  H
  H24      1.0000 0.09263  0.73787  0.78517  Biso   1.000  H
  N47      1.0000 0.04324  0.57200  0.07657  Biso   1.000  N
  N48      1.0000 0.10317  0.68964  0.04317  Biso   1.000  N
  O23      1.0000 0.09536  0.57343  0.34157  Biso   1.000  O
  O24      1.0000 0.16018  0.69358  0.34457  Biso   1.000  O
  Cu13     1.0000 0.17445  0.87765  0.53553  Biso   1.000  Cu
  C37      1.0000 0.00983  0.74400  0.25000  Biso   1.000  C
  C38      1.0000 0.03249  0.78622  0.46960  Biso   1.000  C
  C39      1.0000 0.03069  0.81474  0.62040  Biso   1.000  C
  N49      1.0000 0.08123  0.77768  0.26570  Biso   1.000  N
  N50      1.0000 0.97481  0.70894  0.12270  Biso   1.000  N
  H25      1.0000 0.99860  0.70750  0.04630  Biso   1.000  H
  H26      1.0000 0.92880  0.68810  0.11850  Biso   1.000  H
  N51      1.0000 0.09467  0.80458  0.40990  Biso   1.000  N
  N52      1.0000 0.97703  0.74687  0.37650  Biso   1.000  N
  O25      1.0000 0.09324  0.85527  0.67490  Biso   1.000  O
  O26      1.0000 0.97309  0.79994  0.67790  Biso   1.000  O
  Cu14     1.0000 0.84112  0.21099  0.86886  Biso   1.000  Cu
  C40      1.0000 0.67650  0.07733  0.58333  Biso   1.000  C
  C41      1.0000 0.69916  0.11955  0.80293  Biso   1.000  C
  C42      1.0000 0.69736  0.14807  0.95373  Biso   1.000  C
  N53      1.0000 0.74790  0.11101  0.59903  Biso   1.000  N
  N54      1.0000 0.64148  0.04227  0.45603  Biso   1.000  N
  H27      1.0000 0.66527  0.04083  0.37963  Biso   1.000  H
  H28      1.0000 0.59547  0.02143  0.45183  Biso   1.000  H
  N55      1.0000 0.76134  0.13791  0.74323  Biso   1.000  N
  N56      1.0000 0.64370  0.08020  0.70983  Biso   1.000  N
  O27      1.0000 0.75991  0.18860  0.00823  Biso   1.000  O
  O28      1.0000 0.63976  0.13327  0.01123  Biso   1.000  O
  Cu15     1.0000 0.50779  0.54432  0.20220  Biso   1.000  Cu
  C43      1.0000 0.34316  0.41067  0.91667  Biso   1.000  C
  C44      1.0000 0.36582  0.45289  0.13627  Biso   1.000  C
  C45      1.0000 0.36402  0.48141  0.28707  Biso   1.000  C
  N57      1.0000 0.41456  0.44435  0.93237  Biso   1.000  N
  N58      1.0000 0.30814  0.37561  0.78937  Biso   1.000  N
  H29      1.0000 0.33193  0.37417  0.71297  Biso   1.000  H
  H30      1.0000 0.26213  0.35477  0.78517  Biso   1.000  H
  N59      1.0000 0.42800  0.47125  0.07657  Biso   1.000  N
  N60      1.0000 0.31036  0.41354  0.04317  Biso   1.000  N
  O29      1.0000 0.42657  0.52194  0.34157  Biso   1.000  O
  O30      1.0000 0.30642  0.46661  0.34457  Biso   1.000  O
  Cu16     1.0000 0.12235  0.29680  0.53553  Biso   1.000  Cu
  C46      1.0000 0.25600  0.26583  0.25000  Biso   1.000  C
  C47      1.0000 0.21378  0.24627  0.46960  Biso   1.000  C
  C48      1.0000 0.18526  0.21595  0.62040  Biso   1.000  C
  N61      1.0000 0.22232  0.30355  0.26570  Biso   1.000  N
  N62      1.0000 0.29106  0.26587  0.12270  Biso   1.000  N
  H31      1.0000 0.29250  0.29110  0.04630  Biso   1.000  H
  H32      1.0000 0.31190  0.24070  0.11850  Biso   1.000  H
  N63      1.0000 0.19542  0.29009  0.40990  Biso   1.000  N
  N64      1.0000 0.25313  0.23016  0.37650  Biso   1.000  N
  O31      1.0000 0.14473  0.23797  0.67490  Biso   1.000  O
  O32      1.0000 0.20006  0.17315  0.67790  Biso   1.000  O
  Cu17     1.0000 0.78901  0.63013  0.86886  Biso   1.000  Cu
  C49      1.0000 0.92267  0.59916  0.58333  Biso   1.000  C
  C50      1.0000 0.88045  0.57960  0.80293  Biso   1.000  C
  C51      1.0000 0.85193  0.54928  0.95373  Biso   1.000  C
  N65      1.0000 0.88899  0.63688  0.59903  Biso   1.000  N
  N66      1.0000 0.95773  0.59920  0.45603  Biso   1.000  N
  H33      1.0000 0.95917  0.62443  0.37963  Biso   1.000  H
  H34      1.0000 0.97857  0.57403  0.45183  Biso   1.000  H
  N67      1.0000 0.86209  0.62342  0.74323  Biso   1.000  N
  N68      1.0000 0.91980  0.56349  0.70983  Biso   1.000  N
  O33      1.0000 0.81140  0.57130  0.00823  Biso   1.000  O
  O34      1.0000 0.86673  0.50648  0.01123  Biso   1.000  O
  Cu18     1.0000 0.45568  0.96347  0.20220  Biso   1.000  Cu
  C52      1.0000 0.58933  0.93250  0.91667  Biso   1.000  C
  C53      1.0000 0.54711  0.91294  0.13627  Biso   1.000  C
  C54      1.0000 0.51859  0.88262  0.28707  Biso   1.000  C
  N69      1.0000 0.55565  0.97022  0.93237  Biso   1.000  N
  N70      1.0000 0.62439  0.93254  0.78937  Biso   1.000  N
  H35      1.0000 0.62583  0.95777  0.71297  Biso   1.000  H
  H36      1.0000 0.64523  0.90737  0.78517  Biso   1.000  H
  N71      1.0000 0.52875  0.95676  0.07657  Biso   1.000  N
  N72      1.0000 0.58646  0.89683  0.04317  Biso   1.000  N
  O35      1.0000 0.47806  0.90464  0.34157  Biso   1.000  O
  O36      1.0000 0.53339  0.83982  0.34457  Biso   1.000  O
