data_JOFKIA_clean
_audit_creation_date              2015-10-16
_audit_creation_method            'Materials Studio'
_symmetry_space_group_name_H-M    'P1'
_symmetry_Int_Tables_number       1
_symmetry_cell_setting            triclinic
loop_
_symmetry_equiv_pos_as_xyz
  x,y,z
_cell_length_a                    8.9042
_cell_length_b                    12.8056
_cell_length_c                    12.8056
_cell_angle_alpha                 65.2022
_cell_angle_beta                  76.5981
_cell_angle_gamma                 103.4020
loop_
_atom_site_label
_atom_site_type_symbol
_atom_site_fract_x
_atom_site_fract_y
_atom_site_fract_z
_atom_site_U_iso_or_equiv
_atom_site_adp_type
_atom_site_occupancy
Cu1    Cu    0.73851   0.58044   0.47156   0.01267  Uiso   1.00
Cu2    Cu    0.15807   0.94800   0.58044   0.01267  Uiso   1.00
Cu3    Cu    0.21007   0.47156   0.94800   0.01267  Uiso   1.00
Cu4    Cu    0.26149   0.41956   0.52844   0.01267  Uiso   1.00
Cu5    Cu    0.78993   0.52844   0.05200   0.01267  Uiso   1.00
Cu6    Cu    0.84193   0.05200   0.41956   0.01267  Uiso   1.00
H1     H     0.82340   0.27320   0.44580   0.01267  Uiso   1.00
H2     H     0.38400   0.48730   0.16260   0.01267  Uiso   1.00
H3     H     0.73080   0.55420   0.71900   0.01267  Uiso   1.00
H4     H     0.89670   0.35010   0.48730   0.01267  Uiso   1.00
H5     H     0.54660   0.16260   0.35010   0.01267  Uiso   1.00
H6     H     0.61600   0.51270   0.83740   0.01267  Uiso   1.00
H7     H     0.45340   0.83740   0.64990   0.01267  Uiso   1.00
H8     H     0.10330   0.64990   0.51270   0.01267  Uiso   1.00
H9     H     0.55020   0.28100   0.27320   0.01267  Uiso   1.00
H10    H     0.17660   0.72680   0.55420   0.01267  Uiso   1.00
H11    H     0.26920   0.44580   0.28100   0.01267  Uiso   1.00
H12    H     0.44980   0.71900   0.72680   0.01267  Uiso   1.00
C1     C     0.27620   0.46050   0.72100   0.01267  Uiso   1.00
C2     C     0.99720   0.72100   0.81850   0.01267  Uiso   1.00
C3     C     0.30650   0.15500   0.59760   0.01267  Uiso   1.00
C4     C     0.23990   0.72400   0.75430   0.01267  Uiso   1.00
C5     C     0.69350   0.84500   0.40240   0.01267  Uiso   1.00
C6     C     0.00280   0.27900   0.18150   0.01267  Uiso   1.00
C7     C     0.00580   0.24570   0.47830   0.01267  Uiso   1.00
C8     C     0.51590   0.52170   0.72400   0.01267  Uiso   1.00
C9     C     0.15150   0.24740   0.15500   0.01267  Uiso   1.00
C10    C     0.84850   0.75260   0.84500   0.01267  Uiso   1.00
C11    C     0.18430   0.18150   0.53950   0.01267  Uiso   1.00
C12    C     0.90410   0.59760   0.24740   0.01267  Uiso   1.00
C13    C     0.72380   0.53950   0.27900   0.01267  Uiso   1.00
C14    C     0.81570   0.81850   0.46050   0.01267  Uiso   1.00
C15    C     0.48410   0.47830   0.27600   0.01267  Uiso   1.00
C16    C     0.76010   0.27600   0.24570   0.01267  Uiso   1.00
C17    C     0.99420   0.75430   0.52170   0.01267  Uiso   1.00
C18    C     0.09590   0.40240   0.75260   0.01267  Uiso   1.00
N1     N     0.64674   0.51671   0.20689   0.01267  Uiso   1.00
N2     N     0.59784   0.24018   0.31686   0.01267  Uiso   1.00
N3     N     0.35326   0.48329   0.79311   0.01267  Uiso   1.00
N4     N     0.13003   0.27640   0.51671   0.01267  Uiso   1.00
N5     N     0.01206   0.85888   0.52530   0.01267  Uiso   1.00
N6     N     0.98794   0.14112   0.47470   0.01267  Uiso   1.00
N7     N     0.85363   0.20689   0.27640   0.01267  Uiso   1.00
N8     N     0.99555   0.61487   0.89942   0.01267  Uiso   1.00
N9     N     0.46264   0.47470   0.38418   0.01267  Uiso   1.00
N10    N     0.38068   0.48571   0.61487   0.01267  Uiso   1.00
N11    N     0.00445   0.38513   0.10058   0.01267  Uiso   1.00
N12    N     0.53736   0.52530   0.61582   0.01267  Uiso   1.00
N13    N     0.14637   0.79311   0.72360   0.01267  Uiso   1.00
N14    N     0.10503   0.10058   0.51429   0.01267  Uiso   1.00
N15    N     0.35766   0.44296   0.24018   0.01267  Uiso   1.00
N16    N     0.15318   0.61582   0.85888   0.01267  Uiso   1.00
N17    N     0.86997   0.72360   0.48329   0.01267  Uiso   1.00
N18    N     0.08530   0.68314   0.55704   0.01267  Uiso   1.00
N19    N     0.84682   0.38418   0.14112   0.01267  Uiso   1.00
N20    N     0.89497   0.89942   0.48571   0.01267  Uiso   1.00
N21    N     0.40216   0.75982   0.68314   0.01267  Uiso   1.00
N22    N     0.91470   0.31686   0.44296   0.01267  Uiso   1.00
N23    N     0.64234   0.55704   0.75982   0.01267  Uiso   1.00
N24    N     0.61932   0.51429   0.38513   0.01267  Uiso   1.00
O1     O     0.06365   0.38393   0.66798   0.01267  Uiso   1.00
O2     O     0.99546   0.37494   0.85276   0.01267  Uiso   1.00
O3     O     0.84822   0.85276   0.77230   0.01267  Uiso   1.00
O4     O     0.93635   0.61607   0.33202   0.01267  Uiso   1.00
O5     O     0.32028   0.05191   0.61607   0.01267  Uiso   1.00
O6     O     0.15178   0.14724   0.22770   0.01267  Uiso   1.00
O7     O     0.62052   0.77230   0.37494   0.01267  Uiso   1.00
O8     O     0.37948   0.22770   0.62506   0.01267  Uiso   1.00
O9     O     0.73163   0.66798   0.94809   0.01267  Uiso   1.00
O10    O     0.00454   0.62506   0.14724   0.01267  Uiso   1.00
O11    O     0.67972   0.94809   0.38393   0.01267  Uiso   1.00
O12    O     0.26837   0.33202   0.05191   0.01267  Uiso   1.00
