data_JOGBIR_clean
_audit_creation_date              2014-07-02
_audit_creation_method            'Materials Studio'
_symmetry_space_group_name_H-M    'P1'
_symmetry_Int_Tables_number       1
_symmetry_cell_setting            triclinic
loop_
_symmetry_equiv_pos_as_xyz
  x,y,z
_cell_length_a                    6.6579
_cell_length_b                    15.2582
_cell_length_c                    15.2582
_cell_angle_alpha                 120.0000
_cell_angle_beta                  90.0000
_cell_angle_gamma                 90.0000
loop_
_atom_site_label
_atom_site_type_symbol
_atom_site_fract_x
_atom_site_fract_y
_atom_site_fract_z
_atom_site_U_iso_or_equiv
_atom_site_adp_type
_atom_site_occupancy
Cu1    Cu    0.51160   0.91582   0.86431   0.01267  Uiso   1.00
Cu2    Cu    0.21649   0.75758   0.46937   0.01267  Uiso   1.00
Cu3    Cu    0.51160   0.94849   0.08418   0.01267  Uiso   1.00
Cu4    Cu    0.21649   0.71179   0.24242   0.01267  Uiso   1.00
Cu5    Cu    0.51160   0.13569   0.05151   0.01267  Uiso   1.00
Cu6    Cu    0.21649   0.53063   0.28821   0.01267  Uiso   1.00
Cu7    Cu    0.85710   0.00000  -0.00000   0.01267  Uiso   1.00
Cu8    Cu    0.87310   0.66667   0.33334   0.01267  Uiso   1.00
H1     H     0.09790   0.88810   0.77470   0.01267  Uiso   1.00
H2     H     0.09560   0.79690   0.66310   0.01267  Uiso   1.00
H3     H     0.33500   0.97320   0.72980   0.01267  Uiso   1.00
H4     H     0.61700   0.87410   0.67450   0.01267  Uiso   1.00
H5     H     0.64270   0.78940   0.56030   0.01267  Uiso   1.00
H6     H     0.36040   0.70320   0.58540   0.01267  Uiso   1.00
H7     H     0.55650   0.70360   0.64340   0.01267  Uiso   1.00
H8     H     0.11410   0.02590   0.64520   0.01267  Uiso   1.00
H9     H     0.97670   0.99860   0.71150   0.01267  Uiso   1.00
H10    H     0.99810   0.92260   0.59510   0.01267  Uiso   1.00
H11    H     0.24050   0.78020   0.84720   0.01267  Uiso   1.00
H12    H     0.11710   0.72350   0.74740   0.01267  Uiso   1.00
H13    H     0.43350   0.61030   0.69940   0.01267  Uiso   1.00
H14    H     0.20360   0.65340   0.86740   0.01267  Uiso   1.00
H15    H     0.34490   0.55520   0.80730   0.01267  Uiso   1.00
H16    H     0.53980   0.89640   0.48690   0.01267  Uiso   1.00
H17    H     0.32910   0.95040   0.51360   0.01267  Uiso   1.00
H18    H     0.58590   0.03070   0.68410   0.01267  Uiso   1.00
H19    H     0.52160   0.11600   0.56170   0.01267  Uiso   1.00
H20    H     0.62470   0.17230   0.67200   0.01267  Uiso   1.00
H21    H     0.09790   0.88660   0.11190   0.01267  Uiso   1.00
H22    H     0.09560   0.86620   0.20310   0.01267  Uiso   1.00
H23    H     0.33500   0.75660   0.02680   0.01267  Uiso   1.00
H24    H     0.61700   0.80040   0.12590   0.01267  Uiso   1.00
H25    H     0.64270   0.77090   0.21060   0.01267  Uiso   1.00
H26    H     0.36040   0.88220   0.29680   0.01267  Uiso   1.00
H27    H     0.55650   0.93980   0.29640   0.01267  Uiso   1.00
H28    H     0.11410   0.61930   0.97410   0.01267  Uiso   1.00
H29    H     0.97670   0.71290   0.00140   0.01267  Uiso   1.00
H30    H     0.99810   0.67250   0.07740   0.01267  Uiso   1.00
H31    H     0.24050   0.06700   0.21980   0.01267  Uiso   1.00
H32    H     0.11710   0.02390   0.27650   0.01267  Uiso   1.00
H33    H     0.43350   0.08910   0.38970   0.01267  Uiso   1.00
H34    H     0.20360   0.21400   0.34660   0.01267  Uiso   1.00
H35    H     0.34490   0.25210   0.44480   0.01267  Uiso   1.00
H36    H     0.53980   0.59050   0.10360   0.01267  Uiso   1.00
H37    H     0.32910   0.56320   0.04960   0.01267  Uiso   1.00
H38    H     0.58590   0.65340   0.96930   0.01267  Uiso   1.00
H39    H     0.52160   0.44570   0.88400   0.01267  Uiso   1.00
H40    H     0.62470   0.49970   0.82770   0.01267  Uiso   1.00
H41    H     0.09790   0.22530   0.11340   0.01267  Uiso   1.00
H42    H     0.09560   0.33690   0.13380   0.01267  Uiso   1.00
H43    H     0.33500   0.27020   0.24340   0.01267  Uiso   1.00
H44    H     0.61700   0.32550   0.19960   0.01267  Uiso   1.00
H45    H     0.64270   0.43970   0.22910   0.01267  Uiso   1.00
H46    H     0.36040   0.41460   0.11780   0.01267  Uiso   1.00
H47    H     0.55650   0.35660   0.06020   0.01267  Uiso   1.00
H48    H     0.11410   0.35480   0.38070   0.01267  Uiso   1.00
H49    H     0.97670   0.28850   0.28710   0.01267  Uiso   1.00
H50    H     0.99810   0.40490   0.32750   0.01267  Uiso   1.00
H51    H     0.24050   0.15280   0.93300   0.01267  Uiso   1.00
H52    H     0.11710   0.25260   0.97610   0.01267  Uiso   1.00
H53    H     0.43350   0.30060   0.91090   0.01267  Uiso   1.00
H54    H     0.20360   0.13260   0.78600   0.01267  Uiso   1.00
H55    H     0.34490   0.19270   0.74790   0.01267  Uiso   1.00
H56    H     0.53980   0.51310   0.40950   0.01267  Uiso   1.00
H57    H     0.32910   0.48640   0.43680   0.01267  Uiso   1.00
H58    H     0.58590   0.31590   0.34660   0.01267  Uiso   1.00
H59    H     0.52160   0.43830   0.55430   0.01267  Uiso   1.00
H60    H     0.62470   0.32800   0.50030   0.01267  Uiso   1.00
C1     C     0.17890   0.84980   0.71440   0.01267  Uiso   1.00
C2     C     0.25310   0.91980   0.67630   0.01267  Uiso   1.00
C3     C     0.54750   0.82200   0.61560   0.01267  Uiso   1.00
C4     C     0.45390   0.74610   0.63840   0.01267  Uiso   1.00
C5     C     0.06700   0.97190   0.65490   0.01267  Uiso   1.00
C6     C     0.25260   0.73920   0.77430   0.01267  Uiso   1.00
C7     C     0.34480   0.64570   0.75280   0.01267  Uiso   1.00
C8     C     0.29290   0.61520   0.81500   0.01267  Uiso   1.00
C9     C     0.44400   0.93320   0.54110   0.01267  Uiso   1.00
C10    C     0.54150   0.03020   0.62600   0.01267  Uiso   1.00
C11    C     0.56510   0.11510   0.61920   0.01267  Uiso   1.00
C12    C     0.17890   0.86460   0.15020   0.01267  Uiso   1.00
C13    C     0.25310   0.75650   0.08020   0.01267  Uiso   1.00
C14    C     0.54750   0.79360   0.17800   0.01267  Uiso   1.00
C15    C     0.45390   0.89230   0.25390   0.01267  Uiso   1.00
C16    C     0.06700   0.68300   0.02810   0.01267  Uiso   1.00
C17    C     0.25260   0.03510   0.26080   0.01267  Uiso   1.00
C18    C     0.34480   0.10710   0.35430   0.01267  Uiso   1.00
C19    C     0.29290   0.19980   0.38480   0.01267  Uiso   1.00
C20    C     0.44400   0.60790   0.06680   0.01267  Uiso   1.00
C21    C     0.54150   0.59580   0.96980   0.01267  Uiso   1.00
C22    C     0.56510   0.50410   0.88490   0.01267  Uiso   1.00
C23    C     0.17890   0.28560   0.13540   0.01267  Uiso   1.00
C24    C     0.25310   0.32370   0.24350   0.01267  Uiso   1.00
C25    C     0.54750   0.38440   0.20640   0.01267  Uiso   1.00
C26    C     0.45390   0.36160   0.10770   0.01267  Uiso   1.00
C27    C     0.06700   0.34510   0.31700   0.01267  Uiso   1.00
C28    C     0.25260   0.22570   0.96490   0.01267  Uiso   1.00
C29    C     0.34480   0.24720   0.89290   0.01267  Uiso   1.00
C30    C     0.29290   0.18500   0.80020   0.01267  Uiso   1.00
C31    C     0.44400   0.45890   0.39210   0.01267  Uiso   1.00
C32    C     0.54150   0.37400   0.40420   0.01267  Uiso   1.00
C33    C     0.56510   0.38080   0.49590   0.01267  Uiso   1.00
Br1    Br    0.71304   0.82821   0.93727   0.01267  Uiso   1.00
Br2    Br    0.98873   0.62527   0.46107   0.01267  Uiso   1.00
Br3    Br    0.71304   0.10906   0.17179   0.01267  Uiso   1.00
Br4    Br    0.98873   0.83580   0.37473   0.01267  Uiso   1.00
Br5    Br    0.71304   0.06273   0.89094   0.01267  Uiso   1.00
Br6    Br    0.98873   0.53893   0.16420   0.01267  Uiso   1.00
Br7    Br    0.22160   0.00000   0.00000   0.01267  Uiso   1.00
Br8    Br    0.48980   0.66667   0.33334   0.01267  Uiso   1.00
N1     N     0.34650   0.80530   0.73710   0.01267  Uiso   1.00
N2     N     0.37610   0.86650   0.58680   0.01267  Uiso   1.00
N3     N     0.34650   0.93180   0.19470   0.01267  Uiso   1.00
N4     N     0.37610   0.72030   0.13350   0.01267  Uiso   1.00
N5     N     0.34650   0.26290   0.06820   0.01267  Uiso   1.00
N6     N     0.37610   0.41320   0.27970   0.01267  Uiso   1.00
