data_image0
_cell_length_a       10.476
_cell_length_b       20.205
_cell_length_c       8.109
_cell_angle_alpha    90
_cell_angle_beta     102.265
_cell_angle_gamma    90

_symmetry_space_group_name_H-M    "P 1"
_symmetry_int_tables_number       1

loop_
  _symmetry_equiv_pos_as_xyz
  'x, y, z'

loop_
  _atom_site_label
  _atom_site_occupancy
  _atom_site_fract_x
  _atom_site_fract_y
  _atom_site_fract_z
  _atom_site_thermal_displace_type
  _atom_site_B_iso_or_equiv
  _atom_site_type_symbol
  C1       1.0000 0.79190  0.40012  0.05050  Biso   1.000  C
  H1       1.0000 0.71080  0.39660  0.07930  Biso   1.000  H
  C2       1.0000 0.84650  0.45715  0.05310  Biso   1.000  C
  H2       1.0000 0.80610  0.49480  0.08380  Biso   1.000  H
  C3       1.0000 0.96780  0.46665  0.00300  Biso   1.000  C
  C4       1.0000 0.02420  0.40642  0.95540  Biso   1.000  C
  H3       1.0000 0.10440  0.40990  0.92410  Biso   1.000  H
  C5       1.0000 0.96850  0.34955  0.95990  Biso   1.000  C
  H4       1.0000 0.00900  0.31160  0.93130  Biso   1.000  H
  N1       1.0000 0.85110  0.34447  0.00610  Biso   1.000  N
  O1       1.0000 0.91150  0.20153  0.15010  Biso   1.000  O
  C6       1.0000 0.29190  0.90012  0.05050  Biso   1.000  C
  H5       1.0000 0.21080  0.89660  0.07930  Biso   1.000  H
  C7       1.0000 0.34650  0.95715  0.05310  Biso   1.000  C
  H6       1.0000 0.30610  0.99480  0.08380  Biso   1.000  H
  C8       1.0000 0.46780  0.96665  0.00300  Biso   1.000  C
  C9       1.0000 0.52420  0.90642  0.95540  Biso   1.000  C
  H7       1.0000 0.60440  0.90990  0.92410  Biso   1.000  H
  C10      1.0000 0.46850  0.84955  0.95990  Biso   1.000  C
  H8       1.0000 0.50900  0.81160  0.93130  Biso   1.000  H
  N2       1.0000 0.35110  0.84447  0.00610  Biso   1.000  N
  O2       1.0000 0.41150  0.70153  0.15010  Biso   1.000  O
  C11      1.0000 0.20810  0.40012  0.44950  Biso   1.000  C
  H9       1.0000 0.28920  0.39660  0.42070  Biso   1.000  H
  C12      1.0000 0.15350  0.45715  0.44690  Biso   1.000  C
  H10      1.0000 0.19390  0.49480  0.41620  Biso   1.000  H
  C13      1.0000 0.03220  0.46665  0.49700  Biso   1.000  C
  C14      1.0000 0.97580  0.40642  0.54460  Biso   1.000  C
  H11      1.0000 0.89560  0.40990  0.57590  Biso   1.000  H
  C15      1.0000 0.03150  0.34955  0.54010  Biso   1.000  C
  H12      1.0000 0.99100  0.31160  0.56870  Biso   1.000  H
  N3       1.0000 0.14890  0.34447  0.49390  Biso   1.000  N
  O3       1.0000 0.08850  0.20153  0.34990  Biso   1.000  O
  C16      1.0000 0.70810  0.90012  0.44950  Biso   1.000  C
  H13      1.0000 0.78920  0.89660  0.42070  Biso   1.000  H
  C17      1.0000 0.65350  0.95715  0.44690  Biso   1.000  C
  H14      1.0000 0.69390  0.99480  0.41620  Biso   1.000  H
  C18      1.0000 0.53220  0.96665  0.49700  Biso   1.000  C
  C19      1.0000 0.47580  0.90642  0.54460  Biso   1.000  C
  H15      1.0000 0.39560  0.90990  0.57590  Biso   1.000  H
  C20      1.0000 0.53150  0.84955  0.54010  Biso   1.000  C
  H16      1.0000 0.49100  0.81160  0.56870  Biso   1.000  H
  N4       1.0000 0.64890  0.84447  0.49390  Biso   1.000  N
  O4       1.0000 0.58850  0.70153  0.34990  Biso   1.000  O
  C21      1.0000 0.20810  0.59988  0.94950  Biso   1.000  C
  H17      1.0000 0.28920  0.60340  0.92070  Biso   1.000  H
  C22      1.0000 0.15350  0.54285  0.94690  Biso   1.000  C
  H18      1.0000 0.19390  0.50520  0.91620  Biso   1.000  H
  C23      1.0000 0.03220  0.53335  0.99700  Biso   1.000  C
  C24      1.0000 0.97580  0.59358  0.04460  Biso   1.000  C
  H19      1.0000 0.89560  0.59010  0.07590  Biso   1.000  H
  C25      1.0000 0.03150  0.65045  0.04010  Biso   1.000  C
  H20      1.0000 0.99100  0.68840  0.06870  Biso   1.000  H
  N5       1.0000 0.14890  0.65553  0.99390  Biso   1.000  N
  O5       1.0000 0.08850  0.79847  0.84990  Biso   1.000  O
  C26      1.0000 0.70810  0.09988  0.94950  Biso   1.000  C
  H21      1.0000 0.78920  0.10340  0.92070  Biso   1.000  H
  C27      1.0000 0.65350  0.04285  0.94690  Biso   1.000  C
  H22      1.0000 0.69390  0.00520  0.91620  Biso   1.000  H
  C28      1.0000 0.53220  0.03335  0.99700  Biso   1.000  C
  C29      1.0000 0.47580  0.09358  0.04460  Biso   1.000  C
  H23      1.0000 0.39560  0.09010  0.07590  Biso   1.000  H
  C30      1.0000 0.53150  0.15045  0.04010  Biso   1.000  C
  H24      1.0000 0.49100  0.18840  0.06870  Biso   1.000  H
  N6       1.0000 0.64890  0.15553  0.99390  Biso   1.000  N
  O6       1.0000 0.58850  0.29847  0.84990  Biso   1.000  O
  C31      1.0000 0.79190  0.59988  0.55050  Biso   1.000  C
  H25      1.0000 0.71080  0.60340  0.57930  Biso   1.000  H
  C32      1.0000 0.84650  0.54285  0.55310  Biso   1.000  C
  H26      1.0000 0.80610  0.50520  0.58380  Biso   1.000  H
  C33      1.0000 0.96780  0.53335  0.50300  Biso   1.000  C
  C34      1.0000 0.02420  0.59358  0.45540  Biso   1.000  C
  H27      1.0000 0.10440  0.59010  0.42410  Biso   1.000  H
  C35      1.0000 0.96850  0.65045  0.45990  Biso   1.000  C
  H28      1.0000 0.00900  0.68840  0.43130  Biso   1.000  H
  N7       1.0000 0.85110  0.65553  0.50610  Biso   1.000  N
  O7       1.0000 0.91150  0.79847  0.65010  Biso   1.000  O
  C36      1.0000 0.29190  0.09988  0.55050  Biso   1.000  C
  H29      1.0000 0.21080  0.10340  0.57930  Biso   1.000  H
  C37      1.0000 0.34650  0.04285  0.55310  Biso   1.000  C
  H30      1.0000 0.30610  0.00520  0.58380  Biso   1.000  H
  C38      1.0000 0.46780  0.03335  0.50300  Biso   1.000  C
  C39      1.0000 0.52420  0.09358  0.45540  Biso   1.000  C
  H31      1.0000 0.60440  0.09010  0.42410  Biso   1.000  H
  C40      1.0000 0.46850  0.15045  0.45990  Biso   1.000  C
  H32      1.0000 0.50900  0.18840  0.43130  Biso   1.000  H
  N8       1.0000 0.35110  0.15553  0.50610  Biso   1.000  N
  O8       1.0000 0.41150  0.29847  0.65010  Biso   1.000  O
  C41      1.0000 0.00000  0.22720  0.25000  Biso   1.000  C
  H33      1.0000 0.00000  0.27320  0.25000  Biso   1.000  H
  C42      1.0000 0.50000  0.72720  0.25000  Biso   1.000  C
  H34      1.0000 0.50000  0.77320  0.25000  Biso   1.000  H
  C43      1.0000 0.00000  0.77280  0.75000  Biso   1.000  C
  H35      1.0000 0.00000  0.72680  0.75000  Biso   1.000  H
  C44      1.0000 0.50000  0.27280  0.75000  Biso   1.000  C
  H36      1.0000 0.50000  0.22680  0.75000  Biso   1.000  H
  Co1      1.0000 0.75000  0.25000  0.00000  Biso   1.000  Co
  Co2      1.0000 0.25000  0.25000  0.50000  Biso   1.000  Co
  Co3      1.0000 0.25000  0.75000  0.00000  Biso   1.000  Co
  Co4      1.0000 0.75000  0.75000  0.50000  Biso   1.000  Co
