data_image0
_cell_length_a       15.0721
_cell_length_b       24.7694
_cell_length_c       15.1707
_cell_angle_alpha    90
_cell_angle_beta     110.541
_cell_angle_gamma    90

_symmetry_space_group_name_H-M    "P 1"
_symmetry_int_tables_number       1

loop_
  _symmetry_equiv_pos_as_xyz
  'x, y, z'

loop_
  _atom_site_label
  _atom_site_occupancy
  _atom_site_fract_x
  _atom_site_fract_y
  _atom_site_fract_z
  _atom_site_thermal_displace_type
  _atom_site_B_iso_or_equiv
  _atom_site_type_symbol
  Ni1      1.0000 0.39621  0.52227  0.10812  Biso   1.000  Ni
  C1       1.0000 0.20950  0.49590  0.13010  Biso   1.000  C
  H1       1.0000 0.24830  0.48430  0.18940  Biso   1.000  H
  C2       1.0000 0.11070  0.49040  0.10400  Biso   1.000  C
  H2       1.0000 0.08480  0.47780  0.14740  Biso   1.000  H
  C3       1.0000 0.05270  0.50350  0.01440  Biso   1.000  C
  C4       1.0000 0.09450  0.52250  0.95600  Biso   1.000  C
  H3       1.0000 0.05710  0.53170  0.89480  Biso   1.000  H
  C5       1.0000 0.19270  0.52890  0.98420  Biso   1.000  C
  H4       1.0000 0.21960  0.54130  0.94140  Biso   1.000  H
  C6       1.0000 0.32270  0.63630  0.08070  Biso   1.000  C
  C7       1.0000 0.32230  0.69180  0.08190  Biso   1.000  C
  H5       1.0000 0.26520  0.71010  0.05620  Biso   1.000  H
  C8       1.0000 0.40400  0.72020  0.11980  Biso   1.000  C
  C9       1.0000 0.47970  0.69170  0.15050  Biso   1.000  C
  H6       1.0000 0.53810  0.70910  0.17280  Biso   1.000  H
  C10      1.0000 0.47680  0.63320  0.15150  Biso   1.000  C
  H7       1.0000 0.53230  0.61410  0.18210  Biso   1.000  H
  C11      1.0000 0.54650  0.49830  0.04400  Biso   1.000  C
  C12      1.0000 0.49530  0.47960  0.29830  Biso   1.000  C
  H8       1.0000 0.51720  0.45560  0.26340  Biso   1.000  H
  C13      1.0000 0.52070  0.47280  0.39420  Biso   1.000  C
  H9       1.0000 0.56160  0.44470  0.42260  Biso   1.000  H
  C14      1.0000 0.48900  0.50540  0.44990  Biso   1.000  C
  C15      1.0000 0.43340  0.54870  0.40190  Biso   1.000  C
  H10      1.0000 0.41050  0.57350  0.43480  Biso   1.000  H
  C16      1.0000 0.41230  0.55500  0.30700  Biso   1.000  C
  H11      1.0000 0.37740  0.58520  0.27820  Biso   1.000  H
  N1       1.0000 0.43800  0.52130  0.25470  Biso   1.000  N
  N2       1.0000 0.24850  0.51720  0.07300  Biso   1.000  N
  N3       1.0000 0.39850  0.60660  0.11070  Biso   1.000  N
  O1       1.0000 0.62040  0.48270  0.03480  Biso   1.000  O
  O2       1.0000 0.53660  0.51260  0.12010  Biso   1.000  O
  Ni2      1.0000 0.60379  0.02227  0.89188  Biso   1.000  Ni
  C17      1.0000 0.79050  0.99590  0.86990  Biso   1.000  C
  H12      1.0000 0.75170  0.98430  0.81060  Biso   1.000  H
  C18      1.0000 0.88930  0.99040  0.89600  Biso   1.000  C
  H13      1.0000 0.91520  0.97780  0.85260  Biso   1.000  H
  C19      1.0000 0.94730  0.00350  0.98560  Biso   1.000  C
  C20      1.0000 0.90550  0.02250  0.04400  Biso   1.000  C
  H14      1.0000 0.94290  0.03170  0.10520  Biso   1.000  H
  C21      1.0000 0.80730  0.02890  0.01580  Biso   1.000  C
  H15      1.0000 0.78040  0.04130  0.05860  Biso   1.000  H
  C22      1.0000 0.67730  0.13630  0.91930  Biso   1.000  C
  C23      1.0000 0.67770  0.19180  0.91810  Biso   1.000  C
  H16      1.0000 0.73480  0.21010  0.94380  Biso   1.000  H
  C24      1.0000 0.59600  0.22020  0.88020  Biso   1.000  C
  C25      1.0000 0.52030  0.19170  0.84950  Biso   1.000  C
  H17      1.0000 0.46190  0.20910  0.82720  Biso   1.000  H
  C26      1.0000 0.52320  0.13320  0.84850  Biso   1.000  C
  H18      1.0000 0.46770  0.11410  0.81790  Biso   1.000  H
  C27      1.0000 0.45350  0.99830  0.95600  Biso   1.000  C
  C28      1.0000 0.50470  0.97960  0.70170  Biso   1.000  C
  H19      1.0000 0.48280  0.95560  0.73660  Biso   1.000  H
  C29      1.0000 0.47930  0.97280  0.60580  Biso   1.000  C
  H20      1.0000 0.43840  0.94470  0.57740  Biso   1.000  H
  C30      1.0000 0.51100  0.00540  0.55010  Biso   1.000  C
  C31      1.0000 0.56660  0.04870  0.59810  Biso   1.000  C
  H21      1.0000 0.58950  0.07350  0.56520  Biso   1.000  H
  C32      1.0000 0.58770  0.05500  0.69300  Biso   1.000  C
  H22      1.0000 0.62260  0.08520  0.72180  Biso   1.000  H
  N4       1.0000 0.56200  0.02130  0.74530  Biso   1.000  N
  N5       1.0000 0.75150  0.01720  0.92700  Biso   1.000  N
  N6       1.0000 0.60150  0.10660  0.88930  Biso   1.000  N
  O3       1.0000 0.37960  0.98270  0.96520  Biso   1.000  O
  O4       1.0000 0.46340  0.01260  0.87990  Biso   1.000  O
  Ni3      1.0000 0.60379  0.47773  0.89188  Biso   1.000  Ni
  C33      1.0000 0.79050  0.50410  0.86990  Biso   1.000  C
  H23      1.0000 0.75170  0.51570  0.81060  Biso   1.000  H
  C34      1.0000 0.88930  0.50960  0.89600  Biso   1.000  C
  H24      1.0000 0.91520  0.52220  0.85260  Biso   1.000  H
  C35      1.0000 0.94730  0.49650  0.98560  Biso   1.000  C
  C36      1.0000 0.90550  0.47750  0.04400  Biso   1.000  C
  H25      1.0000 0.94290  0.46830  0.10520  Biso   1.000  H
  C37      1.0000 0.80730  0.47110  0.01580  Biso   1.000  C
  H26      1.0000 0.78040  0.45870  0.05860  Biso   1.000  H
  C38      1.0000 0.67730  0.36370  0.91930  Biso   1.000  C
  C39      1.0000 0.67770  0.30820  0.91810  Biso   1.000  C
  H27      1.0000 0.73480  0.28990  0.94380  Biso   1.000  H
  C40      1.0000 0.59600  0.27980  0.88020  Biso   1.000  C
  C41      1.0000 0.52030  0.30830  0.84950  Biso   1.000  C
  H28      1.0000 0.46190  0.29090  0.82720  Biso   1.000  H
  C42      1.0000 0.52320  0.36680  0.84850  Biso   1.000  C
  H29      1.0000 0.46770  0.38590  0.81790  Biso   1.000  H
  C43      1.0000 0.45350  0.50170  0.95600  Biso   1.000  C
  C44      1.0000 0.50470  0.52040  0.70170  Biso   1.000  C
  H30      1.0000 0.48280  0.54440  0.73660  Biso   1.000  H
  C45      1.0000 0.47930  0.52720  0.60580  Biso   1.000  C
  H31      1.0000 0.43840  0.55530  0.57740  Biso   1.000  H
  C46      1.0000 0.51100  0.49460  0.55010  Biso   1.000  C
  C47      1.0000 0.56660  0.45130  0.59810  Biso   1.000  C
  H32      1.0000 0.58950  0.42650  0.56520  Biso   1.000  H
  C48      1.0000 0.58770  0.44500  0.69300  Biso   1.000  C
  H33      1.0000 0.62260  0.41480  0.72180  Biso   1.000  H
  N7       1.0000 0.56200  0.47870  0.74530  Biso   1.000  N
  N8       1.0000 0.75150  0.48280  0.92700  Biso   1.000  N
  N9       1.0000 0.60150  0.39340  0.88930  Biso   1.000  N
  O5       1.0000 0.37960  0.51730  0.96520  Biso   1.000  O
  O6       1.0000 0.46340  0.48740  0.87990  Biso   1.000  O
  Ni4      1.0000 0.39621  0.97773  0.10812  Biso   1.000  Ni
  C49      1.0000 0.20950  0.00410  0.13010  Biso   1.000  C
  H34      1.0000 0.24830  0.01570  0.18940  Biso   1.000  H
  C50      1.0000 0.11070  0.00960  0.10400  Biso   1.000  C
  H35      1.0000 0.08480  0.02220  0.14740  Biso   1.000  H
  C51      1.0000 0.05270  0.99650  0.01440  Biso   1.000  C
  C52      1.0000 0.09450  0.97750  0.95600  Biso   1.000  C
  H36      1.0000 0.05710  0.96830  0.89480  Biso   1.000  H
  C53      1.0000 0.19270  0.97110  0.98420  Biso   1.000  C
  H37      1.0000 0.21960  0.95870  0.94140  Biso   1.000  H
  C54      1.0000 0.32270  0.86370  0.08070  Biso   1.000  C
  C55      1.0000 0.32230  0.80820  0.08190  Biso   1.000  C
  H38      1.0000 0.26520  0.78990  0.05620  Biso   1.000  H
  C56      1.0000 0.40400  0.77980  0.11980  Biso   1.000  C
  C57      1.0000 0.47970  0.80830  0.15050  Biso   1.000  C
  H39      1.0000 0.53810  0.79090  0.17280  Biso   1.000  H
  C58      1.0000 0.47680  0.86680  0.15150  Biso   1.000  C
  H40      1.0000 0.53230  0.88590  0.18210  Biso   1.000  H
  C59      1.0000 0.54650  0.00170  0.04400  Biso   1.000  C
  C60      1.0000 0.49530  0.02040  0.29830  Biso   1.000  C
  H41      1.0000 0.51720  0.04440  0.26340  Biso   1.000  H
  C61      1.0000 0.52070  0.02720  0.39420  Biso   1.000  C
  H42      1.0000 0.56160  0.05530  0.42260  Biso   1.000  H
  C62      1.0000 0.48900  0.99460  0.44990  Biso   1.000  C
  C63      1.0000 0.43340  0.95130  0.40190  Biso   1.000  C
  H43      1.0000 0.41050  0.92650  0.43480  Biso   1.000  H
  C64      1.0000 0.41230  0.94500  0.30700  Biso   1.000  C
  H44      1.0000 0.37740  0.91480  0.27820  Biso   1.000  H
  N10      1.0000 0.43800  0.97870  0.25470  Biso   1.000  N
  N11      1.0000 0.24850  0.98280  0.07300  Biso   1.000  N
  N12      1.0000 0.39850  0.89340  0.11070  Biso   1.000  N
  O7       1.0000 0.62040  0.01730  0.03480  Biso   1.000  O
  O8       1.0000 0.53660  0.98740  0.12010  Biso   1.000  O
