data_JOHFIW_clean5b
_audit_creation_date              2014-07-02
_audit_creation_method            'Materials Studio'
_symmetry_space_group_name_H-M    'P1'
_symmetry_Int_Tables_number       1
_symmetry_cell_setting            triclinic
loop_
_symmetry_equiv_pos_as_xyz
  x,y,z
_cell_length_a                    10.2230
_cell_length_b                    10.2230
_cell_length_c                    14.4930
_cell_angle_alpha                 90.0000
_cell_angle_beta                  90.0000
_cell_angle_gamma                 90.0000
loop_
_atom_site_label
_atom_site_type_symbol
_atom_site_fract_x
_atom_site_fract_y
_atom_site_fract_z
_atom_site_U_iso_or_equiv
_atom_site_adp_type
_atom_site_occupancy
Y1     Y     0.65023   0.65023   0.87500   0.01267  Uiso   1.00
Y2     Y     0.34977   0.34977   0.37500   0.01267  Uiso   1.00
Y3     Y     0.34977   0.65023   0.12500   0.01267  Uiso   1.00
Y4     Y     0.65023   0.34977   0.62500   0.01267  Uiso   1.00
H1     H     0.94160   0.57570   0.12140   0.01267  Uiso   1.00
H2     H     0.05840   0.42430   0.62140   0.01267  Uiso   1.00
H3     H     0.42430   0.94160   0.37140   0.01267  Uiso   1.00
H4     H     0.57570   0.05840   0.87140   0.01267  Uiso   1.00
H5     H     0.05840   0.57570   0.87860   0.01267  Uiso   1.00
H6     H     0.94160   0.42430   0.37860   0.01267  Uiso   1.00
H7     H     0.57570   0.94160   0.62860   0.01267  Uiso   1.00
H8     H     0.42430   0.05840   0.12860   0.01267  Uiso   1.00
H9     H     0.60320   0.50000   0.25000   0.01267  Uiso   1.00
H10    H     0.39680   0.50000   0.75000   0.01267  Uiso   1.00
H11    H     0.50000   0.60320   0.50000   0.01267  Uiso   1.00
H12    H     0.50000   0.39680   0.00000   0.01267  Uiso   1.00
C1     C     0.75500   0.54900   0.17140   0.01267  Uiso   1.00
C2     C     0.89400   0.54700   0.17210   0.01267  Uiso   1.00
C3     C     0.67400   0.58900   0.09300   0.01267  Uiso   1.00
C4     C     0.24500   0.45100   0.67140   0.01267  Uiso   1.00
C5     C     0.10600   0.45300   0.67210   0.01267  Uiso   1.00
C6     C     0.32600   0.41100   0.59300   0.01267  Uiso   1.00
C7     C     0.45100   0.75500   0.42140   0.01267  Uiso   1.00
C8     C     0.45300   0.89400   0.42210   0.01267  Uiso   1.00
C9     C     0.41100   0.67400   0.34300   0.01267  Uiso   1.00
C10    C     0.54900   0.24500   0.92140   0.01267  Uiso   1.00
C11    C     0.54700   0.10600   0.92210   0.01267  Uiso   1.00
C12    C     0.58900   0.32600   0.84300   0.01267  Uiso   1.00
C13    C     0.24500   0.54900   0.82860   0.01267  Uiso   1.00
C14    C     0.10600   0.54700   0.82790   0.01267  Uiso   1.00
C15    C     0.32600   0.58900   0.90700   0.01267  Uiso   1.00
C16    C     0.75500   0.45100   0.32860   0.01267  Uiso   1.00
C17    C     0.89400   0.45300   0.32790   0.01267  Uiso   1.00
C18    C     0.67400   0.41100   0.40700   0.01267  Uiso   1.00
C19    C     0.54900   0.75500   0.57860   0.01267  Uiso   1.00
C20    C     0.54700   0.89400   0.57790   0.01267  Uiso   1.00
C21    C     0.58900   0.67400   0.65700   0.01267  Uiso   1.00
C22    C     0.45100   0.24500   0.07860   0.01267  Uiso   1.00
C23    C     0.45300   0.10600   0.07790   0.01267  Uiso   1.00
C24    C     0.41100   0.32600   0.15700   0.01267  Uiso   1.00
C25    C     0.69400   0.50000   0.25000   0.01267  Uiso   1.00
C26    C     0.95700   0.50000   0.25000   0.01267  Uiso   1.00
C27    C     0.11400   0.50000   0.25000   0.01267  Uiso   1.00
C28    C     0.30600   0.50000   0.75000   0.01267  Uiso   1.00
C29    C     0.04300   0.50000   0.75000   0.01267  Uiso   1.00
C30    C     0.88600   0.50000   0.75000   0.01267  Uiso   1.00
C31    C     0.50000   0.69400   0.50000   0.01267  Uiso   1.00
C32    C     0.50000   0.95700   0.50000   0.01267  Uiso   1.00
C33    C     0.50000   0.11400   0.50000   0.01267  Uiso   1.00
C34    C     0.50000   0.30600   0.00000   0.01267  Uiso   1.00
C35    C     0.50000   0.04300   0.00000   0.01267  Uiso   1.00
C36    C     0.50000   0.88600   0.00000   0.01267  Uiso   1.00
O1     O     0.73900   0.59480   0.01440   0.01267  Uiso   1.00
O2     O     0.56100   0.61600   0.10200   0.01267  Uiso   1.00
O3     O     0.16460   0.42210   0.30750   0.01267  Uiso   1.00
O4     O     0.26100   0.40520   0.51440   0.01267  Uiso   1.00
O5     O     0.43900   0.38400   0.60200   0.01267  Uiso   1.00
O6     O     0.83540   0.57790   0.80750   0.01267  Uiso   1.00
O7     O     0.40520   0.73900   0.26440   0.01267  Uiso   1.00
O8     O     0.38400   0.56100   0.35200   0.01267  Uiso   1.00
O9     O     0.57790   0.16460   0.55750   0.01267  Uiso   1.00
O10    O     0.59480   0.26100   0.76440   0.01267  Uiso   1.00
O11    O     0.61600   0.43900   0.85200   0.01267  Uiso   1.00
O12    O     0.42210   0.83540   0.05750   0.01267  Uiso   1.00
O13    O     0.26100   0.59480   0.98560   0.01267  Uiso   1.00
O14    O     0.43900   0.61600   0.89800   0.01267  Uiso   1.00
O15    O     0.83540   0.42210   0.69250   0.01267  Uiso   1.00
O16    O     0.73900   0.40520   0.48560   0.01267  Uiso   1.00
O17    O     0.56100   0.38400   0.39800   0.01267  Uiso   1.00
O18    O     0.16460   0.57790   0.19250   0.01267  Uiso   1.00
O19    O     0.59480   0.73900   0.73560   0.01267  Uiso   1.00
O20    O     0.61600   0.56100   0.64800   0.01267  Uiso   1.00
O21    O     0.42210   0.16460   0.44250   0.01267  Uiso   1.00
O22    O     0.40520   0.26100   0.23560   0.01267  Uiso   1.00
O23    O     0.38400   0.43900   0.14800   0.01267  Uiso   1.00
O24    O     0.57790   0.83540   0.94250   0.01267  Uiso   1.00
