data_JOJLOK_clean
_audit_creation_date              2014-07-02
_audit_creation_method            'Materials Studio'
_symmetry_space_group_name_H-M    'P1'
_symmetry_Int_Tables_number       1
_symmetry_cell_setting            triclinic
loop_
_symmetry_equiv_pos_as_xyz
  x,y,z
_cell_length_a                    6.6602
_cell_length_b                    11.6941
_cell_length_c                    22.7880
_cell_angle_alpha                 90.0000
_cell_angle_beta                  90.0000
_cell_angle_gamma                 90.0000
loop_
_atom_site_label
_atom_site_type_symbol
_atom_site_fract_x
_atom_site_fract_y
_atom_site_fract_z
_atom_site_U_iso_or_equiv
_atom_site_adp_type
_atom_site_occupancy
Th1    Th    0.76700   0.40413   0.86201   0.01267  Uiso   1.00
Th2    Th    0.73300   0.59587   0.36201   0.01267  Uiso   1.00
Th3    Th    0.23300   0.90413   0.63799   0.01267  Uiso   1.00
Th4    Th    0.26700   0.09587   0.13799   0.01267  Uiso   1.00
H1     H     0.75160   0.97050   0.03060   0.01267  Uiso   1.00
H2     H     0.74290   0.09790   0.86890   0.01267  Uiso   1.00
H3     H     0.21080   0.46920   0.77520   0.01267  Uiso   1.00
H4     H     0.39870   0.41740   0.69610   0.01267  Uiso   1.00
H5     H     0.73810   0.94280   0.92880   0.01267  Uiso   1.00
H6     H     0.28940   0.27970   0.63470   0.01267  Uiso   1.00
H7     H     0.74840   0.02950   0.53060   0.01267  Uiso   1.00
H8     H     0.75710   0.90210   0.36890   0.01267  Uiso   1.00
H9     H     0.28920   0.53080   0.27520   0.01267  Uiso   1.00
H10    H     0.10130   0.58260   0.19610   0.01267  Uiso   1.00
H11    H     0.76190   0.05720   0.42880   0.01267  Uiso   1.00
H12    H     0.21060   0.72030   0.13470   0.01267  Uiso   1.00
H13    H     0.24840   0.47050   0.46940   0.01267  Uiso   1.00
H14    H     0.25710   0.59790   0.63110   0.01267  Uiso   1.00
H15    H     0.78920   0.96920   0.72480   0.01267  Uiso   1.00
H16    H     0.60130   0.91740   0.80390   0.01267  Uiso   1.00
H17    H     0.26190   0.44280   0.57120   0.01267  Uiso   1.00
H18    H     0.71060   0.77970   0.86530   0.01267  Uiso   1.00
H19    H     0.25160   0.52950   0.96940   0.01267  Uiso   1.00
H20    H     0.24290   0.40210   0.13110   0.01267  Uiso   1.00
H21    H     0.71080   0.03080   0.22480   0.01267  Uiso   1.00
H22    H     0.89870   0.08260   0.30390   0.01267  Uiso   1.00
H23    H     0.23810   0.55720   0.07120   0.01267  Uiso   1.00
H24    H     0.78940   0.22030   0.36530   0.01267  Uiso   1.00
C1     C     0.75400   0.23180   0.98690   0.01267  Uiso   1.00
C2     C     0.76600   0.35430   0.00540   0.01267  Uiso   1.00
C3     C     0.76100   0.14200   0.02690   0.01267  Uiso   1.00
C4     C     0.76000   0.15550   0.09200   0.01267  Uiso   1.00
C5     C     0.75200   0.03270   0.00530   0.01267  Uiso   1.00
C6     C     0.74500   0.10940   0.90930   0.01267  Uiso   1.00
C7     C     0.16370   0.41120   0.75100   0.01267  Uiso   1.00
C8     C     0.27700   0.38120   0.70310   0.01267  Uiso   1.00
C9     C     0.74400   0.01610   0.94460   0.01267  Uiso   1.00
C10    C     0.72300   0.22450   0.74610   0.01267  Uiso   1.00
C11    C     0.91700   0.28120   0.72720   0.01267  Uiso   1.00
C12    C     0.02300   0.24690   0.67790   0.01267  Uiso   1.00
C13    C     0.21300   0.30090   0.66690   0.01267  Uiso   1.00
C14    C     0.94670   0.15970   0.63500   0.01267  Uiso   1.00
C15    C     0.74600   0.76820   0.48690   0.01267  Uiso   1.00
C16    C     0.73400   0.64570   0.50540   0.01267  Uiso   1.00
C17    C     0.73900   0.85800   0.52690   0.01267  Uiso   1.00
C18    C     0.74000   0.84450   0.59200   0.01267  Uiso   1.00
C19    C     0.74800   0.96730   0.50530   0.01267  Uiso   1.00
C20    C     0.75500   0.89060   0.40930   0.01267  Uiso   1.00
C21    C     0.33630   0.58880   0.25100   0.01267  Uiso   1.00
C22    C     0.22300   0.61880   0.20310   0.01267  Uiso   1.00
C23    C     0.75600   0.98390   0.44460   0.01267  Uiso   1.00
C24    C     0.77700   0.77550   0.24610   0.01267  Uiso   1.00
C25    C     0.58300   0.71880   0.22720   0.01267  Uiso   1.00
C26    C     0.47700   0.75310   0.17790   0.01267  Uiso   1.00
C27    C     0.28700   0.69910   0.16690   0.01267  Uiso   1.00
C28    C     0.55330   0.84030   0.13500   0.01267  Uiso   1.00
C29    C     0.24600   0.73180   0.51310   0.01267  Uiso   1.00
C30    C     0.23400   0.85430   0.49460   0.01267  Uiso   1.00
C31    C     0.23900   0.64200   0.47310   0.01267  Uiso   1.00
C32    C     0.24000   0.65550   0.40800   0.01267  Uiso   1.00
C33    C     0.24800   0.53270   0.49470   0.01267  Uiso   1.00
C34    C     0.25500   0.60940   0.59070   0.01267  Uiso   1.00
C35    C     0.83630   0.91120   0.74900   0.01267  Uiso   1.00
C36    C     0.72300   0.88120   0.79690   0.01267  Uiso   1.00
C37    C     0.25600   0.51610   0.55540   0.01267  Uiso   1.00
C38    C     0.27700   0.72450   0.75390   0.01267  Uiso   1.00
C39    C     0.08300   0.78120   0.77280   0.01267  Uiso   1.00
C40    C     0.97700   0.74690   0.82210   0.01267  Uiso   1.00
C41    C     0.78700   0.80090   0.83310   0.01267  Uiso   1.00
C42    C     0.05330   0.65970   0.86500   0.01267  Uiso   1.00
C43    C     0.25400   0.26820   0.01310   0.01267  Uiso   1.00
C44    C     0.26600   0.14570   0.99460   0.01267  Uiso   1.00
C45    C     0.26100   0.35800   0.97310   0.01267  Uiso   1.00
C46    C     0.26000   0.34450   0.90800   0.01267  Uiso   1.00
C47    C     0.25200   0.46730   0.99470   0.01267  Uiso   1.00
C48    C     0.24500   0.39060   0.09070   0.01267  Uiso   1.00
C49    C     0.66370   0.08880   0.24900   0.01267  Uiso   1.00
C50    C     0.77700   0.11880   0.29690   0.01267  Uiso   1.00
C51    C     0.24400   0.48390   0.05540   0.01267  Uiso   1.00
C52    C     0.22300   0.27550   0.25390   0.01267  Uiso   1.00
C53    C     0.41700   0.21880   0.27280   0.01267  Uiso   1.00
C54    C     0.52300   0.25310   0.32210   0.01267  Uiso   1.00
C55    C     0.71300   0.19910   0.33310   0.01267  Uiso   1.00
C56    C     0.44670   0.34030   0.36500   0.01267  Uiso   1.00
N1     N     0.74900   0.21650   0.92900   0.01267  Uiso   1.00
N2     N     0.98950   0.36140   0.76460   0.01267  Uiso   1.00
N3     N     0.75100   0.78350   0.42900   0.01267  Uiso   1.00
N4     N     0.51050   0.63860   0.26460   0.01267  Uiso   1.00
N5     N     0.25100   0.71650   0.57100   0.01267  Uiso   1.00
N6     N     0.01050   0.86140   0.73540   0.01267  Uiso   1.00
N7     N     0.24900   0.28350   0.07100   0.01267  Uiso   1.00
N8     N     0.48950   0.13860   0.23540   0.01267  Uiso   1.00
O1     O     0.77040   0.42790   0.96390   0.01267  Uiso   1.00
O2     O     0.77390   0.37810   0.05780   0.01267  Uiso   1.00
O3     O     0.63940   0.15980   0.71280   0.01267  Uiso   1.00
O4     O     0.66970   0.25130   0.79920   0.01267  Uiso   1.00
O5     O     0.58910   0.16860   0.11670   0.01267  Uiso   1.00
O6     O     0.00610   0.05780   0.63900   0.01267  Uiso   1.00
O7     O     0.91770   0.14430   0.11970   0.01267  Uiso   1.00
O8     O     0.82860   0.19340   0.59490   0.01267  Uiso   1.00
O9     O     0.72960   0.57210   0.46390   0.01267  Uiso   1.00
O10    O     0.72610   0.62190   0.55780   0.01267  Uiso   1.00
O11    O     0.86060   0.84020   0.21280   0.01267  Uiso   1.00
O12    O     0.83030   0.74870   0.29920   0.01267  Uiso   1.00
O13    O     0.91090   0.83140   0.61670   0.01267  Uiso   1.00
O14    O     0.49390   0.94220   0.13900   0.01267  Uiso   1.00
O15    O     0.58230   0.85570   0.61970   0.01267  Uiso   1.00
O16    O     0.67140   0.80660   0.09490   0.01267  Uiso   1.00
O17    O     0.22960   0.92790   0.53610   0.01267  Uiso   1.00
O18    O     0.22610   0.87810   0.44220   0.01267  Uiso   1.00
O19    O     0.36060   0.65980   0.78720   0.01267  Uiso   1.00
O20    O     0.33030   0.75130   0.70080   0.01267  Uiso   1.00
O21    O     0.41090   0.66860   0.38330   0.01267  Uiso   1.00
O22    O     0.99390   0.55780   0.86100   0.01267  Uiso   1.00
O23    O     0.08230   0.64430   0.38030   0.01267  Uiso   1.00
O24    O     0.17140   0.69340   0.90510   0.01267  Uiso   1.00
O25    O     0.27040   0.07210   0.03610   0.01267  Uiso   1.00
O26    O     0.27390   0.12190   0.94220   0.01267  Uiso   1.00
O27    O     0.13940   0.34020   0.28720   0.01267  Uiso   1.00
O28    O     0.16970   0.24870   0.20080   0.01267  Uiso   1.00
O29    O     0.08910   0.33140   0.88330   0.01267  Uiso   1.00
O30    O     0.50610   0.44220   0.36100   0.01267  Uiso   1.00
O31    O     0.41770   0.35570   0.88030   0.01267  Uiso   1.00
O32    O     0.32860   0.30660   0.40510   0.01267  Uiso   1.00
