data_JOJMEB_clean
_audit_creation_date              2014-07-02
_audit_creation_method            'Materials Studio'
_symmetry_space_group_name_H-M    'P1'
_symmetry_Int_Tables_number       1
_symmetry_cell_setting            triclinic
loop_
_symmetry_equiv_pos_as_xyz
  x,y,z
_cell_length_a                    7.2453
_cell_length_b                    9.4218
_cell_length_c                    14.0917
_cell_angle_alpha                 78.3139
_cell_angle_beta                  75.1034
_cell_angle_gamma                 67.3876
loop_
_atom_site_label
_atom_site_type_symbol
_atom_site_fract_x
_atom_site_fract_y
_atom_site_fract_z
_atom_site_U_iso_or_equiv
_atom_site_adp_type
_atom_site_occupancy
Th1    Th    0.22720   0.75000   0.25000   0.01267  Uiso   1.00
Th2    Th    0.77280   0.25000   0.75000   0.01267  Uiso   1.00
H1     H     0.82110   0.49350   0.92810   0.01267  Uiso   1.00
H2     H     0.80470   0.37680   0.47640   0.01267  Uiso   1.00
H3     H     0.24270   0.00650   0.57190   0.01267  Uiso   1.00
H4     H     0.65790   0.12320   0.02360   0.01267  Uiso   1.00
H5     H     0.17890   0.50650   0.07190   0.01267  Uiso   1.00
H6     H     0.19530   0.62320   0.52360   0.01267  Uiso   1.00
H7     H     0.75730   0.99350   0.42810   0.01267  Uiso   1.00
H8     H     0.34210   0.87680   0.97640   0.01267  Uiso   1.00
C1     C     0.57840   0.58090   0.03470   0.01267  Uiso   1.00
C2     C     0.65960   0.67970   0.07350   0.01267  Uiso   1.00
C3     C     0.68960   0.49480   0.95640   0.01267  Uiso   1.00
C4     C     0.88480   0.42620   0.48780   0.01267  Uiso   1.00
C5     C     0.96930   0.51290   0.40890   0.01267  Uiso   1.00
C6     C     0.94940   0.51690   0.30450   0.01267  Uiso   1.00
C7     C     0.19400   0.91910   0.46530   0.01267  Uiso   1.00
C8     C     0.41280   0.82030   0.42650   0.01267  Uiso   1.00
C9     C     0.14080   0.00520   0.54360   0.01267  Uiso   1.00
C10    C     0.79880   0.07380   0.01220   0.01267  Uiso   1.00
C11    C     0.89110   0.98710   0.09110   0.01267  Uiso   1.00
C12    C     0.77080   0.98310   0.19550   0.01267  Uiso   1.00
C13    C     0.42160   0.41910   0.96530   0.01267  Uiso   1.00
C14    C     0.34040   0.32030   0.92650   0.01267  Uiso   1.00
C15    C     0.31040   0.50520   0.04360   0.01267  Uiso   1.00
C16    C     0.11520   0.57380   0.51220   0.01267  Uiso   1.00
C17    C     0.03070   0.48710   0.59110   0.01267  Uiso   1.00
C18    C     0.05060   0.48310   0.69550   0.01267  Uiso   1.00
C19    C     0.80600   0.08090   0.53470   0.01267  Uiso   1.00
C20    C     0.58720   0.17970   0.57350   0.01267  Uiso   1.00
C21    C     0.85920   0.99480   0.45640   0.01267  Uiso   1.00
C22    C     0.20120   0.92620   0.98780   0.01267  Uiso   1.00
C23    C     0.10890   0.01290   0.90890   0.01267  Uiso   1.00
C24    C     0.22920   0.01690   0.80450   0.01267  Uiso   1.00
N1     N     0.38860   0.58609   0.07931   0.01267  Uiso   1.00
N2     N     0.08427   0.58776   0.42110   0.01267  Uiso   1.00
N3     N     0.05400   0.91391   0.42069   0.01267  Uiso   1.00
N4     N     0.09313   0.91224   0.07890   0.01267  Uiso   1.00
N5     N     0.61140   0.41391   0.92069   0.01267  Uiso   1.00
N6     N     0.91573   0.41224   0.57890   0.01267  Uiso   1.00
N7     N     0.94600   0.08609   0.57931   0.01267  Uiso   1.00
N8     N     0.90687   0.08776   0.92110   0.01267  Uiso   1.00
O1     O     0.53421   0.75851   0.14227   0.01267  Uiso   1.00
O2     O     0.83208   0.68106   0.03718   0.01267  Uiso   1.00
O3     O     0.84944   0.44404   0.29068   0.01267  Uiso   1.00
O4     O     0.04781   0.58849   0.23889   0.01267  Uiso   1.00
O5     O     0.43499   0.74149   0.35773   0.01267  Uiso   1.00
O6     O     0.55032   0.81894   0.46282   0.01267  Uiso   1.00
O7     O     0.58416   0.05596   0.20932   0.01267  Uiso   1.00
O8     O     0.87519   0.91151   0.26111   0.01267  Uiso   1.00
O9     O     0.46579   0.24149   0.85773   0.01267  Uiso   1.00
O10    O     0.16792   0.31894   0.96282   0.01267  Uiso   1.00
O11    O     0.15056   0.55596   0.70932   0.01267  Uiso   1.00
O12    O     0.95219   0.41151   0.76111   0.01267  Uiso   1.00
O13    O     0.56501   0.25851   0.64227   0.01267  Uiso   1.00
O14    O     0.44968   0.18106   0.53718   0.01267  Uiso   1.00
O15    O     0.41584   0.94404   0.79068   0.01267  Uiso   1.00
O16    O     0.12481   0.08849   0.73889   0.01267  Uiso   1.00
