data_image0
_cell_length_a       9.515
_cell_length_b       12.297
_cell_length_c       9.461
_cell_angle_alpha    91.03
_cell_angle_beta     98.658
_cell_angle_gamma    93.714

_symmetry_space_group_name_H-M    "P 1"
_symmetry_int_tables_number       1

loop_
  _symmetry_equiv_pos_as_xyz
  'x, y, z'

loop_
  _atom_site_label
  _atom_site_occupancy
  _atom_site_fract_x
  _atom_site_fract_y
  _atom_site_fract_z
  _atom_site_thermal_displace_type
  _atom_site_B_iso_or_equiv
  _atom_site_type_symbol
  Zn1      1.0000 0.31430  0.44883  0.09360  Biso   1.000  Zn
  Zn2      1.0000 0.90450  0.03307  0.67850  Biso   1.000  Zn
  Zn3      1.0000 0.59740  0.14753  0.10440  Biso   1.000  Zn
  Zn4      1.0000 0.09900  0.64878  0.58580  Biso   1.000  Zn
  P1       1.0000 0.66190  0.40230  0.16190  Biso   1.000  P
  P2       1.0000 0.83880  0.08800  0.35370  Biso   1.000  P
  P3       1.0000 0.69890  0.96980  0.88950  Biso   1.000  P
  P4       1.0000 0.11420  0.52600  0.29420  Biso   1.000  P
  O1       1.0000 0.50870  0.42850  0.15460  Biso   1.000  O
  O2       1.0000 0.26730  0.52530  0.26280  Biso   1.000  O
  O3       1.0000 0.74520  0.49220  0.09090  Biso   1.000  O
  O4       1.0000 0.72970  0.97480  0.73640  Biso   1.000  O
  O5       1.0000 0.92760  0.04250  0.24390  Biso   1.000  O
  O6       1.0000 0.84010  0.00600  0.47570  Biso   1.000  O
  O7       1.0000 0.63160  0.06980  0.93290  Biso   1.000  O
  O8       1.0000 0.68400  0.09180  0.28280  Biso   1.000  O
  O9       1.0000 0.60920  0.86420  0.90750  Biso   1.000  O
  O10      1.0000 0.67650  0.29470  0.08350  Biso   1.000  O
  O11      1.0000 0.09800  0.62960  0.37890  Biso   1.000  O
  O12      1.0000 0.07520  0.42440  0.36880  Biso   1.000  O
  O13      1.0000 0.72520  0.40020  0.31980  Biso   1.000  O
  O14      1.0000 0.90950  0.19570  0.41670  Biso   1.000  O
  O15      1.0000 0.02300  0.53290  0.14310  Biso   1.000  O
  O16      1.0000 0.84770  0.95690  0.98430  Biso   1.000  O
  H1       1.0000 0.92000  0.50700  0.14000  Biso   1.000  H
  H2       1.0000 0.86000  0.99400  0.08200  Biso   1.000  H
  Zn5      1.0000 0.68570  0.55117  0.90640  Biso   1.000  Zn
  Zn6      1.0000 0.09550  0.96693  0.32150  Biso   1.000  Zn
  Zn7      1.0000 0.40260  0.85247  0.89560  Biso   1.000  Zn
  Zn8      1.0000 0.90100  0.35122  0.41420  Biso   1.000  Zn
  P5       1.0000 0.33810  0.59770  0.83810  Biso   1.000  P
  P6       1.0000 0.16120  0.91200  0.64630  Biso   1.000  P
  P7       1.0000 0.30110  0.03020  0.11050  Biso   1.000  P
  P8       1.0000 0.88580  0.47400  0.70580  Biso   1.000  P
  O17      1.0000 0.49130  0.57150  0.84540  Biso   1.000  O
  O18      1.0000 0.73270  0.47470  0.73720  Biso   1.000  O
  O19      1.0000 0.25480  0.50780  0.90910  Biso   1.000  O
  O20      1.0000 0.27030  0.02520  0.26360  Biso   1.000  O
  O21      1.0000 0.07240  0.95750  0.75610  Biso   1.000  O
  O22      1.0000 0.15990  0.99400  0.52430  Biso   1.000  O
  O23      1.0000 0.36840  0.93020  0.06710  Biso   1.000  O
  O24      1.0000 0.31600  0.90820  0.71720  Biso   1.000  O
  O25      1.0000 0.39080  0.13580  0.09250  Biso   1.000  O
  O26      1.0000 0.32350  0.70530  0.91650  Biso   1.000  O
  O27      1.0000 0.90200  0.37040  0.62110  Biso   1.000  O
  O28      1.0000 0.92480  0.57560  0.63120  Biso   1.000  O
  O29      1.0000 0.27480  0.59980  0.68020  Biso   1.000  O
  O30      1.0000 0.09050  0.80430  0.58330  Biso   1.000  O
  O31      1.0000 0.97700  0.46710  0.85690  Biso   1.000  O
  O32      1.0000 0.15230  0.04310  0.01570  Biso   1.000  O
  H3       1.0000 0.08000  0.49300  0.86000  Biso   1.000  H
  H4       1.0000 0.14000  0.00600  0.91800  Biso   1.000  H
