data_image0
_cell_length_a       14.014
_cell_length_b       26.963
_cell_length_c       7.576
_cell_angle_alpha    90
_cell_angle_beta     90
_cell_angle_gamma    91.74

_symmetry_space_group_name_H-M    "P 1"
_symmetry_int_tables_number       1

loop_
  _symmetry_equiv_pos_as_xyz
  'x, y, z'

loop_
  _atom_site_label
  _atom_site_occupancy
  _atom_site_fract_x
  _atom_site_fract_y
  _atom_site_fract_z
  _atom_site_thermal_displace_type
  _atom_site_B_iso_or_equiv
  _atom_site_type_symbol
  Cd1      1.0000 0.27484  0.13543  0.88104  Biso   1.000  Cd
  N1       1.0000 0.25440  0.07960  0.09900  Biso   1.000  N
  N2       1.0000 0.24880  0.07790  0.65550  Biso   1.000  N
  N3       1.0000 0.32590  0.19980  0.09000  Biso   1.000  N
  N4       1.0000 0.12340  0.16800  0.87150  Biso   1.000  N
  N5       1.0000 0.44100  0.12570  0.83700  Biso   1.000  N
  N6       1.0000 0.31780  0.19260  0.65250  Biso   1.000  N
  C1       1.0000 0.25200  0.04920  0.20230  Biso   1.000  C
  C2       1.0000 0.24940  0.04860  0.54960  Biso   1.000  C
  C3       1.0000 0.39190  0.21880  0.15290  Biso   1.000  C
  C4       1.0000 0.07540  0.19830  0.82590  Biso   1.000  C
  C5       1.0000 0.47380  0.15700  0.69400  Biso   1.000  C
  C6       1.0000 0.41910  0.19080  0.62600  Biso   1.000  C
  C7       1.0000 0.57950  0.15740  0.65600  Biso   1.000  C
  Cd2      1.0000 0.27484  0.63543  0.38104  Biso   1.000  Cd
  N7       1.0000 0.25440  0.57960  0.59900  Biso   1.000  N
  N8       1.0000 0.24880  0.57790  0.15550  Biso   1.000  N
  N9       1.0000 0.32590  0.69980  0.59000  Biso   1.000  N
  N10      1.0000 0.12340  0.66800  0.37150  Biso   1.000  N
  N11      1.0000 0.44100  0.62570  0.33700  Biso   1.000  N
  N12      1.0000 0.31780  0.69260  0.15250  Biso   1.000  N
  C8       1.0000 0.25200  0.54920  0.70230  Biso   1.000  C
  C9       1.0000 0.24940  0.54860  0.04960  Biso   1.000  C
  C10      1.0000 0.39190  0.71880  0.65290  Biso   1.000  C
  C11      1.0000 0.07540  0.69830  0.32590  Biso   1.000  C
  C12      1.0000 0.47380  0.65700  0.19400  Biso   1.000  C
  C13      1.0000 0.41910  0.69080  0.12600  Biso   1.000  C
  C14      1.0000 0.57950  0.65740  0.15600  Biso   1.000  C
  Cd3      1.0000 0.22516  0.86457  0.88104  Biso   1.000  Cd
  N13      1.0000 0.24560  0.92040  0.09900  Biso   1.000  N
  N14      1.0000 0.25120  0.92210  0.65550  Biso   1.000  N
  N15      1.0000 0.17410  0.80020  0.09000  Biso   1.000  N
  N16      1.0000 0.37660  0.83200  0.87150  Biso   1.000  N
  N17      1.0000 0.05900  0.87430  0.83700  Biso   1.000  N
  N18      1.0000 0.18220  0.80740  0.65250  Biso   1.000  N
  C15      1.0000 0.24800  0.95080  0.20230  Biso   1.000  C
  C16      1.0000 0.25060  0.95140  0.54960  Biso   1.000  C
  C17      1.0000 0.10810  0.78120  0.15290  Biso   1.000  C
  C18      1.0000 0.42460  0.80170  0.82590  Biso   1.000  C
  C19      1.0000 0.02620  0.84300  0.69400  Biso   1.000  C
  C20      1.0000 0.08090  0.80920  0.62600  Biso   1.000  C
  C21      1.0000 0.92050  0.84260  0.65600  Biso   1.000  C
  Cd4      1.0000 0.22516  0.36457  0.38104  Biso   1.000  Cd
  N19      1.0000 0.24560  0.42040  0.59900  Biso   1.000  N
  N20      1.0000 0.25120  0.42210  0.15550  Biso   1.000  N
  N21      1.0000 0.17410  0.30020  0.59000  Biso   1.000  N
  N22      1.0000 0.37660  0.33200  0.37150  Biso   1.000  N
  N23      1.0000 0.05900  0.37430  0.33700  Biso   1.000  N
  N24      1.0000 0.18220  0.30740  0.15250  Biso   1.000  N
  C22      1.0000 0.24800  0.45080  0.70230  Biso   1.000  C
  C23      1.0000 0.25060  0.45140  0.04960  Biso   1.000  C
  C24      1.0000 0.10810  0.28120  0.65290  Biso   1.000  C
  C25      1.0000 0.42460  0.30170  0.32590  Biso   1.000  C
  C26      1.0000 0.02620  0.34300  0.19400  Biso   1.000  C
  C27      1.0000 0.08090  0.30920  0.12600  Biso   1.000  C
  C28      1.0000 0.92050  0.34260  0.15600  Biso   1.000  C
  Cd5      1.0000 0.72516  0.86457  0.11896  Biso   1.000  Cd
  N25      1.0000 0.74560  0.92040  0.90100  Biso   1.000  N
  N26      1.0000 0.75120  0.92210  0.34450  Biso   1.000  N
  N27      1.0000 0.67410  0.80020  0.91000  Biso   1.000  N
  N28      1.0000 0.87660  0.83200  0.12850  Biso   1.000  N
  N29      1.0000 0.55900  0.87430  0.16300  Biso   1.000  N
  N30      1.0000 0.68220  0.80740  0.34750  Biso   1.000  N
  C29      1.0000 0.74800  0.95080  0.79770  Biso   1.000  C
  C30      1.0000 0.75060  0.95140  0.45040  Biso   1.000  C
  C31      1.0000 0.60810  0.78120  0.84710  Biso   1.000  C
  C32      1.0000 0.92460  0.80170  0.17410  Biso   1.000  C
  C33      1.0000 0.52620  0.84300  0.30600  Biso   1.000  C
  C34      1.0000 0.58090  0.80920  0.37400  Biso   1.000  C
  C35      1.0000 0.42050  0.84260  0.34400  Biso   1.000  C
  Cd6      1.0000 0.72516  0.36457  0.61896  Biso   1.000  Cd
  N31      1.0000 0.74560  0.42040  0.40100  Biso   1.000  N
  N32      1.0000 0.75120  0.42210  0.84450  Biso   1.000  N
  N33      1.0000 0.67410  0.30020  0.41000  Biso   1.000  N
  N34      1.0000 0.87660  0.33200  0.62850  Biso   1.000  N
  N35      1.0000 0.55900  0.37430  0.66300  Biso   1.000  N
  N36      1.0000 0.68220  0.30740  0.84750  Biso   1.000  N
  C36      1.0000 0.74800  0.45080  0.29770  Biso   1.000  C
  C37      1.0000 0.75060  0.45140  0.95040  Biso   1.000  C
  C38      1.0000 0.60810  0.28120  0.34710  Biso   1.000  C
  C39      1.0000 0.92460  0.30170  0.67410  Biso   1.000  C
  C40      1.0000 0.52620  0.34300  0.80600  Biso   1.000  C
  C41      1.0000 0.58090  0.30920  0.87400  Biso   1.000  C
  C42      1.0000 0.42050  0.34260  0.84400  Biso   1.000  C
  Cd7      1.0000 0.77484  0.13543  0.11896  Biso   1.000  Cd
  N37      1.0000 0.75440  0.07960  0.90100  Biso   1.000  N
  N38      1.0000 0.74880  0.07790  0.34450  Biso   1.000  N
  N39      1.0000 0.82590  0.19980  0.91000  Biso   1.000  N
  N40      1.0000 0.62340  0.16800  0.12850  Biso   1.000  N
  N41      1.0000 0.94100  0.12570  0.16300  Biso   1.000  N
  N42      1.0000 0.81780  0.19260  0.34750  Biso   1.000  N
  C43      1.0000 0.75200  0.04920  0.79770  Biso   1.000  C
  C44      1.0000 0.74940  0.04860  0.45040  Biso   1.000  C
  C45      1.0000 0.89190  0.21880  0.84710  Biso   1.000  C
  C46      1.0000 0.57540  0.19830  0.17410  Biso   1.000  C
  C47      1.0000 0.97380  0.15700  0.30600  Biso   1.000  C
  C48      1.0000 0.91910  0.19080  0.37400  Biso   1.000  C
  C49      1.0000 0.07950  0.15740  0.34400  Biso   1.000  C
  Cd8      1.0000 0.77484  0.63543  0.61896  Biso   1.000  Cd
  N43      1.0000 0.75440  0.57960  0.40100  Biso   1.000  N
  N44      1.0000 0.74880  0.57790  0.84450  Biso   1.000  N
  N45      1.0000 0.82590  0.69980  0.41000  Biso   1.000  N
  N46      1.0000 0.62340  0.66800  0.62850  Biso   1.000  N
  N47      1.0000 0.94100  0.62570  0.66300  Biso   1.000  N
  N48      1.0000 0.81780  0.69260  0.84750  Biso   1.000  N
  C50      1.0000 0.75200  0.54920  0.29770  Biso   1.000  C
  C51      1.0000 0.74940  0.54860  0.95040  Biso   1.000  C
  C52      1.0000 0.89190  0.71880  0.34710  Biso   1.000  C
  C53      1.0000 0.57540  0.69830  0.67410  Biso   1.000  C
  C54      1.0000 0.97380  0.65700  0.80600  Biso   1.000  C
  C55      1.0000 0.91910  0.69080  0.87400  Biso   1.000  C
  C56      1.0000 0.07950  0.65740  0.84400  Biso   1.000  C
  Ni1      1.0000 0.25000  0.00000  0.37440  Biso   1.000  Ni
  Ni2      1.0000 0.25000  0.50000  0.87440  Biso   1.000  Ni
  Ni3      1.0000 0.75000  0.00000  0.62560  Biso   1.000  Ni
  Ni4      1.0000 0.75000  0.50000  0.12560  Biso   1.000  Ni
  Ni5      1.0000 0.50000  0.25000  0.25000  Biso   1.000  Ni
  Ni6      1.0000 0.00000  0.75000  0.25000  Biso   1.000  Ni
  Ni7      1.0000 0.50000  0.75000  0.75000  Biso   1.000  Ni
  Ni8      1.0000 0.00000  0.25000  0.75000  Biso   1.000  Ni
