data_image0
_cell_length_a       13.961
_cell_length_b       26.998
_cell_length_c       7.589
_cell_angle_alpha    90
_cell_angle_beta     90
_cell_angle_gamma    89.16

_symmetry_space_group_name_H-M    "P 1"
_symmetry_int_tables_number       1

loop_
  _symmetry_equiv_pos_as_xyz
  'x, y, z'

loop_
  _atom_site_label
  _atom_site_occupancy
  _atom_site_fract_x
  _atom_site_fract_y
  _atom_site_fract_z
  _atom_site_thermal_displace_type
  _atom_site_B_iso_or_equiv
  _atom_site_type_symbol
  Cd1      1.0000 0.28625  0.13455  0.87667  Biso   1.000  Cd
  N1       1.0000 0.26340  0.07890  0.09040  Biso   1.000  N
  N2       1.0000 0.26200  0.07800  0.64920  Biso   1.000  N
  N3       1.0000 0.33240  0.19860  0.08700  Biso   1.000  N
  N4       1.0000 0.13300  0.16880  0.87000  Biso   1.000  N
  N5       1.0000 0.32440  0.19220  0.64800  Biso   1.000  N
  N6       1.0000 0.45290  0.12460  0.83380  Biso   1.000  N
  C1       1.0000 0.25770  0.04870  0.19500  Biso   1.000  C
  C2       1.0000 0.25750  0.04850  0.54200  Biso   1.000  C
  C3       1.0000 0.39550  0.21810  0.15100  Biso   1.000  C
  C4       1.0000 0.08130  0.19900  0.82600  Biso   1.000  C
  C5       1.0000 0.42850  0.19200  0.62800  Biso   1.000  C
  C6       1.0000 0.48230  0.15290  0.68500  Biso   1.000  C
  C7       1.0000 0.59030  0.15520  0.65200  Biso   1.000  C
  Cd2      1.0000 0.28625  0.63455  0.37667  Biso   1.000  Cd
  N7       1.0000 0.26340  0.57890  0.59040  Biso   1.000  N
  N8       1.0000 0.26200  0.57800  0.14920  Biso   1.000  N
  N9       1.0000 0.33240  0.69860  0.58700  Biso   1.000  N
  N10      1.0000 0.13300  0.66880  0.37000  Biso   1.000  N
  N11      1.0000 0.32440  0.69220  0.14800  Biso   1.000  N
  N12      1.0000 0.45290  0.62460  0.33380  Biso   1.000  N
  C8       1.0000 0.25770  0.54870  0.69500  Biso   1.000  C
  C9       1.0000 0.25750  0.54850  0.04200  Biso   1.000  C
  C10      1.0000 0.39550  0.71810  0.65100  Biso   1.000  C
  C11      1.0000 0.08130  0.69900  0.32600  Biso   1.000  C
  C12      1.0000 0.42850  0.69200  0.12800  Biso   1.000  C
  C13      1.0000 0.48230  0.65290  0.18500  Biso   1.000  C
  C14      1.0000 0.59030  0.65520  0.15200  Biso   1.000  C
  Cd3      1.0000 0.21375  0.86545  0.87667  Biso   1.000  Cd
  N13      1.0000 0.23660  0.92110  0.09040  Biso   1.000  N
  N14      1.0000 0.23800  0.92200  0.64920  Biso   1.000  N
  N15      1.0000 0.16760  0.80140  0.08700  Biso   1.000  N
  N16      1.0000 0.36700  0.83120  0.87000  Biso   1.000  N
  N17      1.0000 0.17560  0.80780  0.64800  Biso   1.000  N
  N18      1.0000 0.04710  0.87540  0.83380  Biso   1.000  N
  C15      1.0000 0.24230  0.95130  0.19500  Biso   1.000  C
  C16      1.0000 0.24250  0.95150  0.54200  Biso   1.000  C
  C17      1.0000 0.10450  0.78190  0.15100  Biso   1.000  C
  C18      1.0000 0.41870  0.80100  0.82600  Biso   1.000  C
  C19      1.0000 0.07150  0.80800  0.62800  Biso   1.000  C
  C20      1.0000 0.01770  0.84710  0.68500  Biso   1.000  C
  C21      1.0000 0.90970  0.84480  0.65200  Biso   1.000  C
  Cd4      1.0000 0.21375  0.36545  0.37667  Biso   1.000  Cd
  N19      1.0000 0.23660  0.42110  0.59040  Biso   1.000  N
  N20      1.0000 0.23800  0.42200  0.14920  Biso   1.000  N
  N21      1.0000 0.16760  0.30140  0.58700  Biso   1.000  N
  N22      1.0000 0.36700  0.33120  0.37000  Biso   1.000  N
  N23      1.0000 0.17560  0.30780  0.14800  Biso   1.000  N
  N24      1.0000 0.04710  0.37540  0.33380  Biso   1.000  N
  C22      1.0000 0.24230  0.45130  0.69500  Biso   1.000  C
  C23      1.0000 0.24250  0.45150  0.04200  Biso   1.000  C
  C24      1.0000 0.10450  0.28190  0.65100  Biso   1.000  C
  C25      1.0000 0.41870  0.30100  0.32600  Biso   1.000  C
  C26      1.0000 0.07150  0.30800  0.12800  Biso   1.000  C
  C27      1.0000 0.01770  0.34710  0.18500  Biso   1.000  C
  C28      1.0000 0.90970  0.34480  0.15200  Biso   1.000  C
  Cd5      1.0000 0.71375  0.86545  0.12333  Biso   1.000  Cd
  N25      1.0000 0.73660  0.92110  0.90960  Biso   1.000  N
  N26      1.0000 0.73800  0.92200  0.35080  Biso   1.000  N
  N27      1.0000 0.66760  0.80140  0.91300  Biso   1.000  N
  N28      1.0000 0.86700  0.83120  0.13000  Biso   1.000  N
  N29      1.0000 0.67560  0.80780  0.35200  Biso   1.000  N
  N30      1.0000 0.54710  0.87540  0.16620  Biso   1.000  N
  C29      1.0000 0.74230  0.95130  0.80500  Biso   1.000  C
  C30      1.0000 0.74250  0.95150  0.45800  Biso   1.000  C
  C31      1.0000 0.60450  0.78190  0.84900  Biso   1.000  C
  C32      1.0000 0.91870  0.80100  0.17400  Biso   1.000  C
  C33      1.0000 0.57150  0.80800  0.37200  Biso   1.000  C
  C34      1.0000 0.51770  0.84710  0.31500  Biso   1.000  C
  C35      1.0000 0.40970  0.84480  0.34800  Biso   1.000  C
  Cd6      1.0000 0.71375  0.36545  0.62333  Biso   1.000  Cd
  N31      1.0000 0.73660  0.42110  0.40960  Biso   1.000  N
  N32      1.0000 0.73800  0.42200  0.85080  Biso   1.000  N
  N33      1.0000 0.66760  0.30140  0.41300  Biso   1.000  N
  N34      1.0000 0.86700  0.33120  0.63000  Biso   1.000  N
  N35      1.0000 0.67560  0.30780  0.85200  Biso   1.000  N
  N36      1.0000 0.54710  0.37540  0.66620  Biso   1.000  N
  C36      1.0000 0.74230  0.45130  0.30500  Biso   1.000  C
  C37      1.0000 0.74250  0.45150  0.95800  Biso   1.000  C
  C38      1.0000 0.60450  0.28190  0.34900  Biso   1.000  C
  C39      1.0000 0.91870  0.30100  0.67400  Biso   1.000  C
  C40      1.0000 0.57150  0.30800  0.87200  Biso   1.000  C
  C41      1.0000 0.51770  0.34710  0.81500  Biso   1.000  C
  C42      1.0000 0.40970  0.34480  0.84800  Biso   1.000  C
  Cd7      1.0000 0.78625  0.13455  0.12333  Biso   1.000  Cd
  N37      1.0000 0.76340  0.07890  0.90960  Biso   1.000  N
  N38      1.0000 0.76200  0.07800  0.35080  Biso   1.000  N
  N39      1.0000 0.83240  0.19860  0.91300  Biso   1.000  N
  N40      1.0000 0.63300  0.16880  0.13000  Biso   1.000  N
  N41      1.0000 0.82440  0.19220  0.35200  Biso   1.000  N
  N42      1.0000 0.95290  0.12460  0.16620  Biso   1.000  N
  C43      1.0000 0.75770  0.04870  0.80500  Biso   1.000  C
  C44      1.0000 0.75750  0.04850  0.45800  Biso   1.000  C
  C45      1.0000 0.89550  0.21810  0.84900  Biso   1.000  C
  C46      1.0000 0.58130  0.19900  0.17400  Biso   1.000  C
  C47      1.0000 0.92850  0.19200  0.37200  Biso   1.000  C
  C48      1.0000 0.98230  0.15290  0.31500  Biso   1.000  C
  C49      1.0000 0.09030  0.15520  0.34800  Biso   1.000  C
  Cd8      1.0000 0.78625  0.63455  0.62333  Biso   1.000  Cd
  N43      1.0000 0.76340  0.57890  0.40960  Biso   1.000  N
  N44      1.0000 0.76200  0.57800  0.85080  Biso   1.000  N
  N45      1.0000 0.83240  0.69860  0.41300  Biso   1.000  N
  N46      1.0000 0.63300  0.66880  0.63000  Biso   1.000  N
  N47      1.0000 0.82440  0.69220  0.85200  Biso   1.000  N
  N48      1.0000 0.95290  0.62460  0.66620  Biso   1.000  N
  C50      1.0000 0.75770  0.54870  0.30500  Biso   1.000  C
  C51      1.0000 0.75750  0.54850  0.95800  Biso   1.000  C
  C52      1.0000 0.89550  0.71810  0.34900  Biso   1.000  C
  C53      1.0000 0.58130  0.69900  0.67400  Biso   1.000  C
  C54      1.0000 0.92850  0.69200  0.87200  Biso   1.000  C
  C55      1.0000 0.98230  0.65290  0.81500  Biso   1.000  C
  C56      1.0000 0.09030  0.65520  0.84800  Biso   1.000  C
  Ni1      1.0000 0.25000  0.00000  0.36790  Biso   1.000  Ni
  Ni2      1.0000 0.25000  0.50000  0.86790  Biso   1.000  Ni
  Ni3      1.0000 0.75000  0.00000  0.63210  Biso   1.000  Ni
  Ni4      1.0000 0.75000  0.50000  0.13210  Biso   1.000  Ni
  Ni5      1.0000 0.50000  0.25000  0.25000  Biso   1.000  Ni
  Ni6      1.0000 0.00000  0.75000  0.25000  Biso   1.000  Ni
  Ni7      1.0000 0.50000  0.75000  0.75000  Biso   1.000  Ni
  Ni8      1.0000 0.00000  0.25000  0.75000  Biso   1.000  Ni
