data_image0
_cell_length_a       14.083
_cell_length_b       27.047
_cell_length_c       7.616
_cell_angle_alpha    90
_cell_angle_beta     90
_cell_angle_gamma    90.16

_symmetry_space_group_name_H-M    "P 1"
_symmetry_int_tables_number       1

loop_
  _symmetry_equiv_pos_as_xyz
  'x, y, z'

loop_
  _atom_site_label
  _atom_site_occupancy
  _atom_site_fract_x
  _atom_site_fract_y
  _atom_site_fract_z
  _atom_site_thermal_displace_type
  _atom_site_B_iso_or_equiv
  _atom_site_type_symbol
  Cd1      1.0000 0.21597  0.13462  0.12613  Biso   1.000  Cd
  N1       1.0000 0.23860  0.07860  0.91320  Biso   1.000  N
  N2       1.0000 0.24080  0.07860  0.35530  Biso   1.000  N
  N3       1.0000 0.36720  0.16920  0.13300  Biso   1.000  N
  N4       1.0000 0.17580  0.19320  0.34840  Biso   1.000  N
  N5       1.0000 0.04930  0.12470  0.16860  Biso   1.000  N
  C1       1.0000 0.24370  0.04870  0.80750  Biso   1.000  C
  C2       1.0000 0.24450  0.04850  0.46160  Biso   1.000  C
  C3       1.0000 0.41880  0.19940  0.17650  Biso   1.000  C
  C4       1.0000 0.07390  0.19200  0.37100  Biso   1.000  C
  C5       1.0000 0.01710  0.15860  0.30400  Biso   1.000  C
  C6       1.0000 0.91120  0.15900  0.33880  Biso   1.000  C
  N6       1.0000 0.16750  0.69740  0.41160  Biso   1.000  N
  C7       1.0000 0.10450  0.71740  0.34790  Biso   1.000  C
  Cd2      1.0000 0.28403  0.86538  0.12613  Biso   1.000  Cd
  N7       1.0000 0.26140  0.92140  0.91320  Biso   1.000  N
  N8       1.0000 0.25920  0.92140  0.35530  Biso   1.000  N
  N9       1.0000 0.13280  0.83080  0.13300  Biso   1.000  N
  N10      1.0000 0.32420  0.80680  0.34840  Biso   1.000  N
  N11      1.0000 0.45070  0.87530  0.16860  Biso   1.000  N
  C8       1.0000 0.25630  0.95130  0.80750  Biso   1.000  C
  C9       1.0000 0.25550  0.95150  0.46160  Biso   1.000  C
  C10      1.0000 0.08120  0.80060  0.17650  Biso   1.000  C
  C11      1.0000 0.42610  0.80800  0.37100  Biso   1.000  C
  C12      1.0000 0.48290  0.84140  0.30400  Biso   1.000  C
  C13      1.0000 0.58880  0.84100  0.33880  Biso   1.000  C
  N12      1.0000 0.33250  0.30260  0.41160  Biso   1.000  N
  C14      1.0000 0.39550  0.28260  0.34790  Biso   1.000  C
  N13      1.0000 0.83250  0.80260  0.08840  Biso   1.000  N
  C15      1.0000 0.89550  0.78260  0.15210  Biso   1.000  C
  Cd3      1.0000 0.78403  0.36538  0.37387  Biso   1.000  Cd
  N14      1.0000 0.76140  0.42140  0.58680  Biso   1.000  N
  N15      1.0000 0.75920  0.42140  0.14470  Biso   1.000  N
  N16      1.0000 0.63280  0.33080  0.36700  Biso   1.000  N
  N17      1.0000 0.82420  0.30680  0.15160  Biso   1.000  N
  N18      1.0000 0.95070  0.37530  0.33140  Biso   1.000  N
  C16      1.0000 0.75630  0.45130  0.69250  Biso   1.000  C
  C17      1.0000 0.75550  0.45150  0.03840  Biso   1.000  C
  C18      1.0000 0.58120  0.30060  0.32350  Biso   1.000  C
  C19      1.0000 0.92610  0.30800  0.12900  Biso   1.000  C
  C20      1.0000 0.98290  0.34140  0.19600  Biso   1.000  C
  C21      1.0000 0.08880  0.34100  0.16120  Biso   1.000  C
  N19      1.0000 0.66750  0.19740  0.08840  Biso   1.000  N
  C22      1.0000 0.60450  0.21740  0.15210  Biso   1.000  C
  Cd4      1.0000 0.71597  0.63462  0.37387  Biso   1.000  Cd
  N20      1.0000 0.73860  0.57860  0.58680  Biso   1.000  N
  N21      1.0000 0.74080  0.57860  0.14470  Biso   1.000  N
  N22      1.0000 0.86720  0.66920  0.36700  Biso   1.000  N
  N23      1.0000 0.67580  0.69320  0.15160  Biso   1.000  N
  N24      1.0000 0.54930  0.62470  0.33140  Biso   1.000  N
  C23      1.0000 0.74370  0.54870  0.69250  Biso   1.000  C
  C24      1.0000 0.74450  0.54850  0.03840  Biso   1.000  C
  C25      1.0000 0.91880  0.69940  0.32350  Biso   1.000  C
  C26      1.0000 0.57390  0.69200  0.12900  Biso   1.000  C
  C27      1.0000 0.51710  0.65860  0.19600  Biso   1.000  C
  C28      1.0000 0.41120  0.65900  0.16120  Biso   1.000  C
  Ni1      1.0000 0.25000  0.00000  0.63470  Biso   1.000  Ni
  Ni2      1.0000 0.75000  0.50000  0.86530  Biso   1.000  Ni
  Ni3      1.0000 0.50000  0.25000  0.25000  Biso   1.000  Ni
  Ni4      1.0000 0.00000  0.75000  0.25000  Biso   1.000  Ni
  N25      1.0000 0.16750  0.19740  0.91160  Biso   1.000  N
  C29      1.0000 0.10450  0.21740  0.84790  Biso   1.000  C
  Cd5      1.0000 0.21597  0.63462  0.62613  Biso   1.000  Cd
  N26      1.0000 0.23860  0.57860  0.41320  Biso   1.000  N
  N27      1.0000 0.24080  0.57860  0.85530  Biso   1.000  N
  N28      1.0000 0.36720  0.66920  0.63300  Biso   1.000  N
  N29      1.0000 0.17580  0.69320  0.84840  Biso   1.000  N
  N30      1.0000 0.04930  0.62470  0.66860  Biso   1.000  N
  C30      1.0000 0.24370  0.54870  0.30750  Biso   1.000  C
  C31      1.0000 0.24450  0.54850  0.96160  Biso   1.000  C
  C32      1.0000 0.41880  0.69940  0.67650  Biso   1.000  C
  C33      1.0000 0.07390  0.69200  0.87100  Biso   1.000  C
  C34      1.0000 0.01710  0.65860  0.80400  Biso   1.000  C
  C35      1.0000 0.91120  0.65900  0.83880  Biso   1.000  C
  N31      1.0000 0.33250  0.80260  0.91160  Biso   1.000  N
  C36      1.0000 0.39550  0.78260  0.84790  Biso   1.000  C
  Cd6      1.0000 0.28403  0.36538  0.62613  Biso   1.000  Cd
  N32      1.0000 0.26140  0.42140  0.41320  Biso   1.000  N
  N33      1.0000 0.25920  0.42140  0.85530  Biso   1.000  N
  N34      1.0000 0.13280  0.33080  0.63300  Biso   1.000  N
  N35      1.0000 0.32420  0.30680  0.84840  Biso   1.000  N
  N36      1.0000 0.45070  0.37530  0.66860  Biso   1.000  N
  C37      1.0000 0.25630  0.45130  0.30750  Biso   1.000  C
  C38      1.0000 0.25550  0.45150  0.96160  Biso   1.000  C
  C39      1.0000 0.08120  0.30060  0.67650  Biso   1.000  C
  C40      1.0000 0.42610  0.30800  0.87100  Biso   1.000  C
  C41      1.0000 0.48290  0.34140  0.80400  Biso   1.000  C
  C42      1.0000 0.58880  0.34100  0.83880  Biso   1.000  C
  Cd7      1.0000 0.78403  0.86538  0.87387  Biso   1.000  Cd
  N37      1.0000 0.76140  0.92140  0.08680  Biso   1.000  N
  N38      1.0000 0.75920  0.92140  0.64470  Biso   1.000  N
  N39      1.0000 0.63280  0.83080  0.86700  Biso   1.000  N
  N40      1.0000 0.82420  0.80680  0.65160  Biso   1.000  N
  N41      1.0000 0.95070  0.87530  0.83140  Biso   1.000  N
  C43      1.0000 0.75630  0.95130  0.19250  Biso   1.000  C
  C44      1.0000 0.75550  0.95150  0.53840  Biso   1.000  C
  C45      1.0000 0.58120  0.80060  0.82350  Biso   1.000  C
  C46      1.0000 0.92610  0.80800  0.62900  Biso   1.000  C
  C47      1.0000 0.98290  0.84140  0.69600  Biso   1.000  C
  C48      1.0000 0.08880  0.84100  0.66120  Biso   1.000  C
  N42      1.0000 0.83250  0.30260  0.58840  Biso   1.000  N
  C49      1.0000 0.89550  0.28260  0.65210  Biso   1.000  C
  Cd8      1.0000 0.71597  0.13462  0.87387  Biso   1.000  Cd
  N43      1.0000 0.73860  0.07860  0.08680  Biso   1.000  N
  N44      1.0000 0.74080  0.07860  0.64470  Biso   1.000  N
  N45      1.0000 0.86720  0.16920  0.86700  Biso   1.000  N
  N46      1.0000 0.67580  0.19320  0.65160  Biso   1.000  N
  N47      1.0000 0.54930  0.12470  0.83140  Biso   1.000  N
  C50      1.0000 0.74370  0.04870  0.19250  Biso   1.000  C
  C51      1.0000 0.74450  0.04850  0.53840  Biso   1.000  C
  C52      1.0000 0.91880  0.19940  0.82350  Biso   1.000  C
  C53      1.0000 0.57390  0.19200  0.62900  Biso   1.000  C
  C54      1.0000 0.51710  0.15860  0.69600  Biso   1.000  C
  C55      1.0000 0.41120  0.15900  0.66120  Biso   1.000  C
  N48      1.0000 0.66750  0.69740  0.58840  Biso   1.000  N
  C56      1.0000 0.60450  0.71740  0.65210  Biso   1.000  C
  Ni5      1.0000 0.25000  0.50000  0.13470  Biso   1.000  Ni
  Ni6      1.0000 0.75000  0.00000  0.36530  Biso   1.000  Ni
  Ni7      1.0000 0.50000  0.75000  0.75000  Biso   1.000  Ni
  Ni8      1.0000 0.00000  0.25000  0.75000  Biso   1.000  Ni
