data_image0
_cell_length_a       13.987
_cell_length_b       26.971
_cell_length_c       7.595
_cell_angle_alpha    90
_cell_angle_beta     90
_cell_angle_gamma    91.74

_symmetry_space_group_name_H-M    "P 1"
_symmetry_int_tables_number       1

loop_
  _symmetry_equiv_pos_as_xyz
  'x, y, z'

loop_
  _atom_site_label
  _atom_site_occupancy
  _atom_site_fract_x
  _atom_site_fract_y
  _atom_site_fract_z
  _atom_site_thermal_displace_type
  _atom_site_B_iso_or_equiv
  _atom_site_type_symbol
  Cd1      1.0000 0.27557  0.13524  0.87910  Biso   1.000  Cd
  N1       1.0000 0.25490  0.07990  0.09580  Biso   1.000  N
  N2       1.0000 0.25000  0.92170  0.65360  Biso   1.000  N
  N3       1.0000 0.17390  0.80040  0.08920  Biso   1.000  N
  N4       1.0000 0.87580  0.83230  0.13120  Biso   1.000  N
  N5       1.0000 0.31820  0.19300  0.65210  Biso   1.000  N
  N6       1.0000 0.44250  0.12560  0.83630  Biso   1.000  N
  C1       1.0000 0.25210  0.04920  0.19920  Biso   1.000  C
  C2       1.0000 0.25000  0.04880  0.54610  Biso   1.000  C
  C3       1.0000 0.10840  0.78120  0.15150  Biso   1.000  C
  C4       1.0000 0.92430  0.80140  0.17530  Biso   1.000  C
  C5       1.0000 0.42010  0.18990  0.62200  Biso   1.000  C
  C6       1.0000 0.47600  0.15920  0.69900  Biso   1.000  C
  C7       1.0000 0.58160  0.15830  0.65600  Biso   1.000  C
  Cd2      1.0000 0.27557  0.63524  0.37910  Biso   1.000  Cd
  N7       1.0000 0.25490  0.57990  0.59580  Biso   1.000  N
  N8       1.0000 0.25000  0.42170  0.15360  Biso   1.000  N
  N9       1.0000 0.17390  0.30040  0.58920  Biso   1.000  N
  N10      1.0000 0.87580  0.33230  0.63120  Biso   1.000  N
  N11      1.0000 0.31820  0.69300  0.15210  Biso   1.000  N
  N12      1.0000 0.44250  0.62560  0.33630  Biso   1.000  N
  C8       1.0000 0.25210  0.54920  0.69920  Biso   1.000  C
  C9       1.0000 0.25000  0.54880  0.04610  Biso   1.000  C
  C10      1.0000 0.10840  0.28120  0.65150  Biso   1.000  C
  C11      1.0000 0.92430  0.30140  0.67530  Biso   1.000  C
  C12      1.0000 0.42010  0.68990  0.12200  Biso   1.000  C
  C13      1.0000 0.47600  0.65920  0.19900  Biso   1.000  C
  C14      1.0000 0.58160  0.65830  0.15600  Biso   1.000  C
  Cd3      1.0000 0.22443  0.86476  0.87910  Biso   1.000  Cd
  N13      1.0000 0.24510  0.92010  0.09580  Biso   1.000  N
  N14      1.0000 0.25000  0.07830  0.65360  Biso   1.000  N
  N15      1.0000 0.32610  0.19960  0.08920  Biso   1.000  N
  N16      1.0000 0.62420  0.16770  0.13120  Biso   1.000  N
  N17      1.0000 0.18180  0.80700  0.65210  Biso   1.000  N
  N18      1.0000 0.05750  0.87440  0.83630  Biso   1.000  N
  C15      1.0000 0.24790  0.95080  0.19920  Biso   1.000  C
  C16      1.0000 0.25000  0.95120  0.54610  Biso   1.000  C
  C17      1.0000 0.39160  0.21880  0.15150  Biso   1.000  C
  C18      1.0000 0.57570  0.19860  0.17530  Biso   1.000  C
  C19      1.0000 0.07990  0.81010  0.62200  Biso   1.000  C
  C20      1.0000 0.02400  0.84080  0.69900  Biso   1.000  C
  C21      1.0000 0.91840  0.84170  0.65600  Biso   1.000  C
  Cd4      1.0000 0.22443  0.36476  0.37910  Biso   1.000  Cd
  N19      1.0000 0.24510  0.42010  0.59580  Biso   1.000  N
  N20      1.0000 0.25000  0.57830  0.15360  Biso   1.000  N
  N21      1.0000 0.32610  0.69960  0.58920  Biso   1.000  N
  N22      1.0000 0.62420  0.66770  0.63120  Biso   1.000  N
  N23      1.0000 0.18180  0.30700  0.15210  Biso   1.000  N
  N24      1.0000 0.05750  0.37440  0.33630  Biso   1.000  N
  C22      1.0000 0.24790  0.45080  0.69920  Biso   1.000  C
  C23      1.0000 0.25000  0.45120  0.04610  Biso   1.000  C
  C24      1.0000 0.39160  0.71880  0.65150  Biso   1.000  C
  C25      1.0000 0.57570  0.69860  0.67530  Biso   1.000  C
  C26      1.0000 0.07990  0.31010  0.12200  Biso   1.000  C
  C27      1.0000 0.02400  0.34080  0.19900  Biso   1.000  C
  C28      1.0000 0.91840  0.34170  0.15600  Biso   1.000  C
  Cd5      1.0000 0.72443  0.86476  0.12090  Biso   1.000  Cd
  N25      1.0000 0.74510  0.92010  0.90420  Biso   1.000  N
  N26      1.0000 0.75000  0.07830  0.34640  Biso   1.000  N
  N27      1.0000 0.82610  0.19960  0.91080  Biso   1.000  N
  N28      1.0000 0.12420  0.16770  0.86880  Biso   1.000  N
  N29      1.0000 0.68180  0.80700  0.34790  Biso   1.000  N
  N30      1.0000 0.55750  0.87440  0.16370  Biso   1.000  N
  C29      1.0000 0.74790  0.95080  0.80080  Biso   1.000  C
  C30      1.0000 0.75000  0.95120  0.45390  Biso   1.000  C
  C31      1.0000 0.89160  0.21880  0.84850  Biso   1.000  C
  C32      1.0000 0.07570  0.19860  0.82470  Biso   1.000  C
  C33      1.0000 0.57990  0.81010  0.37800  Biso   1.000  C
  C34      1.0000 0.52400  0.84080  0.30100  Biso   1.000  C
  C35      1.0000 0.41840  0.84170  0.34400  Biso   1.000  C
  Cd6      1.0000 0.72443  0.36476  0.62090  Biso   1.000  Cd
  N31      1.0000 0.74510  0.42010  0.40420  Biso   1.000  N
  N32      1.0000 0.75000  0.57830  0.84640  Biso   1.000  N
  N33      1.0000 0.82610  0.69960  0.41080  Biso   1.000  N
  N34      1.0000 0.12420  0.66770  0.36880  Biso   1.000  N
  N35      1.0000 0.68180  0.30700  0.84790  Biso   1.000  N
  N36      1.0000 0.55750  0.37440  0.66370  Biso   1.000  N
  C36      1.0000 0.74790  0.45080  0.30080  Biso   1.000  C
  C37      1.0000 0.75000  0.45120  0.95390  Biso   1.000  C
  C38      1.0000 0.89160  0.71880  0.34850  Biso   1.000  C
  C39      1.0000 0.07570  0.69860  0.32470  Biso   1.000  C
  C40      1.0000 0.57990  0.31010  0.87800  Biso   1.000  C
  C41      1.0000 0.52400  0.34080  0.80100  Biso   1.000  C
  C42      1.0000 0.41840  0.34170  0.84400  Biso   1.000  C
  Cd7      1.0000 0.77557  0.13524  0.12090  Biso   1.000  Cd
  N37      1.0000 0.75490  0.07990  0.90420  Biso   1.000  N
  N38      1.0000 0.75000  0.92170  0.34640  Biso   1.000  N
  N39      1.0000 0.67390  0.80040  0.91080  Biso   1.000  N
  N40      1.0000 0.37580  0.83230  0.86880  Biso   1.000  N
  N41      1.0000 0.81820  0.19300  0.34790  Biso   1.000  N
  N42      1.0000 0.94250  0.12560  0.16370  Biso   1.000  N
  C43      1.0000 0.75210  0.04920  0.80080  Biso   1.000  C
  C44      1.0000 0.75000  0.04880  0.45390  Biso   1.000  C
  C45      1.0000 0.60840  0.78120  0.84850  Biso   1.000  C
  C46      1.0000 0.42430  0.80140  0.82470  Biso   1.000  C
  C47      1.0000 0.92010  0.18990  0.37800  Biso   1.000  C
  C48      1.0000 0.97600  0.15920  0.30100  Biso   1.000  C
  C49      1.0000 0.08160  0.15830  0.34400  Biso   1.000  C
  Cd8      1.0000 0.77557  0.63524  0.62090  Biso   1.000  Cd
  N43      1.0000 0.75490  0.57990  0.40420  Biso   1.000  N
  N44      1.0000 0.75000  0.42170  0.84640  Biso   1.000  N
  N45      1.0000 0.67390  0.30040  0.41080  Biso   1.000  N
  N46      1.0000 0.37580  0.33230  0.36880  Biso   1.000  N
  N47      1.0000 0.81820  0.69300  0.84790  Biso   1.000  N
  N48      1.0000 0.94250  0.62560  0.66370  Biso   1.000  N
  C50      1.0000 0.75210  0.54920  0.30080  Biso   1.000  C
  C51      1.0000 0.75000  0.54880  0.95390  Biso   1.000  C
  C52      1.0000 0.60840  0.28120  0.34850  Biso   1.000  C
  C53      1.0000 0.42430  0.30140  0.32470  Biso   1.000  C
  C54      1.0000 0.92010  0.68990  0.87800  Biso   1.000  C
  C55      1.0000 0.97600  0.65920  0.80100  Biso   1.000  C
  C56      1.0000 0.08160  0.65830  0.84400  Biso   1.000  C
  Ni1      1.0000 0.25000  0.00000  0.37220  Biso   1.000  Ni
  Ni2      1.0000 0.25000  0.50000  0.87220  Biso   1.000  Ni
  Ni3      1.0000 0.75000  0.00000  0.62780  Biso   1.000  Ni
  Ni4      1.0000 0.75000  0.50000  0.12780  Biso   1.000  Ni
  Ni5      1.0000 0.00000  0.75000  0.25000  Biso   1.000  Ni
  Ni6      1.0000 0.50000  0.25000  0.25000  Biso   1.000  Ni
  Ni7      1.0000 0.00000  0.25000  0.75000  Biso   1.000  Ni
  Ni8      1.0000 0.50000  0.75000  0.75000  Biso   1.000  Ni
