data_image0
_cell_length_a       14.183
_cell_length_b       26.983
_cell_length_c       7.615
_cell_angle_alpha    90
_cell_angle_beta     90
_cell_angle_gamma    90

_symmetry_space_group_name_H-M    "P 1"
_symmetry_int_tables_number       1

loop_
  _symmetry_equiv_pos_as_xyz
  'x, y, z'

loop_
  _atom_site_label
  _atom_site_occupancy
  _atom_site_fract_x
  _atom_site_fract_y
  _atom_site_fract_z
  _atom_site_thermal_displace_type
  _atom_site_B_iso_or_equiv
  _atom_site_type_symbol
  Cd1      1.0000 0.21721  0.11490  0.12333  Biso   1.000  Cd
  N1       1.0000 0.24000  0.17110  0.89400  Biso   1.000  N
  N2       1.0000 0.24370  0.17120  0.33500  Biso   1.000  N
  N3       1.0000 0.36680  0.07960  0.11700  Biso   1.000  N
  N4       1.0000 0.17530  0.05620  0.90300  Biso   1.000  N
  N5       1.0000 0.05260  0.12650  0.07900  Biso   1.000  N
  C1       1.0000 0.24070  0.20090  0.78900  Biso   1.000  C
  C2       1.0000 0.24650  0.20110  0.44100  Biso   1.000  C
  C3       1.0000 0.41830  0.05000  0.07400  Biso   1.000  C
  C4       1.0000 0.07500  0.05780  0.87600  Biso   1.000  C
  C5       1.0000 0.02200  0.09420  0.93800  Biso   1.000  C
  C6       1.0000 0.91510  0.09290  0.90600  Biso   1.000  C
  N6       1.0000 0.33450  0.94690  0.83900  Biso   1.000  N
  C7       1.0000 0.39680  0.96700  0.90100  Biso   1.000  C
  Cd2      1.0000 0.78279  0.61490  0.87667  Biso   1.000  Cd
  N7       1.0000 0.76000  0.67110  0.10600  Biso   1.000  N
  N8       1.0000 0.75630  0.67120  0.66500  Biso   1.000  N
  N9       1.0000 0.63320  0.57960  0.88300  Biso   1.000  N
  N10      1.0000 0.82470  0.55620  0.09700  Biso   1.000  N
  N11      1.0000 0.94740  0.62650  0.92100  Biso   1.000  N
  C8       1.0000 0.75930  0.70090  0.21100  Biso   1.000  C
  C9       1.0000 0.75350  0.70110  0.55900  Biso   1.000  C
  C10      1.0000 0.58170  0.55000  0.92600  Biso   1.000  C
  C11      1.0000 0.92500  0.55780  0.12400  Biso   1.000  C
  C12      1.0000 0.97800  0.59420  0.06200  Biso   1.000  C
  C13      1.0000 0.08490  0.59290  0.09400  Biso   1.000  C
  N12      1.0000 0.66550  0.44690  0.16100  Biso   1.000  N
  C14      1.0000 0.60320  0.46700  0.09900  Biso   1.000  C
  Cd3      1.0000 0.78279  0.88510  0.87667  Biso   1.000  Cd
  N13      1.0000 0.76000  0.82890  0.10600  Biso   1.000  N
  N14      1.0000 0.75630  0.82880  0.66500  Biso   1.000  N
  N15      1.0000 0.63320  0.92040  0.88300  Biso   1.000  N
  N16      1.0000 0.82470  0.94380  0.09700  Biso   1.000  N
  N17      1.0000 0.94740  0.87350  0.92100  Biso   1.000  N
  C15      1.0000 0.75930  0.79910  0.21100  Biso   1.000  C
  C16      1.0000 0.75350  0.79890  0.55900  Biso   1.000  C
  C17      1.0000 0.58170  0.95000  0.92600  Biso   1.000  C
  C18      1.0000 0.92500  0.94220  0.12400  Biso   1.000  C
  C19      1.0000 0.97800  0.90580  0.06200  Biso   1.000  C
  C20      1.0000 0.08490  0.90710  0.09400  Biso   1.000  C
  N18      1.0000 0.66550  0.05310  0.16100  Biso   1.000  N
  C21      1.0000 0.60320  0.03300  0.09900  Biso   1.000  C
  Cd4      1.0000 0.21721  0.38510  0.12333  Biso   1.000  Cd
  N19      1.0000 0.24000  0.32890  0.89400  Biso   1.000  N
  N20      1.0000 0.24370  0.32880  0.33500  Biso   1.000  N
  N21      1.0000 0.36680  0.42040  0.11700  Biso   1.000  N
  N22      1.0000 0.17530  0.44380  0.90300  Biso   1.000  N
  N23      1.0000 0.05260  0.37350  0.07900  Biso   1.000  N
  C22      1.0000 0.24070  0.29910  0.78900  Biso   1.000  C
  C23      1.0000 0.24650  0.29890  0.44100  Biso   1.000  C
  C24      1.0000 0.41830  0.45000  0.07400  Biso   1.000  C
  C25      1.0000 0.07500  0.44220  0.87600  Biso   1.000  C
  C26      1.0000 0.02200  0.40580  0.93800  Biso   1.000  C
  C27      1.0000 0.91510  0.40710  0.90600  Biso   1.000  C
  N24      1.0000 0.33450  0.55310  0.83900  Biso   1.000  N
  C28      1.0000 0.39680  0.53300  0.90100  Biso   1.000  C
  Ni1      1.0000 0.24580  0.25000  0.61390  Biso   1.000  Ni
  Ni2      1.0000 0.75420  0.75000  0.38610  Biso   1.000  Ni
  Ni3      1.0000 0.50000  0.00000  0.00000  Biso   1.000  Ni
  Ni4      1.0000 0.50000  0.50000  0.00000  Biso   1.000  Ni
  N25      1.0000 0.16550  0.05310  0.33900  Biso   1.000  N
  C29      1.0000 0.10320  0.03300  0.40100  Biso   1.000  C
  Cd5      1.0000 0.28279  0.88510  0.62333  Biso   1.000  Cd
  N26      1.0000 0.26000  0.82890  0.39400  Biso   1.000  N
  N27      1.0000 0.25630  0.82880  0.83500  Biso   1.000  N
  N28      1.0000 0.13320  0.92040  0.61700  Biso   1.000  N
  N29      1.0000 0.32470  0.94380  0.40300  Biso   1.000  N
  N30      1.0000 0.44740  0.87350  0.57900  Biso   1.000  N
  C30      1.0000 0.25930  0.79910  0.28900  Biso   1.000  C
  C31      1.0000 0.25350  0.79890  0.94100  Biso   1.000  C
  C32      1.0000 0.08170  0.95000  0.57400  Biso   1.000  C
  C33      1.0000 0.42500  0.94220  0.37600  Biso   1.000  C
  C34      1.0000 0.47800  0.90580  0.43800  Biso   1.000  C
  C35      1.0000 0.58490  0.90710  0.40600  Biso   1.000  C
  N31      1.0000 0.83450  0.55310  0.66100  Biso   1.000  N
  C36      1.0000 0.89680  0.53300  0.59900  Biso   1.000  C
  Cd6      1.0000 0.71721  0.38510  0.37667  Biso   1.000  Cd
  N32      1.0000 0.74000  0.32890  0.60600  Biso   1.000  N
  N33      1.0000 0.74370  0.32880  0.16500  Biso   1.000  N
  N34      1.0000 0.86680  0.42040  0.38300  Biso   1.000  N
  N35      1.0000 0.67530  0.44380  0.59700  Biso   1.000  N
  N36      1.0000 0.55260  0.37350  0.42100  Biso   1.000  N
  C37      1.0000 0.74070  0.29910  0.71100  Biso   1.000  C
  C38      1.0000 0.74650  0.29890  0.05900  Biso   1.000  C
  C39      1.0000 0.91830  0.45000  0.42600  Biso   1.000  C
  C40      1.0000 0.57500  0.44220  0.62400  Biso   1.000  C
  C41      1.0000 0.52200  0.40580  0.56200  Biso   1.000  C
  C42      1.0000 0.41510  0.40710  0.59400  Biso   1.000  C
  N37      1.0000 0.83450  0.94690  0.66100  Biso   1.000  N
  C43      1.0000 0.89680  0.96700  0.59900  Biso   1.000  C
  Cd7      1.0000 0.71721  0.11490  0.37667  Biso   1.000  Cd
  N38      1.0000 0.74000  0.17110  0.60600  Biso   1.000  N
  N39      1.0000 0.74370  0.17120  0.16500  Biso   1.000  N
  N40      1.0000 0.86680  0.07960  0.38300  Biso   1.000  N
  N41      1.0000 0.67530  0.05620  0.59700  Biso   1.000  N
  N42      1.0000 0.55260  0.12650  0.42100  Biso   1.000  N
  C44      1.0000 0.74070  0.20090  0.71100  Biso   1.000  C
  C45      1.0000 0.74650  0.20110  0.05900  Biso   1.000  C
  C46      1.0000 0.91830  0.05000  0.42600  Biso   1.000  C
  C47      1.0000 0.57500  0.05780  0.62400  Biso   1.000  C
  C48      1.0000 0.52200  0.09420  0.56200  Biso   1.000  C
  C49      1.0000 0.41510  0.09290  0.59400  Biso   1.000  C
  N43      1.0000 0.16550  0.44690  0.33900  Biso   1.000  N
  C50      1.0000 0.10320  0.46700  0.40100  Biso   1.000  C
  Cd8      1.0000 0.28279  0.61490  0.62333  Biso   1.000  Cd
  N44      1.0000 0.26000  0.67110  0.39400  Biso   1.000  N
  N45      1.0000 0.25630  0.67120  0.83500  Biso   1.000  N
  N46      1.0000 0.13320  0.57960  0.61700  Biso   1.000  N
  N47      1.0000 0.32470  0.55620  0.40300  Biso   1.000  N
  N48      1.0000 0.44740  0.62650  0.57900  Biso   1.000  N
  C51      1.0000 0.25930  0.70090  0.28900  Biso   1.000  C
  C52      1.0000 0.25350  0.70110  0.94100  Biso   1.000  C
  C53      1.0000 0.08170  0.55000  0.57400  Biso   1.000  C
  C54      1.0000 0.42500  0.55780  0.37600  Biso   1.000  C
  C55      1.0000 0.47800  0.59420  0.43800  Biso   1.000  C
  C56      1.0000 0.58490  0.59290  0.40600  Biso   1.000  C
  Ni5      1.0000 0.25420  0.75000  0.11390  Biso   1.000  Ni
  Ni6      1.0000 0.74580  0.25000  0.88610  Biso   1.000  Ni
  Ni7      1.0000 0.00000  0.00000  0.50000  Biso   1.000  Ni
  Ni8      1.0000 0.00000  0.50000  0.50000  Biso   1.000  Ni
