data_image0
_cell_length_a       14.104
_cell_length_b       26.799
_cell_length_c       7.657
_cell_angle_alpha    90
_cell_angle_beta     90
_cell_angle_gamma    90

_symmetry_space_group_name_H-M    "P 1"
_symmetry_int_tables_number       1

loop_
  _symmetry_equiv_pos_as_xyz
  'x, y, z'

loop_
  _atom_site_label
  _atom_site_occupancy
  _atom_site_fract_x
  _atom_site_fract_y
  _atom_site_fract_z
  _atom_site_thermal_displace_type
  _atom_site_B_iso_or_equiv
  _atom_site_type_symbol
  Cd1      1.0000 0.21640  0.11507  0.12340  Biso   1.000  Cd
  N1       1.0000 0.24100  0.17160  0.89700  Biso   1.000  N
  N2       1.0000 0.24140  0.17110  0.33500  Biso   1.000  N
  N3       1.0000 0.16540  0.05270  0.33600  Biso   1.000  N
  N4       1.0000 0.36860  0.08070  0.11900  Biso   1.000  N
  N5       1.0000 0.17560  0.05600  0.90300  Biso   1.000  N
  N6       1.0000 0.05210  0.12750  0.07800  Biso   1.000  N
  C1       1.0000 0.24350  0.20090  0.78700  Biso   1.000  C
  C2       1.0000 0.24540  0.20130  0.44200  Biso   1.000  C
  C3       1.0000 0.10410  0.03290  0.40100  Biso   1.000  C
  C4       1.0000 0.41830  0.05020  0.07500  Biso   1.000  C
  C5       1.0000 0.07400  0.05970  0.87400  Biso   1.000  C
  C6       1.0000 0.02000  0.09400  0.93900  Biso   1.000  C
  C7       1.0000 0.91310  0.09430  0.90800  Biso   1.000  C
  Cd2      1.0000 0.28360  0.88493  0.62340  Biso   1.000  Cd
  N7       1.0000 0.25900  0.82840  0.39700  Biso   1.000  N
  N8       1.0000 0.25860  0.82890  0.83500  Biso   1.000  N
  N9       1.0000 0.33460  0.94730  0.83600  Biso   1.000  N
  N10      1.0000 0.13140  0.91930  0.61900  Biso   1.000  N
  N11      1.0000 0.32440  0.94400  0.40300  Biso   1.000  N
  N12      1.0000 0.44790  0.87250  0.57800  Biso   1.000  N
  C8       1.0000 0.25650  0.79910  0.28700  Biso   1.000  C
  C9       1.0000 0.25460  0.79870  0.94200  Biso   1.000  C
  C10      1.0000 0.39590  0.96710  0.90100  Biso   1.000  C
  C11      1.0000 0.08170  0.94980  0.57500  Biso   1.000  C
  C12      1.0000 0.42600  0.94030  0.37400  Biso   1.000  C
  C13      1.0000 0.48000  0.90600  0.43900  Biso   1.000  C
  C14      1.0000 0.58690  0.90570  0.40800  Biso   1.000  C
  Cd3      1.0000 0.78360  0.61507  0.87660  Biso   1.000  Cd
  N13      1.0000 0.75900  0.67160  0.10300  Biso   1.000  N
  N14      1.0000 0.75860  0.67110  0.66500  Biso   1.000  N
  N15      1.0000 0.83460  0.55270  0.66400  Biso   1.000  N
  N16      1.0000 0.63140  0.58070  0.88100  Biso   1.000  N
  N17      1.0000 0.82440  0.55600  0.09700  Biso   1.000  N
  N18      1.0000 0.94790  0.62750  0.92200  Biso   1.000  N
  C15      1.0000 0.75650  0.70090  0.21300  Biso   1.000  C
  C16      1.0000 0.75460  0.70130  0.55800  Biso   1.000  C
  C17      1.0000 0.89590  0.53290  0.59900  Biso   1.000  C
  C18      1.0000 0.58170  0.55020  0.92500  Biso   1.000  C
  C19      1.0000 0.92600  0.55970  0.12600  Biso   1.000  C
  C20      1.0000 0.98000  0.59400  0.06100  Biso   1.000  C
  C21      1.0000 0.08690  0.59430  0.09200  Biso   1.000  C
  Cd4      1.0000 0.71640  0.38493  0.37660  Biso   1.000  Cd
  N19      1.0000 0.74100  0.32840  0.60300  Biso   1.000  N
  N20      1.0000 0.74140  0.32890  0.16500  Biso   1.000  N
  N21      1.0000 0.66540  0.44730  0.16400  Biso   1.000  N
  N22      1.0000 0.86860  0.41930  0.38100  Biso   1.000  N
  N23      1.0000 0.67560  0.44400  0.59700  Biso   1.000  N
  N24      1.0000 0.55210  0.37250  0.42200  Biso   1.000  N
  C22      1.0000 0.74350  0.29910  0.71300  Biso   1.000  C
  C23      1.0000 0.74540  0.29870  0.05800  Biso   1.000  C
  C24      1.0000 0.60410  0.46710  0.09900  Biso   1.000  C
  C25      1.0000 0.91830  0.44980  0.42500  Biso   1.000  C
  C26      1.0000 0.57400  0.44030  0.62600  Biso   1.000  C
  C27      1.0000 0.52000  0.40600  0.56100  Biso   1.000  C
  C28      1.0000 0.41310  0.40570  0.59200  Biso   1.000  C
  Cd5      1.0000 0.78360  0.88493  0.87660  Biso   1.000  Cd
  N25      1.0000 0.75900  0.82840  0.10300  Biso   1.000  N
  N26      1.0000 0.75860  0.82890  0.66500  Biso   1.000  N
  N27      1.0000 0.83460  0.94730  0.66400  Biso   1.000  N
  N28      1.0000 0.63140  0.91930  0.88100  Biso   1.000  N
  N29      1.0000 0.82440  0.94400  0.09700  Biso   1.000  N
  N30      1.0000 0.94790  0.87250  0.92200  Biso   1.000  N
  C29      1.0000 0.75650  0.79910  0.21300  Biso   1.000  C
  C30      1.0000 0.75460  0.79870  0.55800  Biso   1.000  C
  C31      1.0000 0.89590  0.96710  0.59900  Biso   1.000  C
  C32      1.0000 0.58170  0.94980  0.92500  Biso   1.000  C
  C33      1.0000 0.92600  0.94030  0.12600  Biso   1.000  C
  C34      1.0000 0.98000  0.90600  0.06100  Biso   1.000  C
  C35      1.0000 0.08690  0.90570  0.09200  Biso   1.000  C
  Cd6      1.0000 0.71640  0.11507  0.37660  Biso   1.000  Cd
  N31      1.0000 0.74100  0.17160  0.60300  Biso   1.000  N
  N32      1.0000 0.74140  0.17110  0.16500  Biso   1.000  N
  N33      1.0000 0.66540  0.05270  0.16400  Biso   1.000  N
  N34      1.0000 0.86860  0.08070  0.38100  Biso   1.000  N
  N35      1.0000 0.67560  0.05600  0.59700  Biso   1.000  N
  N36      1.0000 0.55210  0.12750  0.42200  Biso   1.000  N
  C36      1.0000 0.74350  0.20090  0.71300  Biso   1.000  C
  C37      1.0000 0.74540  0.20130  0.05800  Biso   1.000  C
  C38      1.0000 0.60410  0.03290  0.09900  Biso   1.000  C
  C39      1.0000 0.91830  0.05020  0.42500  Biso   1.000  C
  C40      1.0000 0.57400  0.05970  0.62600  Biso   1.000  C
  C41      1.0000 0.52000  0.09400  0.56100  Biso   1.000  C
  C42      1.0000 0.41310  0.09430  0.59200  Biso   1.000  C
  Cd7      1.0000 0.21640  0.38493  0.12340  Biso   1.000  Cd
  N37      1.0000 0.24100  0.32840  0.89700  Biso   1.000  N
  N38      1.0000 0.24140  0.32890  0.33500  Biso   1.000  N
  N39      1.0000 0.16540  0.44730  0.33600  Biso   1.000  N
  N40      1.0000 0.36860  0.41930  0.11900  Biso   1.000  N
  N41      1.0000 0.17560  0.44400  0.90300  Biso   1.000  N
  N42      1.0000 0.05210  0.37250  0.07800  Biso   1.000  N
  C43      1.0000 0.24350  0.29910  0.78700  Biso   1.000  C
  C44      1.0000 0.24540  0.29870  0.44200  Biso   1.000  C
  C45      1.0000 0.10410  0.46710  0.40100  Biso   1.000  C
  C46      1.0000 0.41830  0.44980  0.07500  Biso   1.000  C
  C47      1.0000 0.07400  0.44030  0.87400  Biso   1.000  C
  C48      1.0000 0.02000  0.40600  0.93900  Biso   1.000  C
  C49      1.0000 0.91310  0.40570  0.90800  Biso   1.000  C
  Cd8      1.0000 0.28360  0.61507  0.62340  Biso   1.000  Cd
  N43      1.0000 0.25900  0.67160  0.39700  Biso   1.000  N
  N44      1.0000 0.25860  0.67110  0.83500  Biso   1.000  N
  N45      1.0000 0.33460  0.55270  0.83600  Biso   1.000  N
  N46      1.0000 0.13140  0.58070  0.61900  Biso   1.000  N
  N47      1.0000 0.32440  0.55600  0.40300  Biso   1.000  N
  N48      1.0000 0.44790  0.62750  0.57800  Biso   1.000  N
  C50      1.0000 0.25650  0.70090  0.28700  Biso   1.000  C
  C51      1.0000 0.25460  0.70130  0.94200  Biso   1.000  C
  C52      1.0000 0.39590  0.53290  0.90100  Biso   1.000  C
  C53      1.0000 0.08170  0.55020  0.57500  Biso   1.000  C
  C54      1.0000 0.42600  0.55970  0.37400  Biso   1.000  C
  C55      1.0000 0.48000  0.59400  0.43900  Biso   1.000  C
  C56      1.0000 0.58690  0.59430  0.40800  Biso   1.000  C
  Ni1      1.0000 0.24640  0.25000  0.61450  Biso   1.000  Ni
  Ni2      1.0000 0.25360  0.75000  0.11450  Biso   1.000  Ni
  Ni3      1.0000 0.75360  0.75000  0.38550  Biso   1.000  Ni
  Ni4      1.0000 0.74640  0.25000  0.88550  Biso   1.000  Ni
  Ni5      1.0000 0.00000  0.00000  0.50000  Biso   1.000  Ni
  Ni6      1.0000 0.50000  0.00000  0.00000  Biso   1.000  Ni
  Ni7      1.0000 0.00000  0.50000  0.50000  Biso   1.000  Ni
  Ni8      1.0000 0.50000  0.50000  0.00000  Biso   1.000  Ni
