data_JOPWUI_clean
_audit_creation_date              2015-10-16
_audit_creation_method            'Materials Studio'
_symmetry_space_group_name_H-M    'P1'
_symmetry_Int_Tables_number       1
_symmetry_cell_setting            triclinic
loop_
_symmetry_equiv_pos_as_xyz
  x,y,z
_cell_length_a                    17.9572
_cell_length_b                    17.9572
_cell_length_c                    17.9572
_cell_angle_alpha                 96.2813
_cell_angle_beta                  96.2813
_cell_angle_gamma                 96.2813
loop_
_atom_site_label
_atom_site_type_symbol
_atom_site_fract_x
_atom_site_fract_y
_atom_site_fract_z
_atom_site_U_iso_or_equiv
_atom_site_adp_type
_atom_site_occupancy
Cd1    Cd    0.97549   0.49438   0.68799   0.01267  Uiso   1.00
Cd2    Cd    0.12597   0.12597   0.12597   0.01267  Uiso   1.00
Cd3    Cd    0.02451   0.50562   0.31201   0.01267  Uiso   1.00
Cd4    Cd    0.49438   0.68799   0.97549   0.01267  Uiso   1.00
Cd5    Cd    0.00000   0.50000   0.50000   0.01267  Uiso   1.00
Cd6    Cd    0.50562   0.31201   0.02451   0.01267  Uiso   1.00
Cd7    Cd    0.68799   0.97549   0.49438   0.01267  Uiso   1.00
Cd8    Cd    0.31201   0.02451   0.50562   0.01267  Uiso   1.00
Cd9    Cd    0.00000   0.00000   0.00000   0.01267  Uiso   1.00
Cd10   Cd    0.50000   0.50000  -0.00000   0.01267  Uiso   1.00
Cd11   Cd    0.87403   0.87403   0.87403   0.01267  Uiso   1.00
Cd12   Cd    0.50000  -0.00000   0.50000   0.01267  Uiso   1.00
H1     H     0.36810   0.47090   0.61710   0.01267  Uiso   1.00
H2     H     0.92450   0.92010   0.15870   0.01267  Uiso   1.00
H3     H     0.50650   0.62790   0.56700   0.01267  Uiso   1.00
H4     H     0.26940   0.96910   0.74590   0.01267  Uiso   1.00
H5     H     0.28930   0.82980   0.66460   0.01267  Uiso   1.00
H6     H     0.64040   0.76680   0.35640   0.01267  Uiso   1.00
H7     H     0.89830   0.60160   0.14750   0.01267  Uiso   1.00
H8     H     0.62790   0.56700   0.50650   0.01267  Uiso   1.00
H9     H     0.63190   0.52910   0.38290   0.01267  Uiso   1.00
H10    H     0.32310   0.79360   0.37890   0.01267  Uiso   1.00
H11    H     0.14750   0.89830   0.60160   0.01267  Uiso   1.00
H12    H     0.73380   0.03160   0.77190   0.01267  Uiso   1.00
H13    H     0.60160   0.14750   0.89830   0.01267  Uiso   1.00
H14    H     0.62110   0.67690   0.20640   0.01267  Uiso   1.00
H15    H     0.96840   0.22810   0.26620   0.01267  Uiso   1.00
H16    H     0.77190   0.73380   0.03160   0.01267  Uiso   1.00
H17    H     0.17870   0.86030   0.37890   0.01267  Uiso   1.00
H18    H     0.73060   0.03090   0.25410   0.01267  Uiso   1.00
H19    H     0.79360   0.37890   0.32310   0.01267  Uiso   1.00
H20    H     0.11700   0.19240   0.79680   0.01267  Uiso   1.00
H21    H     0.57290   0.88550   0.28960   0.01267  Uiso   1.00
H22    H     0.56700   0.50650   0.62790   0.01267  Uiso   1.00
H23    H     0.33720   0.49050   0.10330   0.01267  Uiso   1.00
H24    H     0.17020   0.33540   0.71070   0.01267  Uiso   1.00
H25    H     0.70700   0.08440   0.88840   0.01267  Uiso   1.00
H26    H     0.10330   0.33720   0.49050   0.01267  Uiso   1.00
H27    H     0.33980   0.68710   0.84140   0.01267  Uiso   1.00
H28    H     0.15860   0.66020   0.31290   0.01267  Uiso   1.00
H29    H     0.35960   0.23320   0.64360   0.01267  Uiso   1.00
H30    H     0.69660   0.79460   0.17430   0.01267  Uiso   1.00
H31    H     0.96910   0.74590   0.26940   0.01267  Uiso   1.00
H32    H     0.70560   0.17040   0.54710   0.01267  Uiso   1.00
H33    H     0.37890   0.32310   0.79360   0.01267  Uiso   1.00
H34    H     0.66020   0.31290   0.15860   0.01267  Uiso   1.00
H35    H     0.92010   0.15870   0.92450   0.01267  Uiso   1.00
H36    H     0.18870   0.69540   0.47530   0.01267  Uiso   1.00
H37    H     0.20540   0.82570   0.30340   0.01267  Uiso   1.00
H38    H     0.54190   0.09440   0.67450   0.01267  Uiso   1.00
H39    H     0.45290   0.29440   0.82960   0.01267  Uiso   1.00
H40    H     0.03160   0.77190   0.73380   0.01267  Uiso   1.00
H41    H     0.42710   0.11450   0.71040   0.01267  Uiso   1.00
H42    H     0.56520   0.17390   0.55380   0.01267  Uiso   1.00
H43    H     0.71070   0.17020   0.33540   0.01267  Uiso   1.00
H44    H     0.82960   0.45290   0.29440   0.01267  Uiso   1.00
H45    H     0.47530   0.18870   0.69540   0.01267  Uiso   1.00
H46    H     0.10170   0.39840   0.85250   0.01267  Uiso   1.00
H47    H     0.79460   0.17430   0.69660   0.01267  Uiso   1.00
H48    H     0.50950   0.89670   0.66280   0.01267  Uiso   1.00
H49    H     0.39840   0.85250   0.10170   0.01267  Uiso   1.00
H50    H     0.69540   0.47530   0.18870   0.01267  Uiso   1.00
H51    H     0.72990   0.78020   0.44640   0.01267  Uiso   1.00
H52    H     0.55360   0.27010   0.21980   0.01267  Uiso   1.00
H53    H     0.27570   0.44980   0.40300   0.01267  Uiso   1.00
H54    H     0.55380   0.56520   0.17390   0.01267  Uiso   1.00
H55    H     0.08360   0.73240   0.86900   0.01267  Uiso   1.00
H56    H     0.84130   0.07550   0.07990   0.01267  Uiso   1.00
H57    H     0.26620   0.96840   0.22810   0.01267  Uiso   1.00
H58    H     0.66460   0.28930   0.82980   0.01267  Uiso   1.00
H59    H     0.49350   0.37210   0.43300   0.01267  Uiso   1.00
H60    H     0.44640   0.72990   0.78020   0.01267  Uiso   1.00
H61    H     0.40300   0.27570   0.44980   0.01267  Uiso   1.00
H62    H     0.15870   0.92450   0.92010   0.01267  Uiso   1.00
H63    H     0.20320   0.88300   0.80760   0.01267  Uiso   1.00
H64    H     0.68710   0.84140   0.33980   0.01267  Uiso   1.00
H65    H     0.44980   0.40300   0.27570   0.01267  Uiso   1.00
H66    H     0.38290   0.63190   0.52910   0.01267  Uiso   1.00
H67    H     0.64360   0.35960   0.23320   0.01267  Uiso   1.00
H68    H     0.33540   0.71070   0.17020   0.01267  Uiso   1.00
H69    H     0.73240   0.86900   0.08360   0.01267  Uiso   1.00
H70    H     0.86030   0.37890   0.17870   0.01267  Uiso   1.00
H71    H     0.11160   0.29300   0.91560   0.01267  Uiso   1.00
H72    H     0.90560   0.32550   0.45810   0.01267  Uiso   1.00
H73    H     0.13100   0.91640   0.26760   0.01267  Uiso   1.00
H74    H     0.29300   0.91560   0.11160   0.01267  Uiso   1.00
H75    H     0.35640   0.64040   0.76680   0.01267  Uiso   1.00
H76    H     0.19180   0.25500   0.45840   0.01267  Uiso   1.00
H77    H     0.20640   0.62110   0.67690   0.01267  Uiso   1.00
H78    H     0.79680   0.11700   0.19240   0.01267  Uiso   1.00
H79    H     0.17040   0.54710   0.70560   0.01267  Uiso   1.00
H80    H     0.84140   0.33980   0.68710   0.01267  Uiso   1.00
H81    H     0.67450   0.54190   0.09440   0.01267  Uiso   1.00
H82    H     0.82980   0.66460   0.28930   0.01267  Uiso   1.00
H83    H     0.52470   0.81130   0.30460   0.01267  Uiso   1.00
H84    H     0.29440   0.82960   0.45290   0.01267  Uiso   1.00
H85    H     0.11450   0.71040   0.42710   0.01267  Uiso   1.00
H86    H     0.91640   0.26760   0.13100   0.01267  Uiso   1.00
H87    H     0.71040   0.42710   0.11450   0.01267  Uiso   1.00
H88    H     0.25410   0.73060   0.03090   0.01267  Uiso   1.00
H89    H     0.74500   0.54160   0.80820   0.01267  Uiso   1.00
H90    H     0.47090   0.61710   0.36810   0.01267  Uiso   1.00
H91    H     0.54160   0.80820   0.74500   0.01267  Uiso   1.00
H92    H     0.86900   0.08360   0.73240   0.01267  Uiso   1.00
H93    H     0.37210   0.43300   0.49350   0.01267  Uiso   1.00
H94    H     0.30340   0.20540   0.82570   0.01267  Uiso   1.00
H95    H     0.21980   0.55360   0.27010   0.01267  Uiso   1.00
H96    H     0.17390   0.55380   0.56520   0.01267  Uiso   1.00
H97    H     0.45810   0.90560   0.32550   0.01267  Uiso   1.00
H98    H     0.23320   0.64360   0.35960   0.01267  Uiso   1.00
H99    H     0.13970   0.62110   0.82130   0.01267  Uiso   1.00
H100   H     0.17430   0.69660   0.79460   0.01267  Uiso   1.00
H101   H     0.07990   0.84130   0.07550   0.01267  Uiso   1.00
H102   H     0.66280   0.50950   0.89670   0.01267  Uiso   1.00
H103   H     0.25500   0.45840   0.19180   0.01267  Uiso   1.00
H104   H     0.43300   0.49350   0.37210   0.01267  Uiso   1.00
H105   H     0.76680   0.35640   0.64040   0.01267  Uiso   1.00
H106   H     0.37890   0.17870   0.86030   0.01267  Uiso   1.00
H107   H     0.78020   0.44640   0.72990   0.01267  Uiso   1.00
H108   H     0.82130   0.13970   0.62110   0.01267  Uiso   1.00
H109   H     0.88840   0.70700   0.08440   0.01267  Uiso   1.00
H110   H     0.82570   0.30340   0.20540   0.01267  Uiso   1.00
H111   H     0.07550   0.07990   0.84130   0.01267  Uiso   1.00
H112   H     0.22810   0.26620   0.96840   0.01267  Uiso   1.00
H113   H     0.61710   0.36810   0.47090   0.01267  Uiso   1.00
H114   H     0.30460   0.52470   0.81130   0.01267  Uiso   1.00
H115   H     0.43480   0.82610   0.44620   0.01267  Uiso   1.00
H116   H     0.09440   0.67450   0.54190   0.01267  Uiso   1.00
H117   H     0.31290   0.15860   0.66020   0.01267  Uiso   1.00
H118   H     0.32550   0.45810   0.90560   0.01267  Uiso   1.00
H119   H     0.59700   0.72430   0.55020   0.01267  Uiso   1.00
H120   H     0.45840   0.19180   0.25500   0.01267  Uiso   1.00
H121   H     0.52910   0.38290   0.63190   0.01267  Uiso   1.00
H122   H     0.82610   0.44620   0.43480   0.01267  Uiso   1.00
H123   H     0.88300   0.80760   0.20320   0.01267  Uiso   1.00
H124   H     0.08440   0.88840   0.70700   0.01267  Uiso   1.00
H125   H     0.28960   0.57290   0.88550   0.01267  Uiso   1.00
H126   H     0.27010   0.21980   0.55360   0.01267  Uiso   1.00
H127   H     0.67690   0.20640   0.62110   0.01267  Uiso   1.00
H128   H     0.44620   0.43480   0.82610   0.01267  Uiso   1.00
H129   H     0.54710   0.70560   0.17040   0.01267  Uiso   1.00
H130   H     0.80760   0.20320   0.88300   0.01267  Uiso   1.00
H131   H     0.26760   0.13100   0.91640   0.01267  Uiso   1.00
H132   H     0.72430   0.55020   0.59700   0.01267  Uiso   1.00
H133   H     0.88550   0.28960   0.57290   0.01267  Uiso   1.00
H134   H     0.55020   0.59700   0.72430   0.01267  Uiso   1.00
H135   H     0.80820   0.74500   0.54160   0.01267  Uiso   1.00
H136   H     0.91560   0.11160   0.29300   0.01267  Uiso   1.00
H137   H     0.62110   0.82130   0.13970   0.01267  Uiso   1.00
H138   H     0.85250   0.10170   0.39840   0.01267  Uiso   1.00
H139   H     0.89670   0.66280   0.50950   0.01267  Uiso   1.00
H140   H     0.81130   0.30460   0.52470   0.01267  Uiso   1.00
H141   H     0.74590   0.26940   0.96910   0.01267  Uiso   1.00
H142   H     0.49050   0.10330   0.33720   0.01267  Uiso   1.00
H143   H     0.19240   0.79680   0.11700   0.01267  Uiso   1.00
H144   H     0.03090   0.25410   0.73060   0.01267  Uiso   1.00
C1     C     0.14830   0.38970   0.87580   0.01267  Uiso   1.00
C2     C     0.34480   0.17740   0.81440   0.01267  Uiso   1.00
C3     C     0.21200   0.43950   0.87450   0.01267  Uiso   1.00
C4     C     0.27200   0.64090   0.22840   0.01267  Uiso   1.00
C5     C     0.67960   0.47180   0.86540   0.01267  Uiso   1.00
C6     C     0.25370   0.08150   0.89430   0.01267  Uiso   1.00
C7     C     0.87450   0.21200   0.43950   0.01267  Uiso   1.00
C8     C     0.92540   0.60330   0.37890   0.01267  Uiso   1.00
C9     C     0.24560   0.61430   0.78910   0.01267  Uiso   1.00
C10    C     0.34270   0.60170   0.12910   0.01267  Uiso   1.00
C11    C     0.50310   0.47440   0.21520   0.01267  Uiso   1.00
C12    C     0.39830   0.87090   0.65730   0.01267  Uiso   1.00
C13    C     0.78590   0.47070   0.44930   0.01267  Uiso   1.00
C14    C     0.95780   0.89700   0.18930   0.01267  Uiso   1.00
C15    C     0.65450   0.02780   0.63570   0.01267  Uiso   1.00
C16    C     0.05420   0.99910   0.18040   0.01267  Uiso   1.00
C17    C     0.21090   0.75440   0.38570   0.01267  Uiso   1.00
C18    C     0.94490   0.22420   0.30950   0.01267  Uiso   1.00
C19    C     0.52560   0.78480   0.49690   0.01267  Uiso   1.00
C20    C     0.03180   0.93120   0.21010   0.01267  Uiso   1.00
C21    C     0.89700   0.18930   0.95780   0.01267  Uiso   1.00
C22    C     0.53270   0.54660   0.72590   0.01267  Uiso   1.00
C23    C     0.94580   0.00090   0.81960   0.01267  Uiso   1.00
C24    C     0.96820   0.06880   0.78990   0.01267  Uiso   1.00
C25    C     0.21420   0.93320   0.82860   0.01267  Uiso   1.00
C26    C     0.71750   0.57560   0.09300   0.01267  Uiso   1.00
C27    C     0.85170   0.61030   0.12420   0.01267  Uiso   1.00
C28    C     0.94160   0.17400   0.72390   0.01267  Uiso   1.00
C29    C     0.21660   0.58120   0.70750   0.01267  Uiso   1.00
C30    C     0.60170   0.12910   0.34270   0.01267  Uiso   1.00
C31    C     0.37890   0.92540   0.60330   0.01267  Uiso   1.00
C32    C     0.84900   0.48630   0.58060   0.01267  Uiso   1.00
C33    C     0.98430   0.79310   0.25530   0.01267  Uiso   1.00
C34    C     0.51370   0.41940   0.15100   0.01267  Uiso   1.00
C35    C     0.34550   0.97220   0.36430   0.01267  Uiso   1.00
C36    C     0.82600   0.27610   0.05840   0.01267  Uiso   1.00
C37    C     0.76640   0.74950   0.43430   0.01267  Uiso   1.00
C38    C     0.55160   0.83490   0.26760   0.01267  Uiso   1.00
C39    C     0.72940   0.48040   0.39680   0.01267  Uiso   1.00
C40    C     0.38570   0.21090   0.75440   0.01267  Uiso   1.00
C41    C     0.30950   0.94490   0.22420   0.01267  Uiso   1.00
C42    C     0.43430   0.76640   0.74950   0.01267  Uiso   1.00
C43    C     0.65520   0.82260   0.18560   0.01267  Uiso   1.00
C44    C     0.65730   0.39830   0.87090   0.01267  Uiso   1.00
C45    C     0.05840   0.82600   0.27610   0.01267  Uiso   1.00
C46    C     0.63890   0.05940   0.71150   0.01267  Uiso   1.00
C47    C     0.81200   0.72830   0.49150   0.01267  Uiso   1.00
C48    C     0.41940   0.15100   0.51370   0.01267  Uiso   1.00
C49    C     0.58060   0.84900   0.48630   0.01267  Uiso   1.00
C50    C     0.67430   0.08740   0.84520   0.01267  Uiso   1.00
C51    C     0.44930   0.78590   0.47070   0.01267  Uiso   1.00
C52    C     0.58120   0.70750   0.21660   0.01267  Uiso   1.00
C53    C     0.50800   0.33160   0.45690   0.01267  Uiso   1.00
C54    C     0.09300   0.71750   0.57560   0.01267  Uiso   1.00
C55    C     0.50850   0.18800   0.27170   0.01267  Uiso   1.00
C56    C     0.44840   0.16510   0.73240   0.01267  Uiso   1.00
C57    C     0.54310   0.49200   0.66840   0.01267  Uiso   1.00
C58    C     0.07460   0.39670   0.62110   0.01267  Uiso   1.00
C59    C     0.82260   0.18560   0.65520   0.01267  Uiso   1.00
C60    C     0.15100   0.51370   0.41940   0.01267  Uiso   1.00
C61    C     0.47070   0.44930   0.78590   0.01267  Uiso   1.00
C62    C     0.52930   0.55070   0.21410   0.01267  Uiso   1.00
C63    C     0.49150   0.81200   0.72830   0.01267  Uiso   1.00
C64    C     0.17400   0.72390   0.94160   0.01267  Uiso   1.00
C65    C     0.31970   0.66050   0.17490   0.01267  Uiso   1.00
C66    C     0.41880   0.29250   0.78340   0.01267  Uiso   1.00
C67    C     0.66740   0.78990   0.31920   0.01267  Uiso   1.00
C68    C     0.15480   0.32570   0.91260   0.01267  Uiso   1.00
C69    C     0.26760   0.55160   0.83490   0.01267  Uiso   1.00
C70    C     0.20690   0.74470   0.01570   0.01267  Uiso   1.00
C71    C     0.17140   0.78580   0.06680   0.01267  Uiso   1.00
C72    C     0.27410   0.46730   0.45340   0.01267  Uiso   1.00
C73    C     0.62110   0.07460   0.39670   0.01267  Uiso   1.00
C74    C     0.78990   0.96820   0.06880   0.01267  Uiso   1.00
C75    C     0.46730   0.45340   0.27410   0.01267  Uiso   1.00
C76    C     0.38970   0.87580   0.14830   0.01267  Uiso   1.00
C77    C     0.12550   0.78800   0.56050   0.01267  Uiso   1.00
C78    C     0.68080   0.33260   0.21010   0.01267  Uiso   1.00
C79    C     0.61430   0.78910   0.24560   0.01267  Uiso   1.00
C80    C     0.12910   0.34270   0.60170   0.01267  Uiso   1.00
C81    C     0.77580   0.69050   0.05510   0.01267  Uiso   1.00
C82    C     0.33950   0.82510   0.68030   0.01267  Uiso   1.00
C83    C     0.74950   0.43430   0.76640   0.01267  Uiso   1.00
C84    C     0.82510   0.68030   0.33950   0.01267  Uiso   1.00
C85    C     0.78910   0.24560   0.61430   0.01267  Uiso   1.00
C86    C     0.72830   0.49150   0.81200   0.01267  Uiso   1.00
C87    C     0.28850   0.36110   0.94060   0.01267  Uiso   1.00
C88    C     0.66840   0.54310   0.49200   0.01267  Uiso   1.00
C89    C     0.56050   0.12550   0.78800   0.01267  Uiso   1.00
C90    C     0.39680   0.72940   0.48040   0.01267  Uiso   1.00
C91    C     0.81070   0.04220   0.10300   0.01267  Uiso   1.00
C92    C     0.25530   0.98430   0.79310   0.01267  Uiso   1.00
C93    C     0.49200   0.66840   0.54310   0.01267  Uiso   1.00
C94    C     0.18930   0.95780   0.89700   0.01267  Uiso   1.00
C95    C     0.69050   0.05510   0.77580   0.01267  Uiso   1.00
C96    C     0.77160   0.72800   0.35910   0.01267  Uiso   1.00
C97    C     0.47180   0.86540   0.67960   0.01267  Uiso   1.00
C98    C     0.36110   0.94060   0.28850   0.01267  Uiso   1.00
C99    C     0.27170   0.50850   0.18800   0.01267  Uiso   1.00
C100   C     0.00090   0.81960   0.94580   0.01267  Uiso   1.00
C101   C     0.91850   0.10570   0.74630   0.01267  Uiso   1.00
C102   C     0.22420   0.30950   0.94490   0.01267  Uiso   1.00
C103   C     0.93320   0.82860   0.21420   0.01267  Uiso   1.00
C104   C     0.25050   0.56570   0.23360   0.01267  Uiso   1.00
C105   C     0.78580   0.06680   0.17140   0.01267  Uiso   1.00
C106   C     0.08150   0.89430   0.25370   0.01267  Uiso   1.00
C107   C     0.66980   0.51970   0.41890   0.01267  Uiso   1.00
C108   C     0.74470   0.01570   0.20690   0.01267  Uiso   1.00
C109   C     0.93120   0.21010   0.03180   0.01267  Uiso   1.00
C110   C     0.55070   0.21410   0.52930   0.01267  Uiso   1.00
C111   C     0.42440   0.90700   0.28250   0.01267  Uiso   1.00
C112   C     0.12420   0.85170   0.61030   0.01267  Uiso   1.00
C113   C     0.72590   0.53270   0.54660   0.01267  Uiso   1.00
C114   C     0.45340   0.27410   0.46730   0.01267  Uiso   1.00
C115   C     0.66050   0.17490   0.31970   0.01267  Uiso   1.00
C116   C     0.31920   0.66740   0.78990   0.01267  Uiso   1.00
C117   C     0.81960   0.94580   0.00090   0.01267  Uiso   1.00
C118   C     0.32040   0.52820   0.13460   0.01267  Uiso   1.00
C119   C     0.35910   0.77160   0.72800   0.01267  Uiso   1.00
C120   C     0.81440   0.34480   0.17740   0.01267  Uiso   1.00
C121   C     0.60320   0.27060   0.51960   0.01267  Uiso   1.00
C122   C     0.18040   0.05420   0.99910   0.01267  Uiso   1.00
C123   C     0.86540   0.67960   0.47180   0.01267  Uiso   1.00
C124   C     0.72800   0.35910   0.77160   0.01267  Uiso   1.00
C125   C     0.89430   0.25370   0.08150   0.01267  Uiso   1.00
C126   C     0.39670   0.62110   0.07460   0.01267  Uiso   1.00
C127   C     0.45690   0.50800   0.33160   0.01267  Uiso   1.00
C128   C     0.21010   0.03180   0.93120   0.01267  Uiso   1.00
C129   C     0.33160   0.45690   0.50800   0.01267  Uiso   1.00
C130   C     0.48030   0.58110   0.33020   0.01267  Uiso   1.00
C131   C     0.18560   0.65520   0.82260   0.01267  Uiso   1.00
C132   C     0.56570   0.23360   0.25050   0.01267  Uiso   1.00
C133   C     0.47440   0.21520   0.50310   0.01267  Uiso   1.00
C134   C     0.73240   0.44840   0.16510   0.01267  Uiso   1.00
C135   C     0.33260   0.21010   0.68080   0.01267  Uiso   1.00
C136   C     0.61030   0.12420   0.85170   0.01267  Uiso   1.00
C137   C     0.71150   0.63890   0.05940   0.01267  Uiso   1.00
C138   C     0.06880   0.78990   0.96820   0.01267  Uiso   1.00
C139   C     0.05510   0.77580   0.69050   0.01267  Uiso   1.00
C140   C     0.90700   0.28250   0.42440   0.01267  Uiso   1.00
C141   C     0.10300   0.81070   0.04220   0.01267  Uiso   1.00
C142   C     0.22840   0.27200   0.64090   0.01267  Uiso   1.00
C143   C     0.06680   0.17140   0.78580   0.01267  Uiso   1.00
C144   C     0.02780   0.63570   0.65450   0.01267  Uiso   1.00
C145   C     0.79310   0.25530   0.98430   0.01267  Uiso   1.00
C146   C     0.78480   0.49690   0.52560   0.01267  Uiso   1.00
C147   C     0.27060   0.51960   0.60320   0.01267  Uiso   1.00
C148   C     0.33020   0.48030   0.58110   0.01267  Uiso   1.00
C149   C     0.83490   0.26760   0.55160   0.01267  Uiso   1.00
C150   C     0.68030   0.33950   0.82510   0.01267  Uiso   1.00
C151   C     0.41890   0.66980   0.51970   0.01267  Uiso   1.00
C152   C     0.87580   0.14830   0.38970   0.01267  Uiso   1.00
C153   C     0.57560   0.09300   0.71750   0.01267  Uiso   1.00
C154   C     0.82860   0.21420   0.93320   0.01267  Uiso   1.00
C155   C     0.13460   0.32040   0.52820   0.01267  Uiso   1.00
C156   C     0.78990   0.31920   0.66740   0.01267  Uiso   1.00
C157   C     0.54660   0.72590   0.53270   0.01267  Uiso   1.00
C158   C     0.64090   0.22840   0.27200   0.01267  Uiso   1.00
C159   C     0.70750   0.21660   0.58120   0.01267  Uiso   1.00
C160   C     0.51970   0.41890   0.66980   0.01267  Uiso   1.00
C161   C     0.74630   0.91850   0.10570   0.01267  Uiso   1.00
C162   C     0.87090   0.65730   0.39830   0.01267  Uiso   1.00
C163   C     0.05940   0.71150   0.63890   0.01267  Uiso   1.00
C164   C     0.17740   0.81440   0.34480   0.01267  Uiso   1.00
C165   C     0.97220   0.36430   0.34550   0.01267  Uiso   1.00
C166   C     0.78340   0.41880   0.29250   0.01267  Uiso   1.00
C167   C     0.10570   0.74630   0.91850   0.01267  Uiso   1.00
C168   C     0.48630   0.58060   0.84900   0.01267  Uiso   1.00
C169   C     0.21410   0.52930   0.55070   0.01267  Uiso   1.00
C170   C     0.91260   0.15480   0.32570   0.01267  Uiso   1.00
C171   C     0.04220   0.10300   0.81070   0.01267  Uiso   1.00
C172   C     0.28250   0.42440   0.90700   0.01267  Uiso   1.00
C173   C     0.94060   0.28850   0.36110   0.01267  Uiso   1.00
C174   C     0.18800   0.27170   0.50850   0.01267  Uiso   1.00
C175   C     0.43950   0.87450   0.21200   0.01267  Uiso   1.00
C176   C     0.27610   0.05840   0.82600   0.01267  Uiso   1.00
C177   C     0.84520   0.67430   0.08740   0.01267  Uiso   1.00
C178   C     0.75440   0.38570   0.21090   0.01267  Uiso   1.00
C179   C     0.72390   0.94160   0.17400   0.01267  Uiso   1.00
C180   C     0.21520   0.50310   0.47440   0.01267  Uiso   1.00
C181   C     0.23360   0.25050   0.56570   0.01267  Uiso   1.00
C182   C     0.99910   0.18040   0.05420   0.01267  Uiso   1.00
C183   C     0.78800   0.56050   0.12550   0.01267  Uiso   1.00
C184   C     0.36430   0.34550   0.97220   0.01267  Uiso   1.00
C185   C     0.52820   0.13460   0.32040   0.01267  Uiso   1.00
C186   C     0.16510   0.73240   0.44840   0.01267  Uiso   1.00
C187   C     0.01570   0.20690   0.74470   0.01267  Uiso   1.00
C188   C     0.51960   0.60320   0.27060   0.01267  Uiso   1.00
C189   C     0.49690   0.52560   0.78480   0.01267  Uiso   1.00
C190   C     0.48040   0.39680   0.72940   0.01267  Uiso   1.00
C191   C     0.60330   0.37890   0.92540   0.01267  Uiso   1.00
C192   C     0.17490   0.31970   0.66050   0.01267  Uiso   1.00
C193   C     0.08740   0.84520   0.67430   0.01267  Uiso   1.00
C194   C     0.58110   0.33020   0.48030   0.01267  Uiso   1.00
C195   C     0.63570   0.65450   0.02780   0.01267  Uiso   1.00
C196   C     0.32570   0.91260   0.15480   0.01267  Uiso   1.00
C197   C     0.29250   0.78340   0.41880   0.01267  Uiso   1.00
C198   C     0.21010   0.68080   0.33260   0.01267  Uiso   1.00
O1     O     0.21590   0.68310   0.89910   0.01267  Uiso   1.00
O2     O     0.67940   0.05300   0.40440   0.01267  Uiso   1.00
O3     O     0.98780   0.37640   0.28300   0.01267  Uiso   1.00
O4     O     0.35140   0.14810   0.48770   0.01267  Uiso   1.00
O5     O     0.42460   0.38830   0.96150   0.01267  Uiso   1.00
O6     O     0.89910   0.21590   0.68310   0.01267  Uiso   1.00
O7     O     0.12840   0.01290   0.02280   0.01267  Uiso   1.00
O8     O     0.90290   0.45240   0.56030   0.01267  Uiso   1.00
O9     O     0.09710   0.54760   0.43970   0.01267  Uiso   1.00
O10    O     0.02280   0.12840   0.01290   0.01267  Uiso   1.00
O11    O     0.30100   0.72750   0.74830   0.01267  Uiso   1.00
O12    O     0.87160   0.98710   0.97720   0.01267  Uiso   1.00
O13    O     0.79860   0.49880   0.16190   0.01267  Uiso   1.00
O14    O     0.71700   0.01220   0.62360   0.01267  Uiso   1.00
O15    O     0.04670   0.41040   0.54860   0.01267  Uiso   1.00
O16    O     0.41040   0.54860   0.04670   0.01267  Uiso   1.00
O17    O     0.68310   0.89910   0.21590   0.01267  Uiso   1.00
O18    O     0.16190   0.79860   0.49880   0.01267  Uiso   1.00
O19    O     0.45140   0.95330   0.58960   0.01267  Uiso   1.00
O20    O     0.83810   0.20140   0.50120   0.01267  Uiso   1.00
O21    O     0.45860   0.31960   0.72490   0.01267  Uiso   1.00
O22    O     0.27250   0.25170   0.69900   0.01267  Uiso   1.00
O23    O     0.45240   0.56030   0.90290   0.01267  Uiso   1.00
O24    O     0.25170   0.69900   0.27250   0.01267  Uiso   1.00
O25    O     0.01220   0.62360   0.71700   0.01267  Uiso   1.00
O26    O     0.78410   0.31690   0.10090   0.01267  Uiso   1.00
O27    O     0.38830   0.96150   0.42460   0.01267  Uiso   1.00
O28    O     0.14810   0.48770   0.35140   0.01267  Uiso   1.00
O29    O     0.54140   0.68040   0.27510   0.01267  Uiso   1.00
O30    O     0.56030   0.90290   0.45240   0.01267  Uiso   1.00
O31    O     0.20480   0.11960   0.03530   0.01267  Uiso   1.00
O32    O     0.11960   0.03530   0.20480   0.01267  Uiso   1.00
O33    O     0.79520   0.88040   0.96470   0.01267  Uiso   1.00
O34    O     0.31960   0.72490   0.45860   0.01267  Uiso   1.00
O35    O     0.05300   0.40440   0.67940   0.01267  Uiso   1.00
O36    O     0.94700   0.59560   0.32060   0.01267  Uiso   1.00
O37    O     0.40440   0.67940   0.05300   0.01267  Uiso   1.00
O38    O     0.59560   0.32060   0.94700   0.01267  Uiso   1.00
O39    O     0.37640   0.28300   0.98780   0.01267  Uiso   1.00
O40    O     0.97720   0.87160   0.98710   0.01267  Uiso   1.00
O41    O     0.68040   0.27510   0.54140   0.01267  Uiso   1.00
O42    O     0.28300   0.98780   0.37640   0.01267  Uiso   1.00
O43    O     0.10090   0.78410   0.31690   0.01267  Uiso   1.00
O44    O     0.49880   0.16190   0.79860   0.01267  Uiso   1.00
O45    O     0.58960   0.45140   0.95330   0.01267  Uiso   1.00
O46    O     0.62360   0.71700   0.01220   0.01267  Uiso   1.00
O47    O     0.32060   0.94700   0.59560   0.01267  Uiso   1.00
O48    O     0.72490   0.45860   0.31960   0.01267  Uiso   1.00
O49    O     0.85190   0.51230   0.64860   0.01267  Uiso   1.00
O50    O     0.96150   0.42460   0.38830   0.01267  Uiso   1.00
O51    O     0.27510   0.54140   0.68040   0.01267  Uiso   1.00
O52    O     0.43970   0.09710   0.54760   0.01267  Uiso   1.00
O53    O     0.69900   0.27250   0.25170   0.01267  Uiso   1.00
O54    O     0.74830   0.30100   0.72750   0.01267  Uiso   1.00
O55    O     0.50120   0.83810   0.20140   0.01267  Uiso   1.00
O56    O     0.96470   0.79520   0.88040   0.01267  Uiso   1.00
O57    O     0.64860   0.85190   0.51230   0.01267  Uiso   1.00
O58    O     0.03530   0.20480   0.11960   0.01267  Uiso   1.00
O59    O     0.48770   0.35140   0.14810   0.01267  Uiso   1.00
O60    O     0.98710   0.97720   0.87160   0.01267  Uiso   1.00
O61    O     0.54760   0.43970   0.09710   0.01267  Uiso   1.00
O62    O     0.31690   0.10090   0.78410   0.01267  Uiso   1.00
O63    O     0.61170   0.03850   0.57540   0.01267  Uiso   1.00
O64    O     0.01290   0.02280   0.12840   0.01267  Uiso   1.00
O65    O     0.03850   0.57540   0.61170   0.01267  Uiso   1.00
O66    O     0.20140   0.50120   0.83810   0.01267  Uiso   1.00
O67    O     0.54860   0.04670   0.41040   0.01267  Uiso   1.00
O68    O     0.57540   0.61170   0.03850   0.01267  Uiso   1.00
O69    O     0.88040   0.96470   0.79520   0.01267  Uiso   1.00
O70    O     0.95330   0.58960   0.45140   0.01267  Uiso   1.00
O71    O     0.51230   0.64860   0.85190   0.01267  Uiso   1.00
O72    O     0.72750   0.74830   0.30100   0.01267  Uiso   1.00
