data_image0
_cell_length_a       16.2717
_cell_length_b       12.6684
_cell_length_c       17.6021
_cell_angle_alpha    90
_cell_angle_beta     112.523
_cell_angle_gamma    90

_symmetry_space_group_name_H-M    "P 1"
_symmetry_int_tables_number       1

loop_
  _symmetry_equiv_pos_as_xyz
  'x, y, z'

loop_
  _atom_site_label
  _atom_site_occupancy
  _atom_site_fract_x
  _atom_site_fract_y
  _atom_site_fract_z
  _atom_site_thermal_displace_type
  _atom_site_B_iso_or_equiv
  _atom_site_type_symbol
  Cu1      1.0000 0.52528  0.17199  0.45094  Biso   1.000  Cu
  Cu2      1.0000 0.61366  0.10409  0.36708  Biso   1.000  Cu
  Cu3      1.0000 0.08008  0.11289  0.44143  Biso   1.000  Cu
  N1       1.0000 0.18722  0.09970  0.42550  Biso   1.000  N
  N2       1.0000 0.42786  0.07895  0.39037  Biso   1.000  N
  N3       1.0000 0.50737  0.01550  0.31539  Biso   1.000  N
  N4       1.0000 0.49599  0.80520  0.12662  Biso   1.000  N
  N5       1.0000 0.62327  0.31290  0.76267  Biso   1.000  N
  N6       1.0000 0.63614  0.19378  0.54330  Biso   1.000  N
  N7       1.0000 0.71772  0.14000  0.46713  Biso   1.000  N
  N8       1.0000 0.96771  0.11930  0.44932  Biso   1.000  N
  C1       1.0000 0.26650  0.11900  0.48540  Biso   1.000  C
  H1       1.0000 0.26770  0.13880  0.53670  Biso   1.000  H
  C2       1.0000 0.34598  0.11130  0.47570  Biso   1.000  C
  H2       1.0000 0.39900  0.12590  0.51960  Biso   1.000  H
  C3       1.0000 0.34728  0.08150  0.40006  Biso   1.000  C
  C4       1.0000 0.26441  0.06140  0.33711  Biso   1.000  C
  H3       1.0000 0.26100  0.04190  0.28510  Biso   1.000  H
  C5       1.0000 0.18860  0.07060  0.35270  Biso   1.000  C
  H4       1.0000 0.13450  0.05580  0.31010  Biso   1.000  H
  C6       1.0000 0.43456  0.01970  0.33138  Biso   1.000  C
  H5       1.0000 0.38590  0.97900  0.29970  Biso   1.000  H
  C7       1.0000 0.56800  0.81280  0.19635  Biso   1.000  C
  H6       1.0000 0.61610  0.76870  0.20330  Biso   1.000  H
  C8       1.0000 0.57451  0.88290  0.25867  Biso   1.000  C
  H7       1.0000 0.62650  0.88660  0.30560  Biso   1.000  H
  C9       1.0000 0.50264  0.94770  0.25057  Biso   1.000  C
  C10      1.0000 0.42806  0.94090  0.17683  Biso   1.000  C
  H8       1.0000 0.37900  0.98410  0.16780  Biso   1.000  H
  C11      1.0000 0.42790  0.86970  0.11785  Biso   1.000  C
  H9       1.0000 0.37780  0.86620  0.06920  Biso   1.000  H
  C12      1.0000 0.55639  0.31920  0.68995  Biso   1.000  C
  H10      1.0000 0.50420  0.35170  0.68740  Biso   1.000  H
  C13      1.0000 0.55963  0.28040  0.61776  Biso   1.000  C
  H11      1.0000 0.51050  0.28780  0.56870  Biso   1.000  H
  C14      1.0000 0.63553  0.23070  0.61806  Biso   1.000  C
  C15      1.0000 0.70551  0.22040  0.69493  Biso   1.000  C
  H12      1.0000 0.75780  0.18610  0.69980  Biso   1.000  H
  C16      1.0000 0.69561  0.26210  0.76330  Biso   1.000  C
  H13      1.0000 0.74280  0.25430  0.81370  Biso   1.000  H
  C17      1.0000 0.71255  0.17740  0.53589  Biso   1.000  C
  H14      1.0000 0.76500  0.19250  0.58040  Biso   1.000  H
  C18      1.0000 0.90020  0.05910  0.40610  Biso   1.000  C
  H15      1.0000 0.90850  0.01070  0.36990  Biso   1.000  H
  C19      1.0000 0.81767  0.06350  0.41124  Biso   1.000  C
  H16      1.0000 0.77240  0.01890  0.37890  Biso   1.000  H
  C20      1.0000 0.80200  0.13450  0.46462  Biso   1.000  C
  C21      1.0000 0.87270  0.19940  0.50910  Biso   1.000  C
  H17      1.0000 0.86580  0.25070  0.54400  Biso   1.000  H
  C22      1.0000 0.95370  0.18750  0.50140  Biso   1.000  C
  H18      1.0000 0.00100  0.22920  0.53420  Biso   1.000  H
  Cu4      1.0000 0.47472  0.67199  0.04906  Biso   1.000  Cu
  Cu5      1.0000 0.38634  0.60409  0.13292  Biso   1.000  Cu
  Cu6      1.0000 0.91992  0.61289  0.05857  Biso   1.000  Cu
  N9       1.0000 0.81278  0.59970  0.07450  Biso   1.000  N
  N10      1.0000 0.57214  0.57895  0.10963  Biso   1.000  N
  N11      1.0000 0.49263  0.51550  0.18461  Biso   1.000  N
  N12      1.0000 0.50401  0.30520  0.37338  Biso   1.000  N
  N13      1.0000 0.37673  0.81290  0.73733  Biso   1.000  N
  N14      1.0000 0.36386  0.69378  0.95670  Biso   1.000  N
  N15      1.0000 0.28228  0.64000  0.03287  Biso   1.000  N
  N16      1.0000 0.03229  0.61930  0.05068  Biso   1.000  N
  C23      1.0000 0.73350  0.61900  0.01460  Biso   1.000  C
  H19      1.0000 0.73230  0.63880  0.96330  Biso   1.000  H
  C24      1.0000 0.65402  0.61130  0.02430  Biso   1.000  C
  H20      1.0000 0.60100  0.62590  0.98040  Biso   1.000  H
  C25      1.0000 0.65272  0.58150  0.09994  Biso   1.000  C
  C26      1.0000 0.73559  0.56140  0.16289  Biso   1.000  C
  H21      1.0000 0.73900  0.54190  0.21490  Biso   1.000  H
  C27      1.0000 0.81140  0.57060  0.14730  Biso   1.000  C
  H22      1.0000 0.86550  0.55580  0.18990  Biso   1.000  H
  C28      1.0000 0.56544  0.51970  0.16862  Biso   1.000  C
  H23      1.0000 0.61410  0.47900  0.20030  Biso   1.000  H
  C29      1.0000 0.43200  0.31280  0.30365  Biso   1.000  C
  H24      1.0000 0.38390  0.26870  0.29670  Biso   1.000  H
  C30      1.0000 0.42549  0.38290  0.24133  Biso   1.000  C
  H25      1.0000 0.37350  0.38660  0.19440  Biso   1.000  H
  C31      1.0000 0.49736  0.44770  0.24943  Biso   1.000  C
  C32      1.0000 0.57194  0.44090  0.32317  Biso   1.000  C
  H26      1.0000 0.62100  0.48410  0.33220  Biso   1.000  H
  C33      1.0000 0.57210  0.36970  0.38215  Biso   1.000  C
  H27      1.0000 0.62220  0.36620  0.43080  Biso   1.000  H
  C34      1.0000 0.44361  0.81920  0.81005  Biso   1.000  C
  H28      1.0000 0.49580  0.85170  0.81260  Biso   1.000  H
  C35      1.0000 0.44037  0.78040  0.88224  Biso   1.000  C
  H29      1.0000 0.48950  0.78780  0.93130  Biso   1.000  H
  C36      1.0000 0.36447  0.73070  0.88194  Biso   1.000  C
  C37      1.0000 0.29449  0.72040  0.80507  Biso   1.000  C
  H30      1.0000 0.24220  0.68610  0.80020  Biso   1.000  H
  C38      1.0000 0.30439  0.76210  0.73670  Biso   1.000  C
  H31      1.0000 0.25720  0.75430  0.68630  Biso   1.000  H
  C39      1.0000 0.28745  0.67740  0.96411  Biso   1.000  C
  H32      1.0000 0.23500  0.69250  0.91960  Biso   1.000  H
  C40      1.0000 0.09980  0.55910  0.09390  Biso   1.000  C
  H33      1.0000 0.09150  0.51070  0.13010  Biso   1.000  H
  C41      1.0000 0.18233  0.56350  0.08876  Biso   1.000  C
  H34      1.0000 0.22760  0.51890  0.12110  Biso   1.000  H
  C42      1.0000 0.19800  0.63450  0.03538  Biso   1.000  C
  C43      1.0000 0.12730  0.69940  0.99090  Biso   1.000  C
  H35      1.0000 0.13420  0.75070  0.95600  Biso   1.000  H
  C44      1.0000 0.04630  0.68750  0.99860  Biso   1.000  C
  H36      1.0000 0.99900  0.72920  0.96580  Biso   1.000  H
  Cu7      1.0000 0.47472  0.82801  0.54906  Biso   1.000  Cu
  Cu8      1.0000 0.38634  0.89591  0.63292  Biso   1.000  Cu
  Cu9      1.0000 0.91992  0.88711  0.55857  Biso   1.000  Cu
  N17      1.0000 0.81278  0.90030  0.57450  Biso   1.000  N
  N18      1.0000 0.57214  0.92105  0.60963  Biso   1.000  N
  N19      1.0000 0.49263  0.98450  0.68461  Biso   1.000  N
  N20      1.0000 0.50401  0.19480  0.87338  Biso   1.000  N
  N21      1.0000 0.37673  0.68710  0.23733  Biso   1.000  N
  N22      1.0000 0.36386  0.80622  0.45670  Biso   1.000  N
  N23      1.0000 0.28228  0.86000  0.53287  Biso   1.000  N
  N24      1.0000 0.03229  0.88070  0.55068  Biso   1.000  N
  C45      1.0000 0.73350  0.88100  0.51460  Biso   1.000  C
  H37      1.0000 0.73230  0.86120  0.46330  Biso   1.000  H
  C46      1.0000 0.65402  0.88870  0.52430  Biso   1.000  C
  H38      1.0000 0.60100  0.87410  0.48040  Biso   1.000  H
  C47      1.0000 0.65272  0.91850  0.59994  Biso   1.000  C
  C48      1.0000 0.73559  0.93860  0.66289  Biso   1.000  C
  H39      1.0000 0.73900  0.95810  0.71490  Biso   1.000  H
  C49      1.0000 0.81140  0.92940  0.64730  Biso   1.000  C
  H40      1.0000 0.86550  0.94420  0.68990  Biso   1.000  H
  C50      1.0000 0.56544  0.98030  0.66862  Biso   1.000  C
  H41      1.0000 0.61410  0.02100  0.70030  Biso   1.000  H
  C51      1.0000 0.43200  0.18720  0.80365  Biso   1.000  C
  H42      1.0000 0.38390  0.23130  0.79670  Biso   1.000  H
  C52      1.0000 0.42549  0.11710  0.74133  Biso   1.000  C
  H43      1.0000 0.37350  0.11340  0.69440  Biso   1.000  H
  C53      1.0000 0.49736  0.05230  0.74943  Biso   1.000  C
  C54      1.0000 0.57194  0.05910  0.82317  Biso   1.000  C
  H44      1.0000 0.62100  0.01590  0.83220  Biso   1.000  H
  C55      1.0000 0.57210  0.13030  0.88215  Biso   1.000  C
  H45      1.0000 0.62220  0.13380  0.93080  Biso   1.000  H
  C56      1.0000 0.44361  0.68080  0.31005  Biso   1.000  C
  H46      1.0000 0.49580  0.64830  0.31260  Biso   1.000  H
  C57      1.0000 0.44037  0.71960  0.38224  Biso   1.000  C
  H47      1.0000 0.48950  0.71220  0.43130  Biso   1.000  H
  C58      1.0000 0.36447  0.76930  0.38194  Biso   1.000  C
  C59      1.0000 0.29449  0.77960  0.30507  Biso   1.000  C
  H48      1.0000 0.24220  0.81390  0.30020  Biso   1.000  H
  C60      1.0000 0.30439  0.73790  0.23670  Biso   1.000  C
  H49      1.0000 0.25720  0.74570  0.18630  Biso   1.000  H
  C61      1.0000 0.28745  0.82260  0.46411  Biso   1.000  C
  H50      1.0000 0.23500  0.80750  0.41960  Biso   1.000  H
  C62      1.0000 0.09980  0.94090  0.59390  Biso   1.000  C
  H51      1.0000 0.09150  0.98930  0.63010  Biso   1.000  H
  C63      1.0000 0.18233  0.93650  0.58876  Biso   1.000  C
  H52      1.0000 0.22760  0.98110  0.62110  Biso   1.000  H
  C64      1.0000 0.19800  0.86550  0.53538  Biso   1.000  C
  C65      1.0000 0.12730  0.80060  0.49090  Biso   1.000  C
  H53      1.0000 0.13420  0.74930  0.45600  Biso   1.000  H
  C66      1.0000 0.04630  0.81250  0.49860  Biso   1.000  C
  H54      1.0000 0.99900  0.77080  0.46580  Biso   1.000  H
  Cu10     1.0000 0.52528  0.32801  0.95094  Biso   1.000  Cu
  Cu11     1.0000 0.61366  0.39591  0.86708  Biso   1.000  Cu
  Cu12     1.0000 0.08008  0.38711  0.94143  Biso   1.000  Cu
  N25      1.0000 0.18722  0.40030  0.92550  Biso   1.000  N
  N26      1.0000 0.42786  0.42105  0.89037  Biso   1.000  N
  N27      1.0000 0.50737  0.48450  0.81539  Biso   1.000  N
  N28      1.0000 0.49599  0.69480  0.62662  Biso   1.000  N
  N29      1.0000 0.62327  0.18710  0.26267  Biso   1.000  N
  N30      1.0000 0.63614  0.30622  0.04330  Biso   1.000  N
  N31      1.0000 0.71772  0.36000  0.96713  Biso   1.000  N
  N32      1.0000 0.96771  0.38070  0.94932  Biso   1.000  N
  C67      1.0000 0.26650  0.38100  0.98540  Biso   1.000  C
  H55      1.0000 0.26770  0.36120  0.03670  Biso   1.000  H
  C68      1.0000 0.34598  0.38870  0.97570  Biso   1.000  C
  H56      1.0000 0.39900  0.37410  0.01960  Biso   1.000  H
  C69      1.0000 0.34728  0.41850  0.90006  Biso   1.000  C
  C70      1.0000 0.26441  0.43860  0.83711  Biso   1.000  C
  H57      1.0000 0.26100  0.45810  0.78510  Biso   1.000  H
  C71      1.0000 0.18860  0.42940  0.85270  Biso   1.000  C
  H58      1.0000 0.13450  0.44420  0.81010  Biso   1.000  H
  C72      1.0000 0.43456  0.48030  0.83138  Biso   1.000  C
  H59      1.0000 0.38590  0.52100  0.79970  Biso   1.000  H
  C73      1.0000 0.56800  0.68720  0.69635  Biso   1.000  C
  H60      1.0000 0.61610  0.73130  0.70330  Biso   1.000  H
  C74      1.0000 0.57451  0.61710  0.75867  Biso   1.000  C
  H61      1.0000 0.62650  0.61340  0.80560  Biso   1.000  H
  C75      1.0000 0.50264  0.55230  0.75057  Biso   1.000  C
  C76      1.0000 0.42806  0.55910  0.67683  Biso   1.000  C
  H62      1.0000 0.37900  0.51590  0.66780  Biso   1.000  H
  C77      1.0000 0.42790  0.63030  0.61785  Biso   1.000  C
  H63      1.0000 0.37780  0.63380  0.56920  Biso   1.000  H
  C78      1.0000 0.55639  0.18080  0.18995  Biso   1.000  C
  H64      1.0000 0.50420  0.14830  0.18740  Biso   1.000  H
  C79      1.0000 0.55963  0.21960  0.11776  Biso   1.000  C
  H65      1.0000 0.51050  0.21220  0.06870  Biso   1.000  H
  C80      1.0000 0.63553  0.26930  0.11806  Biso   1.000  C
  C81      1.0000 0.70551  0.27960  0.19493  Biso   1.000  C
  H66      1.0000 0.75780  0.31390  0.19980  Biso   1.000  H
  C82      1.0000 0.69561  0.23790  0.26330  Biso   1.000  C
  H67      1.0000 0.74280  0.24570  0.31370  Biso   1.000  H
  C83      1.0000 0.71255  0.32260  0.03589  Biso   1.000  C
  H68      1.0000 0.76500  0.30750  0.08040  Biso   1.000  H
  C84      1.0000 0.90020  0.44090  0.90610  Biso   1.000  C
  H69      1.0000 0.90850  0.48930  0.86990  Biso   1.000  H
  C85      1.0000 0.81767  0.43650  0.91124  Biso   1.000  C
  H70      1.0000 0.77240  0.48110  0.87890  Biso   1.000  H
  C86      1.0000 0.80200  0.36550  0.96462  Biso   1.000  C
  C87      1.0000 0.87270  0.30060  0.00910  Biso   1.000  C
  H71      1.0000 0.86580  0.24930  0.04400  Biso   1.000  H
  C88      1.0000 0.95370  0.31250  0.00140  Biso   1.000  C
  H72      1.0000 0.00100  0.27080  0.03420  Biso   1.000  H
