data_JORLEJ_clean
_audit_creation_date              2015-10-16
_audit_creation_method            'Materials Studio'
_symmetry_space_group_name_H-M    'P1'
_symmetry_Int_Tables_number       1
_symmetry_cell_setting            triclinic
loop_
_symmetry_equiv_pos_as_xyz
  x,y,z
_cell_length_a                    21.1146
_cell_length_b                    21.5804
_cell_length_c                    28.2514
_cell_angle_alpha                 80.9278
_cell_angle_beta                  71.1970
_cell_angle_gamma                 60.7115
loop_
_atom_site_label
_atom_site_type_symbol
_atom_site_fract_x
_atom_site_fract_y
_atom_site_fract_z
_atom_site_U_iso_or_equiv
_atom_site_adp_type
_atom_site_occupancy
Cd1    Cd    0.09622   0.50468   0.71599   0.01267  Uiso   1.00
Cd2    Cd    0.90378   0.49532   0.28401   0.01267  Uiso   1.00
Cd3    Cd    0.59731   0.48765   0.71997   0.01267  Uiso   1.00
Cd4    Cd    0.08496   0.51235   0.21997   0.01267  Uiso   1.00
Cd5    Cd    0.39910   0.50468   0.78401   0.01267  Uiso   1.00
Cd6    Cd    0.40269   0.51235   0.28003   0.01267  Uiso   1.00
Cd7    Cd    0.91504   0.48765   0.78003   0.01267  Uiso   1.00
Cd8    Cd    0.60090   0.49532   0.21599   0.01267  Uiso   1.00
H1     H     0.71330   0.03440   0.90120   0.01267  Uiso   1.00
H2     H     0.13410   0.34120   0.72390   0.01267  Uiso   1.00
H3     H     0.37780   0.76880   0.92530   0.01267  Uiso   1.00
H4     H     0.84860   0.49140   0.13090   0.01267  Uiso   1.00
H5     H     0.27570   0.33640   0.31690   0.01267  Uiso   1.00
H6     H     0.17890   0.04040   0.55100   0.01267  Uiso   1.00
H7     H     0.47000   0.65240   0.73120   0.01267  Uiso   1.00
H8     H     0.10920   0.04100   0.42060   0.01267  Uiso   1.00
H9     H     0.67630   0.36060   0.36560   0.01267  Uiso   1.00
H10    H     0.67170   0.95600   0.66510   0.01267  Uiso   1.00
H11    H     0.63730   0.55880   0.78820   0.01267  Uiso   1.00
H12    H     0.60860   0.88300   0.11030   0.01267  Uiso   1.00
H13    H     0.20780   0.23220   0.75130   0.01267  Uiso   1.00
H14    H     0.34000   0.50860   0.63090   0.01267  Uiso   1.00
H15    H     0.77710   0.97720   0.13540   0.01267  Uiso   1.00
H16    H     0.36430   0.95340   0.43690   0.01267  Uiso   1.00
H17    H     0.36170   0.43200   0.71430   0.01267  Uiso   1.00
H18    H     0.63570   0.04660   0.56310   0.01267  Uiso   1.00
H19    H     0.56410   0.05100   0.51570   0.01267  Uiso   1.00
H20    H     0.71890   0.67420   0.18280   0.01267  Uiso   1.00
H21    H     0.14660   0.23120   0.42530   0.01267  Uiso   1.00
H22    H     0.87760   0.65240   0.76880   0.01267  Uiso   1.00
H23    H     0.24270   0.15280   0.31290   0.01267  Uiso   1.00
H24    H     0.24570   0.97720   0.36460   0.01267  Uiso   1.00
H25    H     0.80390   0.55880   0.71180   0.01267  Uiso   1.00
H26    H     0.43880   0.97100   0.26860   0.01267  Uiso   1.00
H27    H     0.75120   0.68680   0.03270   0.01267  Uiso   1.00
H28    H     0.12240   0.34760   0.23120   0.01267  Uiso   1.00
H29    H     0.74770   0.96560   0.40120   0.01267  Uiso   1.00
H30    H     0.28670   0.96560   0.09880   0.01267  Uiso   1.00
H31    H     0.92940   0.77180   0.04270   0.01267  Uiso   1.00
H32    H     0.01450   0.22960   0.33200   0.01267  Uiso   1.00
H33    H     0.53000   0.34760   0.26880   0.01267  Uiso   1.00
H34    H     0.74730   0.12200   0.50470   0.01267  Uiso   1.00
H35    H     0.61960   0.76760   0.69490   0.01267  Uiso   1.00
H36    H     0.44050   0.57600   0.35810   0.01267  Uiso   1.00
H37    H     0.46900   0.12300   0.32220   0.01267  Uiso   1.00
H38    H     0.21930   0.95960   0.05100   0.01267  Uiso   1.00
H39    H     0.32600   0.35720   0.91480   0.01267  Uiso   1.00
H40    H     0.54510   0.54680   0.61870   0.01267  Uiso   1.00
H41    H     0.20630   0.43200   0.78570   0.01267  Uiso   1.00
H42    H     0.60690   0.67420   0.31720   0.01267  Uiso   1.00
H43    H     0.67400   0.64280   0.08520   0.01267  Uiso   1.00
H44    H     0.61210   0.66360   0.81690   0.01267  Uiso   1.00
H45    H     0.43590   0.94900   0.48430   0.01267  Uiso   1.00
H46    H     0.78220   0.87560   0.54310   0.01267  Uiso   1.00
H47    H     0.56830   0.57160   0.53500   0.01267  Uiso   1.00
H48    H     0.43170   0.42840   0.46500   0.01267  Uiso   1.00
H49    H     0.56180   0.43380   0.13720   0.01267  Uiso   1.00
H50    H     0.71160   0.33240   0.20820   0.01267  Uiso   1.00
H51    H     0.68320   0.64280   0.41480   0.01267  Uiso   1.00
H52    H     0.25230   0.03440   0.59880   0.01267  Uiso   1.00
H53    H     0.53100   0.87700   0.67780   0.01267  Uiso   1.00
H54    H     0.50840   0.88300   0.38970   0.01267  Uiso   1.00
H55    H     0.78070   0.04040   0.94900   0.01267  Uiso   1.00
H56    H     0.56200   0.68680   0.46730   0.01267  Uiso   1.00
H57    H     0.96930   0.78040   0.17840   0.01267  Uiso   1.00
H58    H     0.84980   0.04100   0.07940   0.01267  Uiso   1.00
H59    H     0.43820   0.56620   0.86280   0.01267  Uiso   1.00
H60    H     0.38490   0.05100   0.98430   0.01267  Uiso   1.00
H61    H     0.62770   0.04400   0.16510   0.01267  Uiso   1.00
H62    H     0.80060   0.76020   0.74190   0.01267  Uiso   1.00
H63    H     0.36270   0.44120   0.21180   0.01267  Uiso   1.00
H64    H     0.63830   0.56800   0.28570   0.01267  Uiso   1.00
H65    H     0.84210   0.87060   0.17290   0.01267  Uiso   1.00
H66    H     0.42590   0.07340   0.42390   0.01267  Uiso   1.00
H67    H     0.39710   0.66500   0.90710   0.01267  Uiso   1.00
H68    H     0.53540   0.77420   0.36570   0.01267  Uiso   1.00
H69    H     0.59200   0.87700   0.82220   0.01267  Uiso   1.00
H70    H     0.43920   0.76020   0.75810   0.01267  Uiso   1.00
H71    H     0.37660   0.94000   0.12970   0.01267  Uiso   1.00
H72    H     0.21780   0.12440   0.45690   0.01267  Uiso   1.00
H73    H     0.65500   0.33360   0.44990   0.01267  Uiso   1.00
H74    H     0.86590   0.65880   0.27610   0.01267  Uiso   1.00
H75    H     0.01650   0.42400   0.85810   0.01267  Uiso   1.00
H76    H     0.07060   0.22820   0.95730   0.01267  Uiso   1.00
H77    H     0.50070   0.07340   0.07610   0.01267  Uiso   1.00
H78    H     0.86930   0.87800   0.00470   0.01267  Uiso   1.00
H79    H     0.28840   0.66760   0.79180   0.01267  Uiso   1.00
H80    H     0.31680   0.35720   0.58520   0.01267  Uiso   1.00
H81    H     0.15140   0.50860   0.86910   0.01267  Uiso   1.00
H82    H     0.30960   0.22580   0.86570   0.01267  Uiso   1.00
H83    H     0.45490   0.45320   0.38130   0.01267  Uiso   1.00
H84    H     0.65780   0.12440   0.04310   0.01267  Uiso   1.00
H85    H     0.75730   0.84720   0.68710   0.01267  Uiso   1.00
H86    H     0.34220   0.87560   0.95690   0.01267  Uiso   1.00
H87    H     0.53930   0.13720   0.75280   0.01267  Uiso   1.00
H88    H     0.49960   0.92300   0.53430   0.01267  Uiso   1.00
H89    H     0.09190   0.45320   0.11870   0.01267  Uiso   1.00
H90    H     0.74970   0.21960   0.67840   0.01267  Uiso   1.00
H91    H     0.79370   0.56800   0.21430   0.01267  Uiso   1.00
H92    H     0.45190   0.93840   0.17320   0.01267  Uiso   1.00
H93    H     0.18660   0.85260   0.88740   0.01267  Uiso   1.00
H94    H     0.39030   0.06160   0.67320   0.01267  Uiso   1.00
H95    H     0.31660   0.06000   0.62970   0.01267  Uiso   1.00
H96    H     0.96080   0.85260   0.61260   0.01267  Uiso   1.00
H97    H     0.32830   0.04400   0.33490   0.01267  Uiso   1.00
H98    H     0.68230   0.95340   0.06310   0.01267  Uiso   1.00
H99    H     0.72430   0.66360   0.68310   0.01267  Uiso   1.00
H100   H     0.59980   0.32240   0.60080   0.01267  Uiso   1.00
H101   H     0.15790   0.12940   0.82710   0.01267  Uiso   1.00
H102   H     0.52470   0.34120   0.77610   0.01267  Uiso   1.00
H103   H     0.67650   0.86280   0.25280   0.01267  Uiso   1.00
H104   H     0.79220   0.76780   0.24870   0.01267  Uiso   1.00
H105   H     0.38040   0.23240   0.30510   0.01267  Uiso   1.00
H106   H     0.07230   0.46900   0.92650   0.01267  Uiso   1.00
H107   H     0.98860   0.66640   0.94990   0.01267  Uiso   1.00
H108   H     0.60450   0.15280   0.18710   0.01267  Uiso   1.00
H109   H     0.61510   0.94900   0.01570   0.01267  Uiso   1.00
H110   H     0.54130   0.53100   0.42650   0.01267  Uiso   1.00
H111   H     0.47530   0.65880   0.22390   0.01267  Uiso   1.00
H112   H     0.03360   0.67460   0.21510   0.01267  Uiso   1.00
H113   H     0.96640   0.32540   0.78490   0.01267  Uiso   1.00
H114   H     0.29180   0.67460   0.28490   0.01267  Uiso   1.00
H115   H     0.56120   0.02900   0.73140   0.01267  Uiso   1.00
H116   H     0.25270   0.87800   0.49530   0.01267  Uiso   1.00
H117   H     0.28730   0.87060   0.32710   0.01267  Uiso   1.00
H118   H     0.39310   0.32580   0.68280   0.01267  Uiso   1.00
H119   H     0.93790   0.66500   0.59290   0.01267  Uiso   1.00
H120   H     0.49930   0.92660   0.92390   0.01267  Uiso   1.00
H121   H     0.98550   0.77040   0.66800   0.01267  Uiso   1.00
H122   H     0.22290   0.02280   0.86460   0.01267  Uiso   1.00
H123   H     0.60970   0.93840   0.32680   0.01267  Uiso   1.00
H124   H     0.61280   0.76760   0.80510   0.01267  Uiso   1.00
H125   H     0.70120   0.22820   0.54270   0.01267  Uiso   1.00
H126   H     0.40020   0.67760   0.39920   0.01267  Uiso   1.00
H127   H     0.66000   0.49140   0.36910   0.01267  Uiso   1.00
H128   H     0.39140   0.11700   0.88970   0.01267  Uiso   1.00
H129   H     0.70820   0.32540   0.71510   0.01267  Uiso   1.00
H130   H     0.28110   0.32580   0.81720   0.01267  Uiso   1.00
H131   H     0.75430   0.02280   0.63540   0.01267  Uiso   1.00
H132   H     0.03070   0.21960   0.82160   0.01267  Uiso   1.00
H133   H     0.75590   0.22960   0.16800   0.01267  Uiso   1.00
H134   H     0.49160   0.11700   0.61030   0.01267  Uiso   1.00
H135   H     0.62340   0.06000   0.87030   0.01267  Uiso   1.00
H136   H     0.40800   0.12300   0.17780   0.01267  Uiso   1.00
H137   H     0.69040   0.77420   0.13430   0.01267  Uiso   1.00
H138   H     0.92770   0.53100   0.07350   0.01267  Uiso   1.00
H139   H     0.45870   0.46900   0.57350   0.01267  Uiso   1.00
H140   H     0.46460   0.22580   0.63430   0.01267  Uiso   1.00
H141   H     0.55950   0.42400   0.64190   0.01267  Uiso   1.00
H142   H     0.19940   0.23980   0.25810   0.01267  Uiso   1.00
H143   H     0.13990   0.42840   0.03500   0.01267  Uiso   1.00
H144   H     0.43800   0.31320   0.53270   0.01267  Uiso   1.00
H145   H     0.38720   0.23240   0.19490   0.01267  Uiso   1.00
H146   H     0.46070   0.86280   0.24720   0.01267  Uiso   1.00
H147   H     0.86010   0.57160   0.96500   0.01267  Uiso   1.00
H148   H     0.99560   0.56620   0.63720   0.01267  Uiso   1.00
H149   H     0.90810   0.54680   0.88130   0.01267  Uiso   1.00
H150   H     0.04400   0.66760   0.70820   0.01267  Uiso   1.00
H151   H     0.25030   0.78040   0.32160   0.01267  Uiso   1.00
H152   H     0.56000   0.23220   0.74870   0.01267  Uiso   1.00
H153   H     0.24410   0.77040   0.83200   0.01267  Uiso   1.00
H154   H     0.50040   0.07700   0.46570   0.01267  Uiso   1.00
H155   H     0.39550   0.84720   0.81290   0.01267  Uiso   1.00
H156   H     0.71270   0.12940   0.67290   0.01267  Uiso   1.00
H157   H     0.82110   0.95960   0.44900   0.01267  Uiso   1.00
H158   H     0.00440   0.43380   0.36280   0.01267  Uiso   1.00
H159   H     0.32370   0.63940   0.63440   0.01267  Uiso   1.00
H160   H     0.19610   0.44120   0.28820   0.01267  Uiso   1.00
H161   H     0.38790   0.33640   0.18310   0.01267  Uiso   1.00
H162   H     0.37230   0.95600   0.83490   0.01267  Uiso   1.00
H163   H     0.59020   0.97100   0.23140   0.01267  Uiso   1.00
H164   H     0.15020   0.95900   0.92060   0.01267  Uiso   1.00
H165   H     0.03690   0.63940   0.86560   0.01267  Uiso   1.00
H166   H     0.54810   0.06160   0.82680   0.01267  Uiso   1.00
H167   H     0.44000   0.76780   0.25130   0.01267  Uiso   1.00
H168   H     0.06210   0.33500   0.40710   0.01267  Uiso   1.00
H169   H     0.57410   0.92660   0.57610   0.01267  Uiso   1.00
H170   H     0.29880   0.77180   0.45730   0.01267  Uiso   1.00
H171   H     0.13070   0.12200   0.99530   0.01267  Uiso   1.00
H172   H     0.24880   0.31320   0.96730   0.01267  Uiso   1.00
H173   H     0.81340   0.14740   0.11260   0.01267  Uiso   1.00
H174   H     0.57740   0.92300   0.96570   0.01267  Uiso   1.00
H175   H     0.89080   0.95900   0.57940   0.01267  Uiso   1.00
H176   H     0.68340   0.94000   0.37030   0.01267  Uiso   1.00
H177   H     0.95600   0.33240   0.29180   0.01267  Uiso   1.00
H178   H     0.40980   0.02900   0.76860   0.01267  Uiso   1.00
H179   H     0.07780   0.32240   0.89920   0.01267  Uiso   1.00
H180   H     0.92220   0.67760   0.10080   0.01267  Uiso   1.00
H181   H     0.62220   0.23120   0.07470   0.01267  Uiso   1.00
H182   H     0.60290   0.33500   0.09290   0.01267  Uiso   1.00
H183   H     0.31770   0.04660   0.93690   0.01267  Uiso   1.00
H184   H     0.34500   0.66640   0.55010   0.01267  Uiso   1.00
H185   H     0.01140   0.33360   0.05010   0.01267  Uiso   1.00
H186   H     0.96310   0.36060   0.13440   0.01267  Uiso   1.00
H187   H     0.32350   0.13720   0.74720   0.01267  Uiso   1.00
H188   H     0.03920   0.14740   0.38740   0.01267  Uiso   1.00
H189   H     0.85340   0.76880   0.57470   0.01267  Uiso   1.00
H190   H     0.98350   0.57600   0.14190   0.01267  Uiso   1.00
H191   H     0.42260   0.07700   0.03430   0.01267  Uiso   1.00
H192   H     0.56080   0.23980   0.24190   0.01267  Uiso   1.00
C1     C     0.20014   0.28026   0.26491   0.01267  Uiso   1.00
C2     C     0.65894   0.02932   0.53056   0.01267  Uiso   1.00
C3     C     0.60343   0.39234   0.14232   0.01267  Uiso   1.00
C4     C     0.92016   0.62104   0.96672   0.01267  Uiso   1.00
C5     C     0.04441   0.26918   0.37619   0.01267  Uiso   1.00
C6     C     0.26268   0.00084   0.98904   0.01267  Uiso   1.00
C7     C     0.29745   0.46590   0.85213   0.01267  Uiso   1.00
C8     C     0.34552   0.37954   0.58362   0.01267  Uiso   1.00
C9     C     0.18204   0.12872   0.44242   0.01267  Uiso   1.00
C10    C     0.64819   0.96802   0.00175   0.01267  Uiso   1.00
C11    C     0.38970   0.06838   0.78854   0.01267  Uiso   1.00
C12    C     0.97180   0.73920   0.16980   0.01267  Uiso   1.00
C13    C     0.42137   0.91846   0.82809   0.01267  Uiso   1.00
C14    C     0.07471   0.43006   0.10497   0.01267  Uiso   1.00
C15    C     0.01510   0.56454   0.81162   0.01267  Uiso   1.00
C16    C     0.29412   0.98136   0.06587   0.01267  Uiso   1.00
C17    C     0.51521   0.81382   0.34610   0.01267  Uiso   1.00
C18    C     0.91407   0.79886   0.59887   0.01267  Uiso   1.00
C19    C     0.25548   0.26472   0.78700   0.01267  Uiso   1.00
C20    C     0.06319   0.25762   0.86464   0.01267  Uiso   1.00
C21    C     0.72506   0.62046   0.08362   0.01267  Uiso   1.00
C22    C     0.34106   0.97068   0.46944   0.01267  Uiso   1.00
C23    C     0.42054   0.32720   0.70228   0.01267  Uiso   1.00
C24    C     0.75706   0.06048   0.56609   0.01267  Uiso   1.00
C25    C     0.20876   0.27200   0.75904   0.01267  Uiso   1.00
C26    C     0.76901   0.97778   0.46281   0.01267  Uiso   1.00
C27    C     0.71698   0.27104   0.15994   0.01267  Uiso   1.00
C28    C     0.15362   0.34568   0.24889   0.01267  Uiso   1.00
C29    C     0.57712   0.87116   0.67884   0.01267  Uiso   1.00
C30    C     0.70496   0.19028   0.61077   0.01267  Uiso   1.00
C31    C     0.49930   0.65432   0.74889   0.01267  Uiso   1.00
C32    C     0.59854   0.03252   0.88154   0.01267  Uiso   1.00
C33    C     0.61434   0.35840   0.43642   0.01267  Uiso   1.00
C34    C     0.37751   0.67898   0.37553   0.01267  Uiso   1.00
C35    C     0.28649   0.81322   0.43830   0.01267  Uiso   1.00
C36    C     0.74037   0.12286   0.53886   0.01267  Uiso   1.00
C37    C     0.23665   0.46590   0.64787   0.01267  Uiso   1.00
C38    C     0.55298   0.03364   0.85536   0.01267  Uiso   1.00
C39    C     0.97910   0.58796   0.86453   0.01267  Uiso   1.00
C40    C     0.98188   0.61764   0.14869   0.01267  Uiso   1.00
C41    C     0.52717   0.06106   0.66945   0.01267  Uiso   1.00
C42    C     0.01812   0.38236   0.85131   0.01267  Uiso   1.00
C43    C     0.49973   0.12114   0.63982   0.01267  Uiso   1.00
C44    C     0.28016   0.87188   0.36124   0.01267  Uiso   1.00
C45    C     0.15358   0.38716   0.95131   0.01267  Uiso   1.00
C46    C     0.59952   0.38236   0.64869   0.01267  Uiso   1.00
C47    C     0.57964   0.43546   0.31162   0.01267  Uiso   1.00
C48    C     0.57946   0.67280   0.29772   0.01267  Uiso   1.00
C49    C     0.86055   0.80750   0.57667   0.01267  Uiso   1.00
C50    C     0.45808   0.93162   0.28854   0.01267  Uiso   1.00
C51    C     0.59179   0.92902   0.66903   0.01267  Uiso   1.00
C52    C     0.02820   0.26080   0.83020   0.01267  Uiso   1.00
C53    C     0.43568   0.19404   0.19000   0.01267  Uiso   1.00
C54    C     0.97274   0.64160   0.93642   0.01267  Uiso   1.00
C55    C     0.83576   0.66214   0.25703   0.01267  Uiso   1.00
C56    C     0.56432   0.80596   0.81000   0.01267  Uiso   1.00
C57    C     0.49790   0.33786   0.75703   0.01267  Uiso   1.00
C58    C     0.10476   0.19028   0.88923   0.01267  Uiso   1.00
C59    C     0.52190   0.72566   0.79083   0.01267  Uiso   1.00
C60    C     0.67919   0.25762   0.63536   0.01267  Uiso   1.00
C61    C     0.49360   0.20420   0.19409   0.01267  Uiso   1.00
C62    C     0.80906   0.93628   0.11611   0.01267  Uiso   1.00
C63    C     0.05649   0.32102   0.87553   0.01267  Uiso   1.00
C64    C     0.57863   0.08154   0.17191   0.01267  Uiso   1.00
C65    C     0.25963   0.87714   0.46114   0.01267  Uiso   1.00
C66    C     0.82747   0.92906   0.55966   0.01267  Uiso   1.00
C67    C     0.50027   0.87886   0.36018   0.01267  Uiso   1.00
C68    C     0.08593   0.20114   0.40113   0.01267  Uiso   1.00
C69    C     0.39657   0.60766   0.85768   0.01267  Uiso   1.00
C70    C     0.75244   0.72566   0.70917   0.01267  Uiso   1.00
C71    C     0.52839   0.13354   0.72431   0.01267  Uiso   1.00
C72    C     0.39198   0.00804   0.07624   0.01267  Uiso   1.00
C73    C     0.37293   0.66754   0.88406   0.01267  Uiso   1.00
C74    C     0.37913   0.12114   0.86018   0.01267  Uiso   1.00
C75    C     0.66193   0.86646   0.22431   0.01267  Uiso   1.00
C76    C     0.47681   0.95218   0.56213   0.01267  Uiso   1.00
C77    C     0.33195   0.80750   0.92333   0.01267  Uiso   1.00
C78    C     0.07984   0.37896   0.03328   0.01267  Uiso   1.00
C79    C     0.61621   0.03198   0.50175   0.01267  Uiso   1.00
C80    C     0.58662   0.96636   0.35536   0.01267  Uiso   1.00
C81    C     0.63106   0.96748   0.38154   0.01267  Uiso   1.00
C82    C     0.68924   0.12872   0.05758   0.01267  Uiso   1.00
C83    C     0.34525   0.00770   0.04676   0.01267  Uiso   1.00
C84    C     0.25226   0.32720   0.79772   0.01267  Uiso   1.00
C85    C     0.47810   0.27434   0.20917   0.01267  Uiso   1.00
C86    C     0.27494   0.37954   0.91638   0.01267  Uiso   1.00
C87    C     0.35181   0.03198   0.99825   0.01267  Uiso   1.00
C88    C     0.50961   0.00538   0.37048   0.01267  Uiso   1.00
C89    C     0.41338   0.03364   0.64464   0.01267  Uiso   1.00
C90    C     0.17253   0.07094   0.44034   0.01267  Uiso   1.00
C91    C     0.87604   0.55438   0.07675   0.01267  Uiso   1.00
C92    C     0.68580   0.32480   0.69178   0.01267  Uiso   1.00
C93    C     0.09971   0.18678   0.93830   0.01267  Uiso   1.00
C94    C     0.47542   0.04636   0.08757   0.01267  Uiso   1.00
C95    C     0.41767   0.35336   0.55185   0.01267  Uiso   1.00
C96    C     0.77103   0.64664   0.05185   0.01267  Uiso   1.00
C97    C     0.25466   0.93628   0.38389   0.01267  Uiso   1.00
C98    C     0.44828   0.12884   0.17884   0.01267  Uiso   1.00
C99    C     0.11805   0.07910   0.42076   0.01267  Uiso   1.00
C100   C     0.38566   0.64160   0.56358   0.01267  Uiso   1.00
C101   C     0.24497   0.33686   0.29945   0.01267  Uiso   1.00
C102   C     0.81796   0.87128   0.55758   0.01267  Uiso   1.00
C103   C     0.31420   0.67520   0.30822   0.01267  Uiso   1.00
C104   C     0.98940   0.32480   0.80822   0.01267  Uiso   1.00
C105   C     0.40355   0.39990   0.21800   0.01267  Uiso   1.00
C106   C     0.89600   0.58508   0.94521   0.01267  Uiso   1.00
C107   C     0.84796   0.87188   0.13876   0.01267  Uiso   1.00
C108   C     0.62249   0.32102   0.62447   0.01267  Uiso   1.00
C109   C     0.64144   0.52978   0.38971   0.01267  Uiso   1.00
C110   C     0.57101   0.95218   0.93787   0.01267  Uiso   1.00
C111   C     0.30220   0.20420   0.30591   0.01267  Uiso   1.00
C112   C     0.68826   0.97068   0.03056   0.01267  Uiso   1.00
C113   C     0.40002   0.99196   0.57624   0.01267  Uiso   1.00
C114   C     0.69315   0.80572   0.19599   0.01267  Uiso   1.00
C115   C     0.49039   0.99462   0.62952   0.01267  Uiso   1.00
C116   C     0.95559   0.73082   0.62381   0.01267  Uiso   1.00
C117   C     0.60802   0.99196   0.92376   0.01267  Uiso   1.00
C118   C     0.45880   0.62104   0.53328   0.01267  Uiso   1.00
C119   C     0.18246   0.06048   0.93391   0.01267  Uiso   1.00
C120   C     0.47283   0.93894   0.33055   0.01267  Uiso   1.00
C121   C     0.42288   0.12884   0.32116   0.01267  Uiso   1.00
C122   C     0.50640   0.79580   0.80591   0.01267  Uiso   1.00
C123   C     0.19715   0.92090   0.92076   0.01267  Uiso   1.00
C124   C     0.69780   0.79580   0.69409   0.01267  Uiso   1.00
C125   C     0.56706   0.41204   0.36453   0.01267  Uiso   1.00
C126   C     0.74774   0.67280   0.20228   0.01267  Uiso   1.00
C127   C     0.28707   0.79886   0.90113   0.01267  Uiso   1.00
C128   C     0.52458   0.95364   0.91243   0.01267  Uiso   1.00
C129   C     0.48076   0.72800   0.25904   0.01267  Uiso   1.00
C130   C     0.45926   0.38716   0.54869   0.01267  Uiso   1.00
C131   C     0.19655   0.39990   0.28200   0.01267  Uiso   1.00
C132   C     0.92529   0.56994   0.89503   0.01267  Uiso   1.00
C133   C     0.73648   0.00084   0.51096   0.01267  Uiso   1.00
C134   C     0.72452   0.98136   0.43413   0.01267  Uiso   1.00
C135   C     0.55172   0.87116   0.82116   0.01267  Uiso   1.00
C136   C     0.71188   0.85284   0.68477   0.01267  Uiso   1.00
C137   C     0.52081   0.07098   0.16903   0.01267  Uiso   1.00
C138   C     0.24347   0.92906   0.94034   0.01267  Uiso   1.00
C139   C     0.31076   0.87128   0.94242   0.01267  Uiso   1.00
C140   C     0.51960   0.28026   0.23509   0.01267  Uiso   1.00
C141   C     0.44702   0.96636   0.14464   0.01267  Uiso   1.00
C142   C     0.51924   0.27200   0.74096   0.01267  Uiso   1.00
C143   C     0.68561   0.56136   0.38653   0.01267  Uiso   1.00
C144   C     0.50477   0.56994   0.60497   0.01267  Uiso   1.00
C145   C     0.76335   0.53410   0.35213   0.01267  Uiso   1.00
C146   C     0.26352   0.99916   0.48904   0.01267  Uiso   1.00
C147   C     0.51499   0.99462   0.87048   0.01267  Uiso   1.00
C148   C     0.62699   0.37474   0.38575   0.01267  Uiso   1.00
C149   C     0.82878   0.52978   0.11029   0.01267  Uiso   1.00
C150   C     0.58233   0.64664   0.44815   0.01267  Uiso   1.00
C151   C     0.19094   0.06372   0.88389   0.01267  Uiso   1.00
C152   C     0.66017   0.91846   0.67191   0.01267  Uiso   1.00
C153   C     0.78097   0.14326   0.09891   0.01267  Uiso   1.00
C154   C     0.75503   0.66314   0.70055   0.01267  Uiso   1.00
C155   C     0.79395   0.60884   0.22072   0.01267  Uiso   1.00
C156   C     0.99827   0.37474   0.11425   0.01267  Uiso   1.00
C157   C     0.47919   0.92902   0.83097   0.01267  Uiso   1.00
C158   C     0.65475   0.99230   0.95324   0.01267  Uiso   1.00
C159   C     0.64705   0.00770   0.45324   0.01267  Uiso   1.00
C160   C     0.22897   0.35336   0.94815   0.01267  Uiso   1.00
C161   C     0.59998   0.00804   0.42376   0.01267  Uiso   1.00
C162   C     0.52020   0.73528   0.28700   0.01267  Uiso   1.00
C163   C     0.99577   0.60766   0.64232   0.01267  Uiso   1.00
C164   C     0.88195   0.92090   0.57924   0.01267  Uiso   1.00
C165   C     0.48040   0.71974   0.76491   0.01267  Uiso   1.00
C166   C     0.36894   0.03252   0.61846   0.01267  Uiso   1.00
C167   C     0.50210   0.66214   0.24297   0.01267  Uiso   1.00
C168   C     0.71293   0.20114   0.09887   0.01267  Uiso   1.00
C169   C     0.74679   0.02222   0.96281   0.01267  Uiso   1.00
C170   C     0.54120   0.37896   0.46672   0.01267  Uiso   1.00
C171   C     0.52178   0.95364   0.58757   0.01267  Uiso   1.00
C172   C     0.61030   0.93162   0.21146   0.01267  Uiso   1.00
C173   C     0.43528   0.85284   0.81523   0.01267  Uiso   1.00
C174   C     0.74534   0.06372   0.61611   0.01267  Uiso   1.00
C175   C     0.80345   0.60010   0.71800   0.01267  Uiso   1.00
C176   C     0.35295   0.99230   0.54676   0.01267  Uiso   1.00
C177   C     0.37028   0.19404   0.31000   0.01267  Uiso   1.00
C178   C     0.59721   0.60884   0.27928   0.01267  Uiso   1.00
C179   C     0.20605   0.39116   0.77928   0.01267  Uiso   1.00
C180   C     0.68641   0.26918   0.12381   0.01267  Uiso   1.00
C181   C     0.71351   0.18678   0.56170   0.01267  Uiso   1.00
C182   C     0.93681   0.74238   0.13536   0.01267  Uiso   1.00
C183   C     0.69021   0.33338   0.18383   0.01267  Uiso   1.00
C184   C     0.28302   0.72896   0.84006   0.01267  Uiso   1.00
C185   C     0.30685   0.19428   0.80401   0.01267  Uiso   1.00
C186   C     0.49887   0.19428   0.69599   0.01267  Uiso   1.00
C187   C     0.42036   0.56454   0.68838   0.01267  Uiso   1.00
C188   C     0.25321   0.97778   0.03719   0.01267  Uiso   1.00
C189   C     0.98802   0.72896   0.65994   0.01267  Uiso   1.00
C190   C     0.71100   0.26080   0.66980   0.01267  Uiso   1.00
C191   C     0.62707   0.33246   0.11594   0.01267  Uiso   1.00
C192   C     0.95953   0.66754   0.61594   0.01267  Uiso   1.00
C193   C     0.50113   0.80572   0.30401   0.01267  Uiso   1.00
C194   C     0.67097   0.81382   0.15390   0.01267  Uiso   1.00
C195   C     0.31439   0.43864   0.61347   0.01267  Uiso   1.00
C196   C     0.40821   0.07098   0.33097   0.01267  Uiso   1.00
C197   C     0.92423   0.85674   0.59891   0.01267  Uiso   1.00
C198   C     0.48479   0.18618   0.65390   0.01267  Uiso   1.00
C199   C     0.59645   0.60010   0.78200   0.01267  Uiso   1.00
C200   C     0.00173   0.62526   0.88575   0.01267  Uiso   1.00
C201   C     0.54192   0.06838   0.71146   0.01267  Uiso   1.00
C202   C     0.43042   0.44562   0.57675   0.01267  Uiso   1.00
C203   C     0.70255   0.53410   0.14787   0.01267  Uiso   1.00
C204   C     0.74452   0.73528   0.21300   0.01267  Uiso   1.00
C205   C     0.54074   0.61284   0.45131   0.01267  Uiso   1.00
C206   C     0.02090   0.41204   0.13547   0.01267  Uiso   1.00
C207   C     0.29504   0.80972   0.38923   0.01267  Uiso   1.00
C208   C     0.30979   0.66662   0.81617   0.01267  Uiso   1.00
C209   C     0.50070   0.34568   0.25111   0.01267  Uiso   1.00
C210   C     0.51892   0.58508   0.55479   0.01267  Uiso   1.00
C211   C     0.31359   0.73082   0.87619   0.01267  Uiso   1.00
C212   C     0.21903   0.85674   0.90109   0.01267  Uiso   1.00
C213   C     0.32081   0.74238   0.36464   0.01267  Uiso   1.00
C214   C     0.66805   0.19250   0.07667   0.01267  Uiso   1.00
C215   C     0.75653   0.07094   0.05966   0.01267  Uiso   1.00
C216   C     0.04047   0.33246   0.38406   0.01267  Uiso   1.00
C217   C     0.40048   0.61764   0.35131   0.01267  Uiso   1.00
C218   C     0.58823   0.93894   0.16945   0.01267  Uiso   1.00
C219   C     0.71984   0.12812   0.63876   0.01267  Uiso   1.00
C220   C     0.42899   0.04782   0.06213   0.01267  Uiso   1.00
C221   C     0.41177   0.06106   0.83055   0.01267  Uiso   1.00
C222   C     0.65448   0.62046   0.41638   0.01267  Uiso   1.00
C223   C     0.48108   0.41492   0.44521   0.01267  Uiso   1.00
C224   C     0.49523   0.43006   0.39503   0.01267  Uiso   1.00
C225   C     0.15204   0.12812   0.86124   0.01267  Uiso   1.00
C226   C     0.07577   0.14326   0.40109   0.01267  Uiso   1.00
C227   C     0.84642   0.61284   0.04869   0.01267  Uiso   1.00
C228   C     0.01060   0.67520   0.19178   0.01267  Uiso   1.00
C229   C     0.31174   0.02932   0.96944   0.01267  Uiso   1.00
C230   C     0.40146   0.96748   0.11846   0.01267  Uiso   1.00
C231   C     0.73732   0.99916   0.01096   0.01267  Uiso   1.00
C232   C     0.27548   0.01864   0.56587   0.01267  Uiso   1.00
C233   C     0.12396   0.44562   0.92325   0.01267  Uiso   1.00
C234   C     0.90029   0.81322   0.06170   0.01267  Uiso   1.00
C235   C     0.17122   0.47022   0.88971   0.01267  Uiso   1.00
C236   C     0.79124   0.72800   0.24096   0.01267  Uiso   1.00
C237   C     0.13677   0.12286   0.96114   0.01267  Uiso   1.00
C238   C     0.56958   0.55438   0.42325   0.01267  Uiso   1.00
C239   C     0.02359   0.66662   0.68383   0.01267  Uiso   1.00
C240   C     0.16424   0.33786   0.74297   0.01267  Uiso   1.00
C241   C     0.01198   0.27104   0.34006   0.01267  Uiso   1.00
C242   C     0.24756   0.27434   0.29083   0.01267  Uiso   1.00
C243   C     0.02726   0.35840   0.06358   0.01267  Uiso   1.00
C244   C     0.47822   0.04636   0.41243   0.01267  Uiso   1.00
C245   C     0.79986   0.71974   0.73509   0.01267  Uiso   1.00
C246   C     0.40279   0.39116   0.72072   0.01267  Uiso   1.00
C247   C     0.23099   0.02222   0.53719   0.01267  Uiso   1.00
C248   C     0.62087   0.87886   0.13982   0.01267  Uiso   1.00
C249   C     0.47161   0.86646   0.27569   0.01267  Uiso   1.00
C250   C     0.94351   0.67898   0.12447   0.01267  Uiso   1.00
C251   C     0.00423   0.39234   0.35768   0.01267  Uiso   1.00
C252   C     0.33983   0.08154   0.32809   0.01267  Uiso   1.00
C253   C     0.58183   0.66314   0.79945   0.01267  Uiso   1.00
C254   C     0.41817   0.33686   0.20055   0.01267  Uiso   1.00
C255   C     0.24294   0.93952   0.43391   0.01267  Uiso   1.00
C256   C     0.86323   0.87714   0.03886   0.01267  Uiso   1.00
C257   C     0.32903   0.18618   0.84610   0.01267  Uiso   1.00
C258   C     0.81754   0.93952   0.06609   0.01267  Uiso   1.00
C259   C     0.70588   0.01864   0.93413   0.01267  Uiso   1.00
C260   C     0.56472   0.14716   0.18477   0.01267  Uiso   1.00
C261   C     0.89524   0.80972   0.11077   0.01267  Uiso   1.00
C262   C     0.37301   0.62526   0.61425   0.01267  Uiso   1.00
C263   C     0.24697   0.43864   0.88653   0.01267  Uiso   1.00
C264   C     0.98490   0.43546   0.18838   0.01267  Uiso   1.00
C265   C     0.75303   0.56136   0.11347   0.01267  Uiso   1.00
C266   C     0.38379   0.96802   0.49825   0.01267  Uiso   1.00
C267   C     0.48501   0.00538   0.12952   0.01267  Uiso   1.00
C268   C     0.84638   0.65432   0.75111   0.01267  Uiso   1.00
C269   C     0.52319   0.04782   0.43787   0.01267  Uiso   1.00
C270   C     0.97641   0.33338   0.31617   0.01267  Uiso   1.00
C271   C     0.33807   0.13354   0.77569   0.01267  Uiso   1.00
C272   C     0.35856   0.47022   0.61029   0.01267  Uiso   1.00
C273   C     0.62972   0.80596   0.69000   0.01267  Uiso   1.00
C274   C     0.28812   0.14716   0.31523   0.01267  Uiso   1.00
C275   C     0.13945   0.19250   0.42333   0.01267  Uiso   1.00
C276   C     0.10400   0.41492   0.05479   0.01267  Uiso   1.00
C277   C     0.28900   0.73920   0.33020   0.01267  Uiso   1.00
C278   C     0.43294   0.58796   0.63547   0.01267  Uiso   1.00
C279   C     0.80285   0.07910   0.07924   0.01267  Uiso   1.00
C280   C     0.47980   0.26472   0.71300   0.01267  Uiso   1.00
N1     N     0.46301   0.00490   0.34366   0.01267  Uiso   1.00
N2     N     0.78079   0.99712   0.54192   0.01267  Uiso   1.00
N3     N     0.36861   0.61496   0.31903   0.01267  Uiso   1.00
N4     N     0.63139   0.38504   0.68097   0.01267  Uiso   1.00
N5     N     0.21921   0.00288   0.45808   0.01267  Uiso   1.00
N6     N     0.01643   0.61496   0.18097   0.01267  Uiso   1.00
N7     N     0.15030   0.40588   0.25685   0.01267  Uiso   1.00
N8     N     0.55896   0.60262   0.25309   0.01267  Uiso   1.00
N9     N     0.36427   0.60518   0.82596   0.01267  Uiso   1.00
N10    N     0.83842   0.60262   0.24691   0.01267  Uiso   1.00
N11    N     0.03055   0.60518   0.67404   0.01267  Uiso   1.00
N12    N     0.84970   0.59412   0.74315   0.01267  Uiso   1.00
N13    N     0.53209   0.00490   0.15634   0.01267  Uiso   1.00
N14    N     0.77791   0.00288   0.04192   0.01267  Uiso   1.00
N15    N     0.22209   0.99712   0.95808   0.01267  Uiso   1.00
N16    N     0.44104   0.39738   0.74691   0.01267  Uiso   1.00
N17    N     0.63573   0.39482   0.17404   0.01267  Uiso   1.00
N18    N     0.98357   0.38504   0.81903   0.01267  Uiso   1.00
N19    N     0.16158   0.39738   0.75309   0.01267  Uiso   1.00
N20    N     0.44382   0.40588   0.24315   0.01267  Uiso   1.00
N21    N     0.53699   0.99510   0.65634   0.01267  Uiso   1.00
N22    N     0.55618   0.59412   0.75685   0.01267  Uiso   1.00
N23    N     0.46791   0.99510   0.84366   0.01267  Uiso   1.00
N24    N     0.96945   0.39482   0.32596   0.01267  Uiso   1.00
O1     O     0.72386   0.49136   0.18154   0.01267  Uiso   1.00
O2     O     0.21522   0.50864   0.68154   0.01267  Uiso   1.00
O3     O     0.36164   0.44444   0.85758   0.01267  Uiso   1.00
O4     O     0.01002   0.46582   0.20688   0.01267  Uiso   1.00
O5     O     0.27614   0.50864   0.81846   0.01267  Uiso   1.00
O6     O     0.98998   0.53418   0.79312   0.01267  Uiso   1.00
O7     O     0.92908   0.42706   0.21438   0.01267  Uiso   1.00
O8     O     0.46643   0.63874   0.48363   0.01267  Uiso   1.00
O9     O     0.89483   0.63874   0.01637   0.01267  Uiso   1.00
O10    O     0.53357   0.36126   0.51637   0.01267  Uiso   1.00
O11    O     0.63836   0.55556   0.14242   0.01267  Uiso   1.00
O12    O     0.10517   0.36126   0.98363   0.01267  Uiso   1.00
O13    O     0.80608   0.55556   0.35758   0.01267  Uiso   1.00
O14    O     0.19392   0.44444   0.64242   0.01267  Uiso   1.00
O15    O     0.52416   0.46582   0.29312   0.01267  Uiso   1.00
O16    O     0.35614   0.57294   0.71438   0.01267  Uiso   1.00
O17    O     0.47584   0.53418   0.70688   0.01267  Uiso   1.00
O18    O     0.78478   0.49136   0.31846   0.01267  Uiso   1.00
O19    O     0.64386   0.42706   0.28562   0.01267  Uiso   1.00
O20    O     0.07092   0.57294   0.78562   0.01267  Uiso   1.00
