data_image0
_cell_length_a       36.873
_cell_length_b       9.3152
_cell_length_c       10.9288
_cell_angle_alpha    90
_cell_angle_beta     93.643
_cell_angle_gamma    90

_symmetry_space_group_name_H-M    "P 1"
_symmetry_int_tables_number       1

loop_
  _symmetry_equiv_pos_as_xyz
  'x, y, z'

loop_
  _atom_site_label
  _atom_site_occupancy
  _atom_site_fract_x
  _atom_site_fract_y
  _atom_site_fract_z
  _atom_site_thermal_displace_type
  _atom_site_B_iso_or_equiv
  _atom_site_type_symbol
  Cd1      1.0000 0.20749  0.80608  0.39579  Biso   1.000  Cd
  N1       1.0000 0.21940  0.98180  0.25000  Biso   1.000  N
  N2       1.0000 0.22620  0.08210  0.07040  Biso   1.000  N
  N3       1.0000 0.25040  0.15280  0.15710  Biso   1.000  N
  N4       1.0000 0.18410  0.89470  0.07580  Biso   1.000  N
  H1       1.0000 0.17960  0.89890  0.99770  Biso   1.000  H
  H2       1.0000 0.17300  0.83290  0.11850  Biso   1.000  H
  N5       1.0000 0.26140  0.12390  0.37310  Biso   1.000  N
  H3       1.0000 0.27680  0.19310  0.37810  Biso   1.000  H
  H4       1.0000 0.25640  0.07730  0.43790  Biso   1.000  H
  O1       1.0000 0.15770  0.74690  0.28240  Biso   1.000  O
  O2       1.0000 0.13730  0.92260  0.39420  Biso   1.000  O
  O3       1.0000 0.06910  0.99460  0.37160  Biso   1.000  O
  H5       1.0000 0.09030  0.99470  0.39950  Biso   1.000  H
  C1       1.0000 0.13220  0.82700  0.31030  Biso   1.000  C
  C2       1.0000 0.03250  0.88100  0.21060  Biso   1.000  C
  C3       1.0000 0.06540  0.90000  0.27260  Biso   1.000  C
  C4       1.0000 0.09560  0.81500  0.24530  Biso   1.000  C
  C5       1.0000 0.09190  0.71700  0.15200  Biso   1.000  C
  H6       1.0000 0.11100  0.65640  0.13690  Biso   1.000  H
  C6       1.0000 0.05890  0.70900  0.07810  Biso   1.000  C
  C7       1.0000 0.02890  0.79300  0.10740  Biso   1.000  C
  C8       1.0000 0.99660  0.78700  0.02860  Biso   1.000  C
  H7       1.0000 0.97670  0.84360  0.04390  Biso   1.000  H
  C9       1.0000 0.99530  0.69600  0.93060  Biso   1.000  C
  H8       1.0000 0.97430  0.69520  0.87860  Biso   1.000  H
  C10      1.0000 0.02320  0.60500  0.90390  Biso   1.000  C
  H9       1.0000 0.02050  0.53950  0.83960  Biso   1.000  H
  C11      1.0000 0.05570  0.61400  0.97660  Biso   1.000  C
  H10      1.0000 0.07540  0.55670  0.95840  Biso   1.000  H
  H11      1.0000 0.00830  0.03520  0.31780  Biso   1.000  H
  C12      1.0000 0.20870  0.98610  0.13180  Biso   1.000  C
  C13      1.0000 0.24470  0.08820  0.26260  Biso   1.000  C
  Cd2      1.0000 0.70749  0.30608  0.39579  Biso   1.000  Cd
  N6       1.0000 0.71940  0.48180  0.25000  Biso   1.000  N
  N7       1.0000 0.72620  0.58210  0.07040  Biso   1.000  N
  N8       1.0000 0.75040  0.65280  0.15710  Biso   1.000  N
  N9       1.0000 0.68410  0.39470  0.07580  Biso   1.000  N
  H12      1.0000 0.67960  0.39890  0.99770  Biso   1.000  H
  H13      1.0000 0.67300  0.33290  0.11850  Biso   1.000  H
  N10      1.0000 0.76140  0.62390  0.37310  Biso   1.000  N
  H14      1.0000 0.77680  0.69310  0.37810  Biso   1.000  H
  H15      1.0000 0.75640  0.57730  0.43790  Biso   1.000  H
  O4       1.0000 0.65770  0.24690  0.28240  Biso   1.000  O
  O5       1.0000 0.63730  0.42260  0.39420  Biso   1.000  O
  O6       1.0000 0.56910  0.49460  0.37160  Biso   1.000  O
  H16      1.0000 0.59030  0.49470  0.39950  Biso   1.000  H
  C14      1.0000 0.63220  0.32700  0.31030  Biso   1.000  C
  C15      1.0000 0.53250  0.38100  0.21060  Biso   1.000  C
  C16      1.0000 0.56540  0.40000  0.27260  Biso   1.000  C
  C17      1.0000 0.59560  0.31500  0.24530  Biso   1.000  C
  C18      1.0000 0.59190  0.21700  0.15200  Biso   1.000  C
  H17      1.0000 0.61100  0.15640  0.13690  Biso   1.000  H
  C19      1.0000 0.55890  0.20900  0.07810  Biso   1.000  C
  C20      1.0000 0.52890  0.29300  0.10740  Biso   1.000  C
  C21      1.0000 0.49660  0.28700  0.02860  Biso   1.000  C
  H18      1.0000 0.47670  0.34360  0.04390  Biso   1.000  H
  C22      1.0000 0.49530  0.19600  0.93060  Biso   1.000  C
  H19      1.0000 0.47430  0.19520  0.87860  Biso   1.000  H
  C23      1.0000 0.52320  0.10500  0.90390  Biso   1.000  C
  H20      1.0000 0.52050  0.03950  0.83960  Biso   1.000  H
  C24      1.0000 0.55570  0.11400  0.97660  Biso   1.000  C
  H21      1.0000 0.57540  0.05670  0.95840  Biso   1.000  H
  H22      1.0000 0.50830  0.53520  0.31780  Biso   1.000  H
  C25      1.0000 0.70870  0.48610  0.13180  Biso   1.000  C
  C26      1.0000 0.74470  0.58820  0.26260  Biso   1.000  C
  Cd3      1.0000 0.79251  0.80608  0.10421  Biso   1.000  Cd
  N11      1.0000 0.78060  0.98180  0.25000  Biso   1.000  N
  N12      1.0000 0.77380  0.08210  0.42960  Biso   1.000  N
  N13      1.0000 0.74960  0.15280  0.34290  Biso   1.000  N
  N14      1.0000 0.81590  0.89470  0.42420  Biso   1.000  N
  H23      1.0000 0.82040  0.89890  0.50230  Biso   1.000  H
  H24      1.0000 0.82700  0.83290  0.38150  Biso   1.000  H
  N15      1.0000 0.73860  0.12390  0.12690  Biso   1.000  N
  H25      1.0000 0.72320  0.19310  0.12190  Biso   1.000  H
  H26      1.0000 0.74360  0.07730  0.06210  Biso   1.000  H
  O7       1.0000 0.84230  0.74690  0.21760  Biso   1.000  O
  O8       1.0000 0.86270  0.92260  0.10580  Biso   1.000  O
  O9       1.0000 0.93090  0.99460  0.12840  Biso   1.000  O
  H27      1.0000 0.90970  0.99470  0.10050  Biso   1.000  H
  C27      1.0000 0.86780  0.82700  0.18970  Biso   1.000  C
  C28      1.0000 0.96750  0.88100  0.28940  Biso   1.000  C
  C29      1.0000 0.93460  0.90000  0.22740  Biso   1.000  C
  C30      1.0000 0.90440  0.81500  0.25470  Biso   1.000  C
  C31      1.0000 0.90810  0.71700  0.34800  Biso   1.000  C
  H28      1.0000 0.88900  0.65640  0.36310  Biso   1.000  H
  C32      1.0000 0.94110  0.70900  0.42190  Biso   1.000  C
  C33      1.0000 0.97110  0.79300  0.39260  Biso   1.000  C
  C34      1.0000 0.00340  0.78700  0.47140  Biso   1.000  C
  H29      1.0000 0.02330  0.84360  0.45610  Biso   1.000  H
  C35      1.0000 0.00470  0.69600  0.56940  Biso   1.000  C
  H30      1.0000 0.02570  0.69520  0.62140  Biso   1.000  H
  C36      1.0000 0.97680  0.60500  0.59610  Biso   1.000  C
  H31      1.0000 0.97950  0.53950  0.66040  Biso   1.000  H
  C37      1.0000 0.94430  0.61400  0.52340  Biso   1.000  C
  H32      1.0000 0.92460  0.55670  0.54160  Biso   1.000  H
  H33      1.0000 0.99170  0.03520  0.18220  Biso   1.000  H
  C38      1.0000 0.79130  0.98610  0.36820  Biso   1.000  C
  C39      1.0000 0.75530  0.08820  0.23740  Biso   1.000  C
  Cd4      1.0000 0.29251  0.30608  0.10421  Biso   1.000  Cd
  N16      1.0000 0.28060  0.48180  0.25000  Biso   1.000  N
  N17      1.0000 0.27380  0.58210  0.42960  Biso   1.000  N
  N18      1.0000 0.24960  0.65280  0.34290  Biso   1.000  N
  N19      1.0000 0.31590  0.39470  0.42420  Biso   1.000  N
  H34      1.0000 0.32040  0.39890  0.50230  Biso   1.000  H
  H35      1.0000 0.32700  0.33290  0.38150  Biso   1.000  H
  N20      1.0000 0.23860  0.62390  0.12690  Biso   1.000  N
  H36      1.0000 0.22320  0.69310  0.12190  Biso   1.000  H
  H37      1.0000 0.24360  0.57730  0.06210  Biso   1.000  H
  O10      1.0000 0.34230  0.24690  0.21760  Biso   1.000  O
  O11      1.0000 0.36270  0.42260  0.10580  Biso   1.000  O
  O12      1.0000 0.43090  0.49460  0.12840  Biso   1.000  O
  H38      1.0000 0.40970  0.49470  0.10050  Biso   1.000  H
  C40      1.0000 0.36780  0.32700  0.18970  Biso   1.000  C
  C41      1.0000 0.46750  0.38100  0.28940  Biso   1.000  C
  C42      1.0000 0.43460  0.40000  0.22740  Biso   1.000  C
  C43      1.0000 0.40440  0.31500  0.25470  Biso   1.000  C
  C44      1.0000 0.40810  0.21700  0.34800  Biso   1.000  C
  H39      1.0000 0.38900  0.15640  0.36310  Biso   1.000  H
  C45      1.0000 0.44110  0.20900  0.42190  Biso   1.000  C
  C46      1.0000 0.47110  0.29300  0.39260  Biso   1.000  C
  C47      1.0000 0.50340  0.28700  0.47140  Biso   1.000  C
  H40      1.0000 0.52330  0.34360  0.45610  Biso   1.000  H
  C48      1.0000 0.50470  0.19600  0.56940  Biso   1.000  C
  H41      1.0000 0.52570  0.19520  0.62140  Biso   1.000  H
  C49      1.0000 0.47680  0.10500  0.59610  Biso   1.000  C
  H42      1.0000 0.47950  0.03950  0.66040  Biso   1.000  H
  C50      1.0000 0.44430  0.11400  0.52340  Biso   1.000  C
  H43      1.0000 0.42460  0.05670  0.54160  Biso   1.000  H
  H44      1.0000 0.49170  0.53520  0.18220  Biso   1.000  H
  C51      1.0000 0.29130  0.48610  0.36820  Biso   1.000  C
  C52      1.0000 0.25530  0.58820  0.23740  Biso   1.000  C
  Cd5      1.0000 0.79251  0.19392  0.60421  Biso   1.000  Cd
  N21      1.0000 0.78060  0.01820  0.75000  Biso   1.000  N
  N22      1.0000 0.77380  0.91790  0.92960  Biso   1.000  N
  N23      1.0000 0.74960  0.84720  0.84290  Biso   1.000  N
  N24      1.0000 0.81590  0.10530  0.92420  Biso   1.000  N
  H45      1.0000 0.82040  0.10110  0.00230  Biso   1.000  H
  H46      1.0000 0.82700  0.16710  0.88150  Biso   1.000  H
  N25      1.0000 0.73860  0.87610  0.62690  Biso   1.000  N
  H47      1.0000 0.72320  0.80690  0.62190  Biso   1.000  H
  H48      1.0000 0.74360  0.92270  0.56210  Biso   1.000  H
  O13      1.0000 0.84230  0.25310  0.71760  Biso   1.000  O
  O14      1.0000 0.86270  0.07740  0.60580  Biso   1.000  O
  O15      1.0000 0.93090  0.00540  0.62840  Biso   1.000  O
  H49      1.0000 0.90970  0.00530  0.60050  Biso   1.000  H
  C53      1.0000 0.86780  0.17300  0.68970  Biso   1.000  C
  C54      1.0000 0.96750  0.11900  0.78940  Biso   1.000  C
  C55      1.0000 0.93460  0.10000  0.72740  Biso   1.000  C
  C56      1.0000 0.90440  0.18500  0.75470  Biso   1.000  C
  C57      1.0000 0.90810  0.28300  0.84800  Biso   1.000  C
  H50      1.0000 0.88900  0.34360  0.86310  Biso   1.000  H
  C58      1.0000 0.94110  0.29100  0.92190  Biso   1.000  C
  C59      1.0000 0.97110  0.20700  0.89260  Biso   1.000  C
  C60      1.0000 0.00340  0.21300  0.97140  Biso   1.000  C
  H51      1.0000 0.02330  0.15640  0.95610  Biso   1.000  H
  C61      1.0000 0.00470  0.30400  0.06940  Biso   1.000  C
  H52      1.0000 0.02570  0.30480  0.12140  Biso   1.000  H
  C62      1.0000 0.97680  0.39500  0.09610  Biso   1.000  C
  H53      1.0000 0.97950  0.46050  0.16040  Biso   1.000  H
  C63      1.0000 0.94430  0.38600  0.02340  Biso   1.000  C
  H54      1.0000 0.92460  0.44330  0.04160  Biso   1.000  H
  H55      1.0000 0.99170  0.96480  0.68220  Biso   1.000  H
  C64      1.0000 0.79130  0.01390  0.86820  Biso   1.000  C
  C65      1.0000 0.75530  0.91180  0.73740  Biso   1.000  C
  Cd6      1.0000 0.29251  0.69392  0.60421  Biso   1.000  Cd
  N26      1.0000 0.28060  0.51820  0.75000  Biso   1.000  N
  N27      1.0000 0.27380  0.41790  0.92960  Biso   1.000  N
  N28      1.0000 0.24960  0.34720  0.84290  Biso   1.000  N
  N29      1.0000 0.31590  0.60530  0.92420  Biso   1.000  N
  H56      1.0000 0.32040  0.60110  0.00230  Biso   1.000  H
  H57      1.0000 0.32700  0.66710  0.88150  Biso   1.000  H
  N30      1.0000 0.23860  0.37610  0.62690  Biso   1.000  N
  H58      1.0000 0.22320  0.30690  0.62190  Biso   1.000  H
  H59      1.0000 0.24360  0.42270  0.56210  Biso   1.000  H
  O16      1.0000 0.34230  0.75310  0.71760  Biso   1.000  O
  O17      1.0000 0.36270  0.57740  0.60580  Biso   1.000  O
  O18      1.0000 0.43090  0.50540  0.62840  Biso   1.000  O
  H60      1.0000 0.40970  0.50530  0.60050  Biso   1.000  H
  C66      1.0000 0.36780  0.67300  0.68970  Biso   1.000  C
  C67      1.0000 0.46750  0.61900  0.78940  Biso   1.000  C
  C68      1.0000 0.43460  0.60000  0.72740  Biso   1.000  C
  C69      1.0000 0.40440  0.68500  0.75470  Biso   1.000  C
  C70      1.0000 0.40810  0.78300  0.84800  Biso   1.000  C
  H61      1.0000 0.38900  0.84360  0.86310  Biso   1.000  H
  C71      1.0000 0.44110  0.79100  0.92190  Biso   1.000  C
  C72      1.0000 0.47110  0.70700  0.89260  Biso   1.000  C
  C73      1.0000 0.50340  0.71300  0.97140  Biso   1.000  C
  H62      1.0000 0.52330  0.65640  0.95610  Biso   1.000  H
  C74      1.0000 0.50470  0.80400  0.06940  Biso   1.000  C
  H63      1.0000 0.52570  0.80480  0.12140  Biso   1.000  H
  C75      1.0000 0.47680  0.89500  0.09610  Biso   1.000  C
  H64      1.0000 0.47950  0.96050  0.16040  Biso   1.000  H
  C76      1.0000 0.44430  0.88600  0.02340  Biso   1.000  C
  H65      1.0000 0.42460  0.94330  0.04160  Biso   1.000  H
  H66      1.0000 0.49170  0.46480  0.68220  Biso   1.000  H
  C77      1.0000 0.29130  0.51390  0.86820  Biso   1.000  C
  C78      1.0000 0.25530  0.41180  0.73740  Biso   1.000  C
  Cd7      1.0000 0.20749  0.19392  0.89579  Biso   1.000  Cd
  N31      1.0000 0.21940  0.01820  0.75000  Biso   1.000  N
  N32      1.0000 0.22620  0.91790  0.57040  Biso   1.000  N
  N33      1.0000 0.25040  0.84720  0.65710  Biso   1.000  N
  N34      1.0000 0.18410  0.10530  0.57580  Biso   1.000  N
  H67      1.0000 0.17960  0.10110  0.49770  Biso   1.000  H
  H68      1.0000 0.17300  0.16710  0.61850  Biso   1.000  H
  N35      1.0000 0.26140  0.87610  0.87310  Biso   1.000  N
  H69      1.0000 0.27680  0.80690  0.87810  Biso   1.000  H
  H70      1.0000 0.25640  0.92270  0.93790  Biso   1.000  H
  O19      1.0000 0.15770  0.25310  0.78240  Biso   1.000  O
  O20      1.0000 0.13730  0.07740  0.89420  Biso   1.000  O
  O21      1.0000 0.06910  0.00540  0.87160  Biso   1.000  O
  H71      1.0000 0.09030  0.00530  0.89950  Biso   1.000  H
  C79      1.0000 0.13220  0.17300  0.81030  Biso   1.000  C
  C80      1.0000 0.03250  0.11900  0.71060  Biso   1.000  C
  C81      1.0000 0.06540  0.10000  0.77260  Biso   1.000  C
  C82      1.0000 0.09560  0.18500  0.74530  Biso   1.000  C
  C83      1.0000 0.09190  0.28300  0.65200  Biso   1.000  C
  H72      1.0000 0.11100  0.34360  0.63690  Biso   1.000  H
  C84      1.0000 0.05890  0.29100  0.57810  Biso   1.000  C
  C85      1.0000 0.02890  0.20700  0.60740  Biso   1.000  C
  C86      1.0000 0.99660  0.21300  0.52860  Biso   1.000  C
  H73      1.0000 0.97670  0.15640  0.54390  Biso   1.000  H
  C87      1.0000 0.99530  0.30400  0.43060  Biso   1.000  C
  H74      1.0000 0.97430  0.30480  0.37860  Biso   1.000  H
  C88      1.0000 0.02320  0.39500  0.40390  Biso   1.000  C
  H75      1.0000 0.02050  0.46050  0.33960  Biso   1.000  H
  C89      1.0000 0.05570  0.38600  0.47660  Biso   1.000  C
  H76      1.0000 0.07540  0.44330  0.45840  Biso   1.000  H
  H77      1.0000 0.00830  0.96480  0.81780  Biso   1.000  H
  C90      1.0000 0.20870  0.01390  0.63180  Biso   1.000  C
  C91      1.0000 0.24470  0.91180  0.76260  Biso   1.000  C
  Cd8      1.0000 0.70749  0.69392  0.89579  Biso   1.000  Cd
  N36      1.0000 0.71940  0.51820  0.75000  Biso   1.000  N
  N37      1.0000 0.72620  0.41790  0.57040  Biso   1.000  N
  N38      1.0000 0.75040  0.34720  0.65710  Biso   1.000  N
  N39      1.0000 0.68410  0.60530  0.57580  Biso   1.000  N
  H78      1.0000 0.67960  0.60110  0.49770  Biso   1.000  H
  H79      1.0000 0.67300  0.66710  0.61850  Biso   1.000  H
  N40      1.0000 0.76140  0.37610  0.87310  Biso   1.000  N
  H80      1.0000 0.77680  0.30690  0.87810  Biso   1.000  H
  H81      1.0000 0.75640  0.42270  0.93790  Biso   1.000  H
  O22      1.0000 0.65770  0.75310  0.78240  Biso   1.000  O
  O23      1.0000 0.63730  0.57740  0.89420  Biso   1.000  O
  O24      1.0000 0.56910  0.50540  0.87160  Biso   1.000  O
  H82      1.0000 0.59030  0.50530  0.89950  Biso   1.000  H
  C92      1.0000 0.63220  0.67300  0.81030  Biso   1.000  C
  C93      1.0000 0.53250  0.61900  0.71060  Biso   1.000  C
  C94      1.0000 0.56540  0.60000  0.77260  Biso   1.000  C
  C95      1.0000 0.59560  0.68500  0.74530  Biso   1.000  C
  C96      1.0000 0.59190  0.78300  0.65200  Biso   1.000  C
  H83      1.0000 0.61100  0.84360  0.63690  Biso   1.000  H
  C97      1.0000 0.55890  0.79100  0.57810  Biso   1.000  C
  C98      1.0000 0.52890  0.70700  0.60740  Biso   1.000  C
  C99      1.0000 0.49660  0.71300  0.52860  Biso   1.000  C
  H84      1.0000 0.47670  0.65640  0.54390  Biso   1.000  H
  C100     1.0000 0.49530  0.80400  0.43060  Biso   1.000  C
  H85      1.0000 0.47430  0.80480  0.37860  Biso   1.000  H
  C101     1.0000 0.52320  0.89500  0.40390  Biso   1.000  C
  H86      1.0000 0.52050  0.96050  0.33960  Biso   1.000  H
  C102     1.0000 0.55570  0.88600  0.47660  Biso   1.000  C
  H87      1.0000 0.57540  0.94330  0.45840  Biso   1.000  H
  H88      1.0000 0.50830  0.46480  0.81780  Biso   1.000  H
  C103     1.0000 0.70870  0.51390  0.63180  Biso   1.000  C
  C104     1.0000 0.74470  0.41180  0.76260  Biso   1.000  C
  C105     1.0000 0.00000  0.97400  0.25000  Biso   1.000  C
  C106     1.0000 0.50000  0.47400  0.25000  Biso   1.000  C
  C107     1.0000 0.00000  0.02600  0.75000  Biso   1.000  C
  C108     1.0000 0.50000  0.52600  0.75000  Biso   1.000  C
