data_JOSNAG_clean
_audit_creation_date              2014-07-02
_audit_creation_method            'Materials Studio'
_symmetry_space_group_name_H-M    'P1'
_symmetry_Int_Tables_number       1
_symmetry_cell_setting            triclinic
loop_
_symmetry_equiv_pos_as_xyz
  x,y,z
_cell_length_a                    9.2390
_cell_length_b                    9.7900
_cell_length_c                    10.7090
_cell_angle_alpha                 68.0400
_cell_angle_beta                  84.4900
_cell_angle_gamma                 62.0100
loop_
_atom_site_label
_atom_site_type_symbol
_atom_site_fract_x
_atom_site_fract_y
_atom_site_fract_z
_atom_site_U_iso_or_equiv
_atom_site_adp_type
_atom_site_occupancy
La1    La    0.77530   0.45620   0.01590   0.01267  Uiso   1.00
La2    La    0.22470   0.54380   0.98410   0.01267  Uiso   1.00
H1     H     0.11300   0.26800   0.43600   0.01267  Uiso   1.00
H2     H     0.17000   0.40200   0.34800   0.01267  Uiso   1.00
H3     H     0.86700   0.48300   0.46800   0.01267  Uiso   1.00
H4     H     0.91500   0.61900   0.37100   0.01267  Uiso   1.00
H5     H     0.36100   0.61900   0.37400   0.01267  Uiso   1.00
H6     H     0.53800   0.47300   0.37400   0.01267  Uiso   1.00
H7     H     0.63400   0.66100   0.24800   0.01267  Uiso   1.00
H8     H     0.57700   0.68700   0.38600   0.01267  Uiso   1.00
H9     H     0.38100   0.89800   0.12800   0.01267  Uiso   1.00
H10    H     0.32500   0.92400   0.26300   0.01267  Uiso   1.00
H11    H     0.56700   0.95800   0.27600   0.01267  Uiso   1.00
H12    H     0.59800   0.95700   0.12500   0.01267  Uiso   1.00
H13    H     0.88700   0.73200   0.56400   0.01267  Uiso   1.00
H14    H     0.83000   0.59800   0.65200   0.01267  Uiso   1.00
H15    H     0.13300   0.51700   0.53200   0.01267  Uiso   1.00
H16    H     0.08500   0.38100   0.62900   0.01267  Uiso   1.00
H17    H     0.63900   0.38100   0.62600   0.01267  Uiso   1.00
H18    H     0.46200   0.52700   0.62600   0.01267  Uiso   1.00
H19    H     0.36600   0.33900   0.75200   0.01267  Uiso   1.00
H20    H     0.42300   0.31300   0.61400   0.01267  Uiso   1.00
H21    H     0.61900   0.10200   0.87200   0.01267  Uiso   1.00
H22    H     0.67500   0.07600   0.73700   0.01267  Uiso   1.00
H23    H     0.43300   0.04200   0.72400   0.01267  Uiso   1.00
H24    H     0.40200   0.04300   0.87500   0.01267  Uiso   1.00
C1     C     0.98670   0.40530   0.25200   0.01267  Uiso   1.00
C2     C     0.07460   0.38370   0.37480   0.01267  Uiso   1.00
C3     C     0.95760   0.50520   0.43980   0.01267  Uiso   1.00
C4     C     0.40020   0.58800   0.19480   0.01267  Uiso   1.00
C5     C     0.45640   0.58860   0.32190   0.01267  Uiso   1.00
C6     C     0.53700   0.70060   0.29500   0.01267  Uiso   1.00
C7     C     0.42280   0.88390   0.21520   0.01267  Uiso   1.00
C8     C     0.51460   0.98520   0.19050   0.01267  Uiso   1.00
C9     C     0.40740   0.17120   0.12500   0.01267  Uiso   1.00
C10    C     0.01330   0.59470   0.74800   0.01267  Uiso   1.00
C11    C     0.92540   0.61630   0.62520   0.01267  Uiso   1.00
C12    C     0.04240   0.49480   0.56020   0.01267  Uiso   1.00
C13    C     0.59980   0.41200   0.80520   0.01267  Uiso   1.00
C14    C     0.54360   0.41140   0.67810   0.01267  Uiso   1.00
C15    C     0.46300   0.29940   0.70500   0.01267  Uiso   1.00
C16    C     0.57720   0.11610   0.78480   0.01267  Uiso   1.00
C17    C     0.48540   0.01480   0.80950   0.01267  Uiso   1.00
C18    C     0.59260   0.82880   0.87500   0.01267  Uiso   1.00
O1     O     0.02200   0.46820   0.13460   0.01267  Uiso   1.00
O2     O     0.87250   0.36580   0.26630   0.01267  Uiso   1.00
O3     O     0.50100   0.55100   0.11020   0.01267  Uiso   1.00
O4     O     0.42200   0.26560   0.17300   0.01267  Uiso   1.00
O5     O     0.25240   0.62200   0.17680   0.01267  Uiso   1.00
O6     O     0.30850   0.23290   0.02270   0.01267  Uiso   1.00
O7     O     0.97800   0.53180   0.86540   0.01267  Uiso   1.00
O8     O     0.12750   0.63420   0.73370   0.01267  Uiso   1.00
O9     O     0.49900   0.44900   0.88980   0.01267  Uiso   1.00
O10    O     0.57800   0.73440   0.82700   0.01267  Uiso   1.00
O11    O     0.74760   0.37800   0.82320   0.01267  Uiso   1.00
O12    O     0.69150   0.76710   0.97730   0.01267  Uiso   1.00
