data_image0
_cell_length_a       11.994
_cell_length_b       12.367
_cell_length_c       12.552
_cell_angle_alpha    90
_cell_angle_beta     116.36
_cell_angle_gamma    90

_symmetry_space_group_name_H-M    "P 1"
_symmetry_int_tables_number       1

loop_
  _symmetry_equiv_pos_as_xyz
  'x, y, z'

loop_
  _atom_site_label
  _atom_site_occupancy
  _atom_site_fract_x
  _atom_site_fract_y
  _atom_site_fract_z
  _atom_site_thermal_displace_type
  _atom_site_B_iso_or_equiv
  _atom_site_type_symbol
  C1       1.0000 0.37860  0.81480  0.13860  Biso   1.000  C
  C2       1.0000 0.25390  0.84620  0.07450  Biso   1.000  C
  N1       1.0000 0.15340  0.87700  0.03050  Biso   1.000  N
  C3       1.0000 0.44640  0.86570  0.24940  Biso   1.000  C
  N2       1.0000 0.49520  0.91230  0.33720  Biso   1.000  N
  C4       1.0000 0.43120  0.73110  0.10210  Biso   1.000  C
  N3       1.0000 0.47510  0.66230  0.07180  Biso   1.000  N
  N4       1.0000 0.08770  0.03990  0.21340  Biso   1.000  N
  C5       1.0000 0.22240  0.01670  0.27530  Biso   1.000  C
  C6       1.0000 0.02540  0.96920  0.26920  Biso   1.000  C
  C7       1.0000 0.06940  0.15550  0.23820  Biso   1.000  C
  N5       1.0000 0.27810  0.03620  0.40590  Biso   1.000  N
  C8       1.0000 0.20870  0.96530  0.45430  Biso   1.000  C
  C9       1.0000 0.25170  0.15110  0.42400  Biso   1.000  C
  N6       1.0000 0.07470  0.98940  0.39750  Biso   1.000  N
  N7       1.0000 0.11780  0.17570  0.36640  Biso   1.000  N
  C10      1.0000 0.05560  0.10310  0.41640  Biso   1.000  C
  H1       1.0000 0.23670  0.93290  0.26050  Biso   1.000  H
  H2       1.0000 0.26920  0.06770  0.23800  Biso   1.000  H
  H3       1.0000 0.04100  0.88540  0.25540  Biso   1.000  H
  H4       1.0000 0.92670  0.98570  0.22710  Biso   1.000  H
  H5       1.0000 0.97120  0.17400  0.19520  Biso   1.000  H
  H6       1.0000 0.11760  0.20730  0.20310  Biso   1.000  H
  H7       1.0000 0.24530  0.97880  0.54890  Biso   1.000  H
  H8       1.0000 0.22210  0.88170  0.43810  Biso   1.000  H
  H9       1.0000 0.29780  0.20350  0.38710  Biso   1.000  H
  H10      1.0000 0.28780  0.16620  0.51820  Biso   1.000  H
  H11      1.0000 0.95700  0.12010  0.37420  Biso   1.000  H
  H12      1.0000 0.09270  0.11790  0.51080  Biso   1.000  H
  C11      1.0000 0.62140  0.31480  0.36140  Biso   1.000  C
  C12      1.0000 0.74610  0.34620  0.42550  Biso   1.000  C
  N8       1.0000 0.84660  0.37700  0.46950  Biso   1.000  N
  C13      1.0000 0.55360  0.36570  0.25060  Biso   1.000  C
  N9       1.0000 0.50480  0.41230  0.16280  Biso   1.000  N
  C14      1.0000 0.56880  0.23110  0.39790  Biso   1.000  C
  N10      1.0000 0.52490  0.16230  0.42820  Biso   1.000  N
  N11      1.0000 0.91230  0.53990  0.28660  Biso   1.000  N
  C15      1.0000 0.77760  0.51670  0.22470  Biso   1.000  C
  C16      1.0000 0.97460  0.46920  0.23080  Biso   1.000  C
  C17      1.0000 0.93060  0.65550  0.26180  Biso   1.000  C
  N12      1.0000 0.72190  0.53620  0.09410  Biso   1.000  N
  C18      1.0000 0.79130  0.46530  0.04570  Biso   1.000  C
  C19      1.0000 0.74830  0.65110  0.07600  Biso   1.000  C
  N13      1.0000 0.92530  0.48940  0.10250  Biso   1.000  N
  N14      1.0000 0.88220  0.67570  0.13360  Biso   1.000  N
  C20      1.0000 0.94440  0.60310  0.08360  Biso   1.000  C
  H13      1.0000 0.76330  0.43290  0.23950  Biso   1.000  H
  H14      1.0000 0.73080  0.56770  0.26200  Biso   1.000  H
  H15      1.0000 0.95900  0.38540  0.24460  Biso   1.000  H
  H16      1.0000 0.07330  0.48570  0.27290  Biso   1.000  H
  H17      1.0000 0.02880  0.67400  0.30480  Biso   1.000  H
  H18      1.0000 0.88240  0.70730  0.29690  Biso   1.000  H
  H19      1.0000 0.75470  0.47880  0.95110  Biso   1.000  H
  H20      1.0000 0.77790  0.38170  0.06190  Biso   1.000  H
  H21      1.0000 0.70220  0.70350  0.11290  Biso   1.000  H
  H22      1.0000 0.71220  0.66620  0.98180  Biso   1.000  H
  H23      1.0000 0.04300  0.62010  0.12580  Biso   1.000  H
  H24      1.0000 0.90730  0.61790  0.98920  Biso   1.000  H
  C21      1.0000 0.62140  0.18520  0.86140  Biso   1.000  C
  C22      1.0000 0.74610  0.15380  0.92550  Biso   1.000  C
  N15      1.0000 0.84660  0.12300  0.96950  Biso   1.000  N
  C23      1.0000 0.55360  0.13430  0.75060  Biso   1.000  C
  N16      1.0000 0.50480  0.08770  0.66280  Biso   1.000  N
  C24      1.0000 0.56880  0.26890  0.89790  Biso   1.000  C
  N17      1.0000 0.52490  0.33770  0.92820  Biso   1.000  N
  N18      1.0000 0.91230  0.96010  0.78660  Biso   1.000  N
  C25      1.0000 0.77760  0.98330  0.72470  Biso   1.000  C
  C26      1.0000 0.97460  0.03080  0.73080  Biso   1.000  C
  C27      1.0000 0.93060  0.84450  0.76180  Biso   1.000  C
  N19      1.0000 0.72190  0.96380  0.59410  Biso   1.000  N
  C28      1.0000 0.79130  0.03470  0.54570  Biso   1.000  C
  C29      1.0000 0.74830  0.84890  0.57600  Biso   1.000  C
  N20      1.0000 0.92530  0.01060  0.60250  Biso   1.000  N
  N21      1.0000 0.88220  0.82430  0.63360  Biso   1.000  N
  C30      1.0000 0.94440  0.89690  0.58360  Biso   1.000  C
  H25      1.0000 0.76330  0.06710  0.73950  Biso   1.000  H
  H26      1.0000 0.73080  0.93230  0.76200  Biso   1.000  H
  H27      1.0000 0.95900  0.11460  0.74460  Biso   1.000  H
  H28      1.0000 0.07330  0.01430  0.77290  Biso   1.000  H
  H29      1.0000 0.02880  0.82600  0.80480  Biso   1.000  H
  H30      1.0000 0.88240  0.79270  0.79690  Biso   1.000  H
  H31      1.0000 0.75470  0.02120  0.45110  Biso   1.000  H
  H32      1.0000 0.77790  0.11830  0.56190  Biso   1.000  H
  H33      1.0000 0.70220  0.79650  0.61290  Biso   1.000  H
  H34      1.0000 0.71220  0.83380  0.48180  Biso   1.000  H
  H35      1.0000 0.04300  0.87990  0.62580  Biso   1.000  H
  H36      1.0000 0.90730  0.88210  0.48920  Biso   1.000  H
  C31      1.0000 0.37860  0.68520  0.63860  Biso   1.000  C
  C32      1.0000 0.25390  0.65380  0.57450  Biso   1.000  C
  N22      1.0000 0.15340  0.62300  0.53050  Biso   1.000  N
  C33      1.0000 0.44640  0.63430  0.74940  Biso   1.000  C
  N23      1.0000 0.49520  0.58770  0.83720  Biso   1.000  N
  C34      1.0000 0.43120  0.76890  0.60210  Biso   1.000  C
  N24      1.0000 0.47510  0.83770  0.57180  Biso   1.000  N
  N25      1.0000 0.08770  0.46010  0.71340  Biso   1.000  N
  C35      1.0000 0.22240  0.48330  0.77530  Biso   1.000  C
  C36      1.0000 0.02540  0.53080  0.76920  Biso   1.000  C
  C37      1.0000 0.06940  0.34450  0.73820  Biso   1.000  C
  N26      1.0000 0.27810  0.46380  0.90590  Biso   1.000  N
  C38      1.0000 0.20870  0.53470  0.95430  Biso   1.000  C
  C39      1.0000 0.25170  0.34890  0.92400  Biso   1.000  C
  N27      1.0000 0.07470  0.51060  0.89750  Biso   1.000  N
  N28      1.0000 0.11780  0.32430  0.86640  Biso   1.000  N
  C40      1.0000 0.05560  0.39690  0.91640  Biso   1.000  C
  H37      1.0000 0.23670  0.56710  0.76050  Biso   1.000  H
  H38      1.0000 0.26920  0.43230  0.73800  Biso   1.000  H
  H39      1.0000 0.04100  0.61460  0.75540  Biso   1.000  H
  H40      1.0000 0.92670  0.51430  0.72710  Biso   1.000  H
  H41      1.0000 0.97120  0.32600  0.69520  Biso   1.000  H
  H42      1.0000 0.11760  0.29270  0.70310  Biso   1.000  H
  H43      1.0000 0.24530  0.52120  0.04890  Biso   1.000  H
  H44      1.0000 0.22210  0.61830  0.93810  Biso   1.000  H
  H45      1.0000 0.29780  0.29650  0.88710  Biso   1.000  H
  H46      1.0000 0.28780  0.33380  0.01820  Biso   1.000  H
  H47      1.0000 0.95700  0.37990  0.87420  Biso   1.000  H
  H48      1.0000 0.09270  0.38210  0.01080  Biso   1.000  H
  Cd1      1.0000 0.50000  0.00000  0.50000  Biso   1.000  Cd
  Cd2      1.0000 0.50000  0.50000  0.00000  Biso   1.000  Cd
  Cd3      1.0000 0.00000  0.00000  0.00000  Biso   1.000  Cd
  Cd4      1.0000 0.00000  0.50000  0.50000  Biso   1.000  Cd
