data_image0
_cell_length_a       20.435
_cell_length_b       20.435
_cell_length_c       20.435
_cell_angle_alpha    90
_cell_angle_beta     90
_cell_angle_gamma    90

_symmetry_space_group_name_H-M    "P 1"
_symmetry_int_tables_number       1

loop_
  _symmetry_equiv_pos_as_xyz
  'x, y, z'

loop_
  _atom_site_label
  _atom_site_occupancy
  _atom_site_fract_x
  _atom_site_fract_y
  _atom_site_fract_z
  _atom_site_thermal_displace_type
  _atom_site_B_iso_or_equiv
  _atom_site_type_symbol
  Nd1      1.0000 0.25768  0.35613  0.01998  Biso   1.000  Nd
  O1       1.0000 0.35550  0.30280  0.06460  Biso   1.000  O
  O2       1.0000 0.42310  0.21810  0.08010  Biso   1.000  O
  O3       1.0000 0.12330  0.21140  0.91480  Biso   1.000  O
  O4       1.0000 0.16800  0.29710  0.96620  Biso   1.000  O
  N1       1.0000 0.26940  0.23080  0.00450  Biso   1.000  N
  C1       1.0000 0.37060  0.24260  0.05990  Biso   1.000  C
  C2       1.0000 0.32210  0.19870  0.02700  Biso   1.000  C
  C3       1.0000 0.32880  0.13230  0.02280  Biso   1.000  C
  C4       1.0000 0.28010  0.09590  0.99260  Biso   1.000  C
  C5       1.0000 0.22560  0.12870  0.96860  Biso   1.000  C
  C6       1.0000 0.22160  0.19590  0.97470  Biso   1.000  C
  C7       1.0000 0.16630  0.23690  0.94980  Biso   1.000  C
  Nd2      1.0000 0.24232  0.64387  0.51998  Biso   1.000  Nd
  O5       1.0000 0.14450  0.69720  0.56460  Biso   1.000  O
  O6       1.0000 0.07690  0.78190  0.58010  Biso   1.000  O
  O7       1.0000 0.37670  0.78860  0.41480  Biso   1.000  O
  O8       1.0000 0.33200  0.70290  0.46620  Biso   1.000  O
  N2       1.0000 0.23060  0.76920  0.50450  Biso   1.000  N
  C8       1.0000 0.12940  0.75740  0.55990  Biso   1.000  C
  C9       1.0000 0.17790  0.80130  0.52700  Biso   1.000  C
  C10      1.0000 0.17120  0.86770  0.52280  Biso   1.000  C
  C11      1.0000 0.21990  0.90410  0.49260  Biso   1.000  C
  C12      1.0000 0.27440  0.87130  0.46860  Biso   1.000  C
  C13      1.0000 0.27840  0.80410  0.47470  Biso   1.000  C
  C14      1.0000 0.33370  0.76310  0.44980  Biso   1.000  C
  Nd3      1.0000 0.74232  0.85613  0.48002  Biso   1.000  Nd
  O9       1.0000 0.64450  0.80280  0.43540  Biso   1.000  O
  O10      1.0000 0.57690  0.71810  0.41990  Biso   1.000  O
  O11      1.0000 0.87670  0.71140  0.58520  Biso   1.000  O
  O12      1.0000 0.83200  0.79710  0.53380  Biso   1.000  O
  N3       1.0000 0.73060  0.73080  0.49550  Biso   1.000  N
  C15      1.0000 0.62940  0.74260  0.44010  Biso   1.000  C
  C16      1.0000 0.67790  0.69870  0.47300  Biso   1.000  C
  C17      1.0000 0.67120  0.63230  0.47720  Biso   1.000  C
  C18      1.0000 0.71990  0.59590  0.50740  Biso   1.000  C
  C19      1.0000 0.77440  0.62870  0.53140  Biso   1.000  C
  C20      1.0000 0.77840  0.69590  0.52530  Biso   1.000  C
  C21      1.0000 0.83370  0.73690  0.55020  Biso   1.000  C
  Nd4      1.0000 0.75768  0.14387  0.98002  Biso   1.000  Nd
  O13      1.0000 0.85550  0.19720  0.93540  Biso   1.000  O
  O14      1.0000 0.92310  0.28190  0.91990  Biso   1.000  O
  O15      1.0000 0.62330  0.28860  0.08520  Biso   1.000  O
  O16      1.0000 0.66800  0.20290  0.03380  Biso   1.000  O
  N4       1.0000 0.76940  0.26920  0.99550  Biso   1.000  N
  C22      1.0000 0.87060  0.25740  0.94010  Biso   1.000  C
  C23      1.0000 0.82210  0.30130  0.97300  Biso   1.000  C
  C24      1.0000 0.82880  0.36770  0.97720  Biso   1.000  C
  C25      1.0000 0.78010  0.40410  0.00740  Biso   1.000  C
  C26      1.0000 0.72560  0.37130  0.03140  Biso   1.000  C
  C27      1.0000 0.72160  0.30410  0.02530  Biso   1.000  C
  C28      1.0000 0.66630  0.26310  0.05020  Biso   1.000  C
  Nd5      1.0000 0.01998  0.25768  0.35613  Biso   1.000  Nd
  O17      1.0000 0.06460  0.35550  0.30280  Biso   1.000  O
  O18      1.0000 0.08010  0.42310  0.21810  Biso   1.000  O
  O19      1.0000 0.91480  0.12330  0.21140  Biso   1.000  O
  O20      1.0000 0.96620  0.16800  0.29710  Biso   1.000  O
  N5       1.0000 0.00450  0.26940  0.23080  Biso   1.000  N
  C29      1.0000 0.05990  0.37060  0.24260  Biso   1.000  C
  C30      1.0000 0.02700  0.32210  0.19870  Biso   1.000  C
  C31      1.0000 0.02280  0.32880  0.13230  Biso   1.000  C
  C32      1.0000 0.99260  0.28010  0.09590  Biso   1.000  C
  C33      1.0000 0.96860  0.22560  0.12870  Biso   1.000  C
  C34      1.0000 0.97470  0.22160  0.19590  Biso   1.000  C
  C35      1.0000 0.94980  0.16630  0.23690  Biso   1.000  C
  Nd6      1.0000 0.51998  0.24232  0.64387  Biso   1.000  Nd
  O21      1.0000 0.56460  0.14450  0.69720  Biso   1.000  O
  O22      1.0000 0.58010  0.07690  0.78190  Biso   1.000  O
  O23      1.0000 0.41480  0.37670  0.78860  Biso   1.000  O
  O24      1.0000 0.46620  0.33200  0.70290  Biso   1.000  O
  N6       1.0000 0.50450  0.23060  0.76920  Biso   1.000  N
  C36      1.0000 0.55990  0.12940  0.75740  Biso   1.000  C
  C37      1.0000 0.52700  0.17790  0.80130  Biso   1.000  C
  C38      1.0000 0.52280  0.17120  0.86770  Biso   1.000  C
  C39      1.0000 0.49260  0.21990  0.90410  Biso   1.000  C
  C40      1.0000 0.46860  0.27440  0.87130  Biso   1.000  C
  C41      1.0000 0.47470  0.27840  0.80410  Biso   1.000  C
  C42      1.0000 0.44980  0.33370  0.76310  Biso   1.000  C
  Nd7      1.0000 0.48002  0.74232  0.85613  Biso   1.000  Nd
  O25      1.0000 0.43540  0.64450  0.80280  Biso   1.000  O
  O26      1.0000 0.41990  0.57690  0.71810  Biso   1.000  O
  O27      1.0000 0.58520  0.87670  0.71140  Biso   1.000  O
  O28      1.0000 0.53380  0.83200  0.79710  Biso   1.000  O
  N7       1.0000 0.49550  0.73060  0.73080  Biso   1.000  N
  C43      1.0000 0.44010  0.62940  0.74260  Biso   1.000  C
  C44      1.0000 0.47300  0.67790  0.69870  Biso   1.000  C
  C45      1.0000 0.47720  0.67120  0.63230  Biso   1.000  C
  C46      1.0000 0.50740  0.71990  0.59590  Biso   1.000  C
  C47      1.0000 0.53140  0.77440  0.62870  Biso   1.000  C
  C48      1.0000 0.52530  0.77840  0.69590  Biso   1.000  C
  C49      1.0000 0.55020  0.83370  0.73690  Biso   1.000  C
  Nd8      1.0000 0.98002  0.75768  0.14387  Biso   1.000  Nd
  O29      1.0000 0.93540  0.85550  0.19720  Biso   1.000  O
  O30      1.0000 0.91990  0.92310  0.28190  Biso   1.000  O
  O31      1.0000 0.08520  0.62330  0.28860  Biso   1.000  O
  O32      1.0000 0.03380  0.66800  0.20290  Biso   1.000  O
  N8       1.0000 0.99550  0.76940  0.26920  Biso   1.000  N
  C50      1.0000 0.94010  0.87060  0.25740  Biso   1.000  C
  C51      1.0000 0.97300  0.82210  0.30130  Biso   1.000  C
  C52      1.0000 0.97720  0.82880  0.36770  Biso   1.000  C
  C53      1.0000 0.00740  0.78010  0.40410  Biso   1.000  C
  C54      1.0000 0.03140  0.72560  0.37130  Biso   1.000  C
  C55      1.0000 0.02530  0.72160  0.30410  Biso   1.000  C
  C56      1.0000 0.05020  0.66630  0.26310  Biso   1.000  C
  Nd9      1.0000 0.35613  0.01998  0.25768  Biso   1.000  Nd
  O33      1.0000 0.30280  0.06460  0.35550  Biso   1.000  O
  O34      1.0000 0.21810  0.08010  0.42310  Biso   1.000  O
  O35      1.0000 0.21140  0.91480  0.12330  Biso   1.000  O
  O36      1.0000 0.29710  0.96620  0.16800  Biso   1.000  O
  N9       1.0000 0.23080  0.00450  0.26940  Biso   1.000  N
  C57      1.0000 0.24260  0.05990  0.37060  Biso   1.000  C
  C58      1.0000 0.19870  0.02700  0.32210  Biso   1.000  C
  C59      1.0000 0.13230  0.02280  0.32880  Biso   1.000  C
  C60      1.0000 0.09590  0.99260  0.28010  Biso   1.000  C
  C61      1.0000 0.12870  0.96860  0.22560  Biso   1.000  C
  C62      1.0000 0.19590  0.97470  0.22160  Biso   1.000  C
  C63      1.0000 0.23690  0.94980  0.16630  Biso   1.000  C
  Nd10     1.0000 0.64387  0.51998  0.24232  Biso   1.000  Nd
  O37      1.0000 0.69720  0.56460  0.14450  Biso   1.000  O
  O38      1.0000 0.78190  0.58010  0.07690  Biso   1.000  O
  O39      1.0000 0.78860  0.41480  0.37670  Biso   1.000  O
  O40      1.0000 0.70290  0.46620  0.33200  Biso   1.000  O
  N10      1.0000 0.76920  0.50450  0.23060  Biso   1.000  N
  C64      1.0000 0.75740  0.55990  0.12940  Biso   1.000  C
  C65      1.0000 0.80130  0.52700  0.17790  Biso   1.000  C
  C66      1.0000 0.86770  0.52280  0.17120  Biso   1.000  C
  C67      1.0000 0.90410  0.49260  0.21990  Biso   1.000  C
  C68      1.0000 0.87130  0.46860  0.27440  Biso   1.000  C
  C69      1.0000 0.80410  0.47470  0.27840  Biso   1.000  C
  C70      1.0000 0.76310  0.44980  0.33370  Biso   1.000  C
  Nd11     1.0000 0.85613  0.48002  0.74232  Biso   1.000  Nd
  O41      1.0000 0.80280  0.43540  0.64450  Biso   1.000  O
  O42      1.0000 0.71810  0.41990  0.57690  Biso   1.000  O
  O43      1.0000 0.71140  0.58520  0.87670  Biso   1.000  O
  O44      1.0000 0.79710  0.53380  0.83200  Biso   1.000  O
  N11      1.0000 0.73080  0.49550  0.73060  Biso   1.000  N
  C71      1.0000 0.74260  0.44010  0.62940  Biso   1.000  C
  C72      1.0000 0.69870  0.47300  0.67790  Biso   1.000  C
  C73      1.0000 0.63230  0.47720  0.67120  Biso   1.000  C
  C74      1.0000 0.59590  0.50740  0.71990  Biso   1.000  C
  C75      1.0000 0.62870  0.53140  0.77440  Biso   1.000  C
  C76      1.0000 0.69590  0.52530  0.77840  Biso   1.000  C
  C77      1.0000 0.73690  0.55020  0.83370  Biso   1.000  C
  Nd12     1.0000 0.14387  0.98002  0.75768  Biso   1.000  Nd
  O45      1.0000 0.19720  0.93540  0.85550  Biso   1.000  O
  O46      1.0000 0.28190  0.91990  0.92310  Biso   1.000  O
  O47      1.0000 0.28860  0.08520  0.62330  Biso   1.000  O
  O48      1.0000 0.20290  0.03380  0.66800  Biso   1.000  O
  N12      1.0000 0.26920  0.99550  0.76940  Biso   1.000  N
  C78      1.0000 0.25740  0.94010  0.87060  Biso   1.000  C
  C79      1.0000 0.30130  0.97300  0.82210  Biso   1.000  C
  C80      1.0000 0.36770  0.97720  0.82880  Biso   1.000  C
  C81      1.0000 0.40410  0.00740  0.78010  Biso   1.000  C
  C82      1.0000 0.37130  0.03140  0.72560  Biso   1.000  C
  C83      1.0000 0.30410  0.02530  0.72160  Biso   1.000  C
  C84      1.0000 0.26310  0.05020  0.66630  Biso   1.000  C
  Nd13     1.0000 0.74232  0.64387  0.98002  Biso   1.000  Nd
  O49      1.0000 0.64450  0.69720  0.93540  Biso   1.000  O
  O50      1.0000 0.57690  0.78190  0.91990  Biso   1.000  O
  O51      1.0000 0.87670  0.78860  0.08520  Biso   1.000  O
  O52      1.0000 0.83200  0.70290  0.03380  Biso   1.000  O
  N13      1.0000 0.73060  0.76920  0.99550  Biso   1.000  N
  C85      1.0000 0.62940  0.75740  0.94010  Biso   1.000  C
  C86      1.0000 0.67790  0.80130  0.97300  Biso   1.000  C
  C87      1.0000 0.67120  0.86770  0.97720  Biso   1.000  C
  C88      1.0000 0.71990  0.90410  0.00740  Biso   1.000  C
  C89      1.0000 0.77440  0.87130  0.03140  Biso   1.000  C
  C90      1.0000 0.77840  0.80410  0.02530  Biso   1.000  C
  C91      1.0000 0.83370  0.76310  0.05020  Biso   1.000  C
  Nd14     1.0000 0.75768  0.35613  0.48002  Biso   1.000  Nd
  O53      1.0000 0.85550  0.30280  0.43540  Biso   1.000  O
  O54      1.0000 0.92310  0.21810  0.41990  Biso   1.000  O
  O55      1.0000 0.62330  0.21140  0.58520  Biso   1.000  O
  O56      1.0000 0.66800  0.29710  0.53380  Biso   1.000  O
  N14      1.0000 0.76940  0.23080  0.49550  Biso   1.000  N
  C92      1.0000 0.87060  0.24260  0.44010  Biso   1.000  C
  C93      1.0000 0.82210  0.19870  0.47300  Biso   1.000  C
  C94      1.0000 0.82880  0.13230  0.47720  Biso   1.000  C
  C95      1.0000 0.78010  0.09590  0.50740  Biso   1.000  C
  C96      1.0000 0.72560  0.12870  0.53140  Biso   1.000  C
  C97      1.0000 0.72160  0.19590  0.52530  Biso   1.000  C
  C98      1.0000 0.66630  0.23690  0.55020  Biso   1.000  C
  Nd15     1.0000 0.25768  0.14387  0.51998  Biso   1.000  Nd
  O57      1.0000 0.35550  0.19720  0.56460  Biso   1.000  O
  O58      1.0000 0.42310  0.28190  0.58010  Biso   1.000  O
  O59      1.0000 0.12330  0.28860  0.41480  Biso   1.000  O
  O60      1.0000 0.16800  0.20290  0.46620  Biso   1.000  O
  N15      1.0000 0.26940  0.26920  0.50450  Biso   1.000  N
  C99      1.0000 0.37060  0.25740  0.55990  Biso   1.000  C
  C100     1.0000 0.32210  0.30130  0.52700  Biso   1.000  C
  C101     1.0000 0.32880  0.36770  0.52280  Biso   1.000  C
  C102     1.0000 0.28010  0.40410  0.49260  Biso   1.000  C
  C103     1.0000 0.22560  0.37130  0.46860  Biso   1.000  C
  C104     1.0000 0.22160  0.30410  0.47470  Biso   1.000  C
  C105     1.0000 0.16630  0.26310  0.44980  Biso   1.000  C
  Nd16     1.0000 0.24232  0.85613  0.01998  Biso   1.000  Nd
  O61      1.0000 0.14450  0.80280  0.06460  Biso   1.000  O
  O62      1.0000 0.07690  0.71810  0.08010  Biso   1.000  O
  O63      1.0000 0.37670  0.71140  0.91480  Biso   1.000  O
  O64      1.0000 0.33200  0.79710  0.96620  Biso   1.000  O
  N16      1.0000 0.23060  0.73080  0.00450  Biso   1.000  N
  C106     1.0000 0.12940  0.74260  0.05990  Biso   1.000  C
  C107     1.0000 0.17790  0.69870  0.02700  Biso   1.000  C
  C108     1.0000 0.17120  0.63230  0.02280  Biso   1.000  C
  C109     1.0000 0.21990  0.59590  0.99260  Biso   1.000  C
  C110     1.0000 0.27440  0.62870  0.96860  Biso   1.000  C
  C111     1.0000 0.27840  0.69590  0.97470  Biso   1.000  C
  C112     1.0000 0.33370  0.73690  0.94980  Biso   1.000  C
  Nd17     1.0000 0.98002  0.74232  0.64387  Biso   1.000  Nd
  O65      1.0000 0.93540  0.64450  0.69720  Biso   1.000  O
  O66      1.0000 0.91990  0.57690  0.78190  Biso   1.000  O
  O67      1.0000 0.08520  0.87670  0.78860  Biso   1.000  O
  O68      1.0000 0.03380  0.83200  0.70290  Biso   1.000  O
  N17      1.0000 0.99550  0.73060  0.76920  Biso   1.000  N
  C113     1.0000 0.94010  0.62940  0.75740  Biso   1.000  C
  C114     1.0000 0.97300  0.67790  0.80130  Biso   1.000  C
  C115     1.0000 0.97720  0.67120  0.86770  Biso   1.000  C
  C116     1.0000 0.00740  0.71990  0.90410  Biso   1.000  C
  C117     1.0000 0.03140  0.77440  0.87130  Biso   1.000  C
  C118     1.0000 0.02530  0.77840  0.80410  Biso   1.000  C
  C119     1.0000 0.05020  0.83370  0.76310  Biso   1.000  C
  Nd18     1.0000 0.48002  0.75768  0.35613  Biso   1.000  Nd
  O69      1.0000 0.43540  0.85550  0.30280  Biso   1.000  O
  O70      1.0000 0.41990  0.92310  0.21810  Biso   1.000  O
  O71      1.0000 0.58520  0.62330  0.21140  Biso   1.000  O
  O72      1.0000 0.53380  0.66800  0.29710  Biso   1.000  O
  N18      1.0000 0.49550  0.76940  0.23080  Biso   1.000  N
  C120     1.0000 0.44010  0.87060  0.24260  Biso   1.000  C
  C121     1.0000 0.47300  0.82210  0.19870  Biso   1.000  C
  C122     1.0000 0.47720  0.82880  0.13230  Biso   1.000  C
  C123     1.0000 0.50740  0.78010  0.09590  Biso   1.000  C
  C124     1.0000 0.53140  0.72560  0.12870  Biso   1.000  C
  C125     1.0000 0.52530  0.72160  0.19590  Biso   1.000  C
  C126     1.0000 0.55020  0.66630  0.23690  Biso   1.000  C
  Nd19     1.0000 0.51998  0.25768  0.14387  Biso   1.000  Nd
  O73      1.0000 0.56460  0.35550  0.19720  Biso   1.000  O
  O74      1.0000 0.58010  0.42310  0.28190  Biso   1.000  O
  O75      1.0000 0.41480  0.12330  0.28860  Biso   1.000  O
  O76      1.0000 0.46620  0.16800  0.20290  Biso   1.000  O
  N19      1.0000 0.50450  0.26940  0.26920  Biso   1.000  N
  C127     1.0000 0.55990  0.37060  0.25740  Biso   1.000  C
  C128     1.0000 0.52700  0.32210  0.30130  Biso   1.000  C
  C129     1.0000 0.52280  0.32880  0.36770  Biso   1.000  C
  C130     1.0000 0.49260  0.28010  0.40410  Biso   1.000  C
  C131     1.0000 0.46860  0.22560  0.37130  Biso   1.000  C
  C132     1.0000 0.47470  0.22160  0.30410  Biso   1.000  C
  C133     1.0000 0.44980  0.16630  0.26310  Biso   1.000  C
  Nd20     1.0000 0.01998  0.24232  0.85613  Biso   1.000  Nd
  O77      1.0000 0.06460  0.14450  0.80280  Biso   1.000  O
  O78      1.0000 0.08010  0.07690  0.71810  Biso   1.000  O
  O79      1.0000 0.91480  0.37670  0.71140  Biso   1.000  O
  O80      1.0000 0.96620  0.33200  0.79710  Biso   1.000  O
  N20      1.0000 0.00450  0.23060  0.73080  Biso   1.000  N
  C134     1.0000 0.05990  0.12940  0.74260  Biso   1.000  C
  C135     1.0000 0.02700  0.17790  0.69870  Biso   1.000  C
  C136     1.0000 0.02280  0.17120  0.63230  Biso   1.000  C
  C137     1.0000 0.99260  0.21990  0.59590  Biso   1.000  C
  C138     1.0000 0.96860  0.27440  0.62870  Biso   1.000  C
  C139     1.0000 0.97470  0.27840  0.69590  Biso   1.000  C
  C140     1.0000 0.94980  0.33370  0.73690  Biso   1.000  C
  Nd21     1.0000 0.64387  0.98002  0.74232  Biso   1.000  Nd
  O81      1.0000 0.69720  0.93540  0.64450  Biso   1.000  O
  O82      1.0000 0.78190  0.91990  0.57690  Biso   1.000  O
  O83      1.0000 0.78860  0.08520  0.87670  Biso   1.000  O
  O84      1.0000 0.70290  0.03380  0.83200  Biso   1.000  O
  N21      1.0000 0.76920  0.99550  0.73060  Biso   1.000  N
  C141     1.0000 0.75740  0.94010  0.62940  Biso   1.000  C
  C142     1.0000 0.80130  0.97300  0.67790  Biso   1.000  C
  C143     1.0000 0.86770  0.97720  0.67120  Biso   1.000  C
  C144     1.0000 0.90410  0.00740  0.71990  Biso   1.000  C
  C145     1.0000 0.87130  0.03140  0.77440  Biso   1.000  C
  C146     1.0000 0.80410  0.02530  0.77840  Biso   1.000  C
  C147     1.0000 0.76310  0.05020  0.83370  Biso   1.000  C
  Nd22     1.0000 0.35613  0.48002  0.75768  Biso   1.000  Nd
  O85      1.0000 0.30280  0.43540  0.85550  Biso   1.000  O
  O86      1.0000 0.21810  0.41990  0.92310  Biso   1.000  O
  O87      1.0000 0.21140  0.58520  0.62330  Biso   1.000  O
  O88      1.0000 0.29710  0.53380  0.66800  Biso   1.000  O
  N22      1.0000 0.23080  0.49550  0.76940  Biso   1.000  N
  C148     1.0000 0.24260  0.44010  0.87060  Biso   1.000  C
  C149     1.0000 0.19870  0.47300  0.82210  Biso   1.000  C
  C150     1.0000 0.13230  0.47720  0.82880  Biso   1.000  C
  C151     1.0000 0.09590  0.50740  0.78010  Biso   1.000  C
  C152     1.0000 0.12870  0.53140  0.72560  Biso   1.000  C
  C153     1.0000 0.19590  0.52530  0.72160  Biso   1.000  C
  C154     1.0000 0.23690  0.55020  0.66630  Biso   1.000  C
  Nd23     1.0000 0.14387  0.51998  0.25768  Biso   1.000  Nd
  O89      1.0000 0.19720  0.56460  0.35550  Biso   1.000  O
  O90      1.0000 0.28190  0.58010  0.42310  Biso   1.000  O
  O91      1.0000 0.28860  0.41480  0.12330  Biso   1.000  O
  O92      1.0000 0.20290  0.46620  0.16800  Biso   1.000  O
  N23      1.0000 0.26920  0.50450  0.26940  Biso   1.000  N
  C155     1.0000 0.25740  0.55990  0.37060  Biso   1.000  C
  C156     1.0000 0.30130  0.52700  0.32210  Biso   1.000  C
  C157     1.0000 0.36770  0.52280  0.32880  Biso   1.000  C
  C158     1.0000 0.40410  0.49260  0.28010  Biso   1.000  C
  C159     1.0000 0.37130  0.46860  0.22560  Biso   1.000  C
  C160     1.0000 0.30410  0.47470  0.22160  Biso   1.000  C
  C161     1.0000 0.26310  0.44980  0.16630  Biso   1.000  C
  Nd24     1.0000 0.85613  0.01998  0.24232  Biso   1.000  Nd
  O93      1.0000 0.80280  0.06460  0.14450  Biso   1.000  O
  O94      1.0000 0.71810  0.08010  0.07690  Biso   1.000  O
  O95      1.0000 0.71140  0.91480  0.37670  Biso   1.000  O
  O96      1.0000 0.79710  0.96620  0.33200  Biso   1.000  O
  N24      1.0000 0.73080  0.00450  0.23060  Biso   1.000  N
  C162     1.0000 0.74260  0.05990  0.12940  Biso   1.000  C
  C163     1.0000 0.69870  0.02700  0.17790  Biso   1.000  C
  C164     1.0000 0.63230  0.02280  0.17120  Biso   1.000  C
  C165     1.0000 0.59590  0.99260  0.21990  Biso   1.000  C
  C166     1.0000 0.62870  0.96860  0.27440  Biso   1.000  C
  C167     1.0000 0.69590  0.97470  0.27840  Biso   1.000  C
  C168     1.0000 0.73690  0.94980  0.33370  Biso   1.000  C
