data_image0
_cell_length_a       9.2571
_cell_length_b       11.823
_cell_length_c       16.861
_cell_angle_alpha    90
_cell_angle_beta     90
_cell_angle_gamma    90

_symmetry_space_group_name_H-M    "P 1"
_symmetry_int_tables_number       1

loop_
  _symmetry_equiv_pos_as_xyz
  'x, y, z'

loop_
  _atom_site_label
  _atom_site_occupancy
  _atom_site_fract_x
  _atom_site_fract_y
  _atom_site_fract_z
  _atom_site_thermal_displace_type
  _atom_site_B_iso_or_equiv
  _atom_site_type_symbol
  Co1      1.0000 0.83368  0.54162  0.11346  Biso   1.000  Co
  C1       1.0000 0.81150  0.38280  0.11190  Biso   1.000  C
  N1       1.0000 0.64980  0.54610  0.96267  Biso   1.000  N
  N2       1.0000 0.88340  0.79640  0.11489  Biso   1.000  N
  C2       1.0000 0.86080  0.70130  0.11429  Biso   1.000  C
  C3       1.0000 0.66140  0.55970  0.17292  Biso   1.000  C
  C4       1.0000 0.01070  0.52660  0.05774  Biso   1.000  C
  C5       1.0000 0.72290  0.54790  0.01789  Biso   1.000  C
  C6       1.0000 0.93090  0.52490  0.21232  Biso   1.000  C
  N3       1.0000 0.80540  0.28600  0.11100  Biso   1.000  N
  N4       1.0000 0.97930  0.50920  0.27326  Biso   1.000  N
  N5       1.0000 0.55910  0.57060  0.21013  Biso   1.000  N
  N6       1.0000 0.11990  0.51930  0.02574  Biso   1.000  N
  Li1      1.0000 0.47660  0.54900  0.88460  Biso   1.000  Li
  Co2      1.0000 0.66632  0.45838  0.61346  Biso   1.000  Co
  C7       1.0000 0.68850  0.61720  0.61190  Biso   1.000  C
  N7       1.0000 0.85020  0.45390  0.46267  Biso   1.000  N
  N8       1.0000 0.61660  0.20360  0.61489  Biso   1.000  N
  C8       1.0000 0.63920  0.29870  0.61429  Biso   1.000  C
  C9       1.0000 0.83860  0.44030  0.67292  Biso   1.000  C
  C10      1.0000 0.48930  0.47340  0.55774  Biso   1.000  C
  C11      1.0000 0.77710  0.45210  0.51789  Biso   1.000  C
  C12      1.0000 0.56910  0.47510  0.71232  Biso   1.000  C
  N9       1.0000 0.69460  0.71400  0.61100  Biso   1.000  N
  N10      1.0000 0.52070  0.49080  0.77326  Biso   1.000  N
  N11      1.0000 0.94090  0.42940  0.71013  Biso   1.000  N
  N12      1.0000 0.38010  0.48070  0.52574  Biso   1.000  N
  Li2      1.0000 0.02340  0.45100  0.38460  Biso   1.000  Li
  Co3      1.0000 0.16632  0.04162  0.38654  Biso   1.000  Co
  C13      1.0000 0.18850  0.88280  0.38810  Biso   1.000  C
  N13      1.0000 0.35020  0.04610  0.53733  Biso   1.000  N
  N14      1.0000 0.11660  0.29640  0.38511  Biso   1.000  N
  C14      1.0000 0.13920  0.20130  0.38571  Biso   1.000  C
  C15      1.0000 0.33860  0.05970  0.32708  Biso   1.000  C
  C16      1.0000 0.98930  0.02660  0.44226  Biso   1.000  C
  C17      1.0000 0.27710  0.04790  0.48211  Biso   1.000  C
  C18      1.0000 0.06910  0.02490  0.28768  Biso   1.000  C
  N15      1.0000 0.19460  0.78600  0.38900  Biso   1.000  N
  N16      1.0000 0.02070  0.00920  0.22674  Biso   1.000  N
  N17      1.0000 0.44090  0.07060  0.28987  Biso   1.000  N
  N18      1.0000 0.88010  0.01930  0.47426  Biso   1.000  N
  Li3      1.0000 0.52340  0.04900  0.61540  Biso   1.000  Li
  Co4      1.0000 0.33368  0.95838  0.88654  Biso   1.000  Co
  C19      1.0000 0.31150  0.11720  0.88810  Biso   1.000  C
  N19      1.0000 0.14980  0.95390  0.03733  Biso   1.000  N
  N20      1.0000 0.38340  0.70360  0.88511  Biso   1.000  N
  C20      1.0000 0.36080  0.79870  0.88571  Biso   1.000  C
  C21      1.0000 0.16140  0.94030  0.82708  Biso   1.000  C
  C22      1.0000 0.51070  0.97340  0.94226  Biso   1.000  C
  C23      1.0000 0.22290  0.95210  0.98211  Biso   1.000  C
  C24      1.0000 0.43090  0.97510  0.78768  Biso   1.000  C
  N21      1.0000 0.30540  0.21400  0.88900  Biso   1.000  N
  N22      1.0000 0.47930  0.99080  0.72674  Biso   1.000  N
  N23      1.0000 0.05910  0.92940  0.78987  Biso   1.000  N
  N24      1.0000 0.61990  0.98070  0.97426  Biso   1.000  N
  Li4      1.0000 0.97660  0.95100  0.11540  Biso   1.000  Li
