data_image0
_cell_length_a       9.057
_cell_length_b       12.606
_cell_length_c       14.623
_cell_angle_alpha    89.547
_cell_angle_beta     86.53
_cell_angle_gamma    72.512

_symmetry_space_group_name_H-M    "P 1"
_symmetry_int_tables_number       1

loop_
  _symmetry_equiv_pos_as_xyz
  'x, y, z'

loop_
  _atom_site_label
  _atom_site_occupancy
  _atom_site_fract_x
  _atom_site_fract_y
  _atom_site_fract_z
  _atom_site_thermal_displace_type
  _atom_site_B_iso_or_equiv
  _atom_site_type_symbol
  Fe1      1.0000 0.18119  0.06253  0.23973  Biso   1.000  Fe
  Al1      1.0000 0.03642  0.80503  0.39430  Biso   1.000  Al
  Al2      1.0000 0.04650  0.36635  0.11213  Biso   1.000  Al
  Al3      1.0000 0.05890  0.85310  0.12075  Biso   1.000  Al
  Al4      1.0000 0.68940  0.19076  0.25222  Biso   1.000  Al
  Al5      1.0000 0.06260  0.37223  0.36106  Biso   1.000  Al
  Al6      1.0000 0.68050  0.68620  0.26290  Biso   1.000  Al
  P1       1.0000 0.32880  0.23759  0.21860  Biso   1.000  P
  P2       1.0000 0.76730  0.92576  0.27050  Biso   1.000  P
  P3       1.0000 0.86180  0.61968  0.43349  Biso   1.000  P
  P4       1.0000 0.78630  0.42220  0.21626  Biso   1.000  P
  P5       1.0000 0.31850  0.80577  0.25652  Biso   1.000  P
  P6       1.0000 0.96080  0.63374  0.10442  Biso   1.000  P
  P7       1.0000 0.96230  0.13032  0.09852  Biso   1.000  P
  P8       1.0000 0.91730  0.17070  0.40200  Biso   1.000  P
  O1       1.0000 0.25280  0.31970  0.14380  Biso   1.000  O
  O2       1.0000 0.95770  0.38910  0.24570  Biso   1.000  O
  O3       1.0000 0.71590  0.67570  0.38220  Biso   1.000  O
  O4       1.0000 0.94780  0.28250  0.40480  Biso   1.000  O
  O5       1.0000 0.06050  0.51320  0.12320  Biso   1.000  O
  O6       1.0000 0.79840  0.15070  0.14350  Biso   1.000  O
  O7       1.0000 0.22280  0.25830  0.30620  Biso   1.000  O
  O8       1.0000 0.90770  0.49540  0.41390  Biso   1.000  O
  O9       1.0000 0.07100  0.01790  0.13390  Biso   1.000  O
  O10      1.0000 0.24760  0.81840  0.16400  Biso   1.000  O
  O11      1.0000 0.03570  0.21780  0.12600  Biso   1.000  O
  O12      1.0000 0.68780  0.53350  0.25440  Biso   1.000  O
  O13      1.0000 0.90000  0.64330  0.00920  Biso   1.000  O
  O14      1.0000 0.82120  0.64460  0.53560  Biso   1.000  O
  O15      1.0000 0.82000  0.42190  0.11080  Biso   1.000  O
  O16      1.0000 0.70630  0.33770  0.24680  Biso   1.000  O
  O17      1.0000 0.66870  0.04540  0.26770  Biso   1.000  O
  O18      1.0000 0.99510  0.66490  0.39800  Biso   1.000  O
  O19      1.0000 0.66120  0.85140  0.26600  Biso   1.000  O
  O20      1.0000 0.48660  0.25100  0.23360  Biso   1.000  O
  O21      1.0000 0.95350  0.12060  0.99590  Biso   1.000  O
  O22      1.0000 0.34900  0.11740  0.18750  Biso   1.000  O
  O23      1.0000 0.06460  0.70810  0.11480  Biso   1.000  O
  O24      1.0000 0.88300  0.89900  0.18840  Biso   1.000  O
  O25      1.0000 0.84930  0.90440  0.36000  Biso   1.000  O
  O26      1.0000 0.82130  0.66990  0.17210  Biso   1.000  O
  O27      1.0000 0.75370  0.18550  0.37020  Biso   1.000  O
  O28      1.0000 0.48140  0.72410  0.24370  Biso   1.000  O
  O29      1.0000 0.91950  0.12630  0.50110  Biso   1.000  O
  O30      1.0000 0.03850  0.08570  0.34250  Biso   1.000  O
  O31      1.0000 0.22220  0.75860  0.32470  Biso   1.000  O
  O32      1.0000 0.32030  0.91880  0.28830  Biso   1.000  O
  Fe2      1.0000 0.96358  0.19497  0.60570  Biso   1.000  Fe
  Fe3      1.0000 0.81881  0.93747  0.76027  Biso   1.000  Fe
  Al7      1.0000 0.95350  0.63365  0.88787  Biso   1.000  Al
  Al8      1.0000 0.94110  0.14690  0.87925  Biso   1.000  Al
  Al9      1.0000 0.31060  0.80924  0.74778  Biso   1.000  Al
  Al10     1.0000 0.93740  0.62777  0.63894  Biso   1.000  Al
  Al11     1.0000 0.31950  0.31380  0.73710  Biso   1.000  Al
  P9       1.0000 0.67120  0.76241  0.78140  Biso   1.000  P
  P10      1.0000 0.23270  0.07424  0.72950  Biso   1.000  P
  P11      1.0000 0.13820  0.38032  0.56651  Biso   1.000  P
  P12      1.0000 0.21370  0.57780  0.78374  Biso   1.000  P
  P13      1.0000 0.68150  0.19423  0.74348  Biso   1.000  P
  P14      1.0000 0.03920  0.36626  0.89558  Biso   1.000  P
  P15      1.0000 0.03770  0.86968  0.90148  Biso   1.000  P
  P16      1.0000 0.08270  0.82930  0.59800  Biso   1.000  P
  O33      1.0000 0.74720  0.68030  0.85620  Biso   1.000  O
  O34      1.0000 0.04230  0.61090  0.75430  Biso   1.000  O
  O35      1.0000 0.28410  0.32430  0.61780  Biso   1.000  O
  O36      1.0000 0.05220  0.71750  0.59520  Biso   1.000  O
  O37      1.0000 0.93950  0.48680  0.87680  Biso   1.000  O
  O38      1.0000 0.20160  0.84930  0.85650  Biso   1.000  O
  O39      1.0000 0.77720  0.74170  0.69380  Biso   1.000  O
  O40      1.0000 0.09230  0.50460  0.58610  Biso   1.000  O
  O41      1.0000 0.92900  0.98210  0.86610  Biso   1.000  O
  O42      1.0000 0.75240  0.18160  0.83600  Biso   1.000  O
  O43      1.0000 0.96430  0.78220  0.87400  Biso   1.000  O
  O44      1.0000 0.31220  0.46650  0.74560  Biso   1.000  O
  O45      1.0000 0.10000  0.35670  0.99080  Biso   1.000  O
  O46      1.0000 0.17880  0.35540  0.46440  Biso   1.000  O
  O47      1.0000 0.18000  0.57810  0.88920  Biso   1.000  O
  O48      1.0000 0.29370  0.66230  0.75320  Biso   1.000  O
  O49      1.0000 0.33130  0.95460  0.73230  Biso   1.000  O
  O50      1.0000 0.00490  0.33510  0.60200  Biso   1.000  O
  O51      1.0000 0.33880  0.14860  0.73400  Biso   1.000  O
  O52      1.0000 0.51340  0.74900  0.76640  Biso   1.000  O
  O53      1.0000 0.04650  0.87940  0.00410  Biso   1.000  O
  O54      1.0000 0.65100  0.88260  0.81250  Biso   1.000  O
  O55      1.0000 0.93540  0.29190  0.88520  Biso   1.000  O
  O56      1.0000 0.11700  0.10100  0.81160  Biso   1.000  O
  O57      1.0000 0.15070  0.09560  0.64000  Biso   1.000  O
  O58      1.0000 0.17870  0.33010  0.82790  Biso   1.000  O
  O59      1.0000 0.24630  0.81450  0.62980  Biso   1.000  O
  O60      1.0000 0.51860  0.27590  0.75630  Biso   1.000  O
  O61      1.0000 0.08050  0.87370  0.49890  Biso   1.000  O
  O62      1.0000 0.96150  0.91430  0.65750  Biso   1.000  O
  O63      1.0000 0.77780  0.24140  0.67530  Biso   1.000  O
  O64      1.0000 0.67970  0.08120  0.71170  Biso   1.000  O
