data_image0
_cell_length_a       13.8475
_cell_length_b       15.1719
_cell_length_c       16.477
_cell_angle_alpha    75.798
_cell_angle_beta     81.449
_cell_angle_gamma    63.074

_symmetry_space_group_name_H-M    "P 1"
_symmetry_int_tables_number       1

loop_
  _symmetry_equiv_pos_as_xyz
  'x, y, z'

loop_
  _atom_site_label
  _atom_site_occupancy
  _atom_site_fract_x
  _atom_site_fract_y
  _atom_site_fract_z
  _atom_site_thermal_displace_type
  _atom_site_B_iso_or_equiv
  _atom_site_type_symbol
  Ag1      1.0000 0.76213  0.08711  0.26010  Biso   1.000  Ag
  Ag2      1.0000 0.66980  0.53819  0.69512  Biso   1.000  Ag
  Ag3      1.0000 0.42727  0.09333  0.59894  Biso   1.000  Ag
  Ag4      1.0000 0.33509  0.53300  0.02744  Biso   1.000  Ag
  Ag5      1.0000 0.91235  0.91373  0.07748  Biso   1.000  Ag
  Ag6      1.0000 0.99994  0.46330  0.64286  Biso   1.000  Ag
  C1       1.0000 0.72390  0.67530  0.46770  Biso   1.000  C
  C2       1.0000 0.80930  0.58900  0.50630  Biso   1.000  C
  C3       1.0000 0.78140  0.77370  0.51380  Biso   1.000  C
  H1       1.0000 0.77530  0.83660  0.51630  Biso   1.000  H
  C4       1.0000 0.86440  0.68740  0.55450  Biso   1.000  C
  H2       1.0000 0.91110  0.69430  0.58500  Biso   1.000  H
  C5       1.0000 0.83200  0.48080  0.50350  Biso   1.000  C
  C6       1.0000 0.63980  0.67230  0.42000  Biso   1.000  C
  C7       1.0000 0.83230  0.76060  0.27600  Biso   1.000  C
  C8       1.0000 0.78950  0.86470  0.25400  Biso   1.000  C
  C9       1.0000 0.91150  0.86440  0.33280  Biso   1.000  C
  H3       1.0000 0.93960  0.89830  0.35490  Biso   1.000  H
  C10      1.0000 0.95670  0.76030  0.35310  Biso   1.000  C
  H4       1.0000 0.01610  0.72550  0.38690  Biso   1.000  H
  C11      1.0000 0.78510  0.70190  0.24720  Biso   1.000  C
  C12      1.0000 0.69440  0.92990  0.19560  Biso   1.000  C
  C13      1.0000 0.51390  0.76260  0.62040  Biso   1.000  C
  C14      1.0000 0.46350  0.86800  0.60070  Biso   1.000  C
  C15      1.0000 0.63580  0.76950  0.69710  Biso   1.000  C
  H5       1.0000 0.69580  0.73740  0.73040  Biso   1.000  H
  C16      1.0000 0.58510  0.87280  0.67770  Biso   1.000  C
  H6       1.0000 0.61140  0.90940  0.69820  Biso   1.000  H
  C17      1.0000 0.47280  0.69940  0.59240  Biso   1.000  C
  C18      1.0000 0.36400  0.93070  0.54600  Biso   1.000  C
  C19      1.0000 0.86450  0.40710  0.81200  Biso   1.000  C
  C20      1.0000 0.94600  0.31990  0.85680  Biso   1.000  C
  C21      1.0000 0.80540  0.31080  0.76540  Biso   1.000  C
  H7       1.0000 0.75730  0.30500  0.73550  Biso   1.000  H
  C22      1.0000 0.88700  0.22440  0.80850  Biso   1.000  C
  H8       1.0000 0.89360  0.16160  0.80510  Biso   1.000  H
  C23      1.0000 0.84790  0.51420  0.81240  Biso   1.000  C
  C24      1.0000 0.02260  0.32770  0.90870  Biso   1.000  C
  C25      1.0000 0.83410  0.24390  0.04760  Biso   1.000  C
  C26      1.0000 0.88770  0.13840  0.06550  Biso   1.000  C
  C27      1.0000 0.71570  0.23690  0.96810  Biso   1.000  C
  H9       1.0000 0.65640  0.26890  0.93410  Biso   1.000  H
  C28      1.0000 0.76860  0.13400  0.98540  Biso   1.000  C
  H10      1.0000 0.74460  0.09750  0.96250  Biso   1.000  H
  C29      1.0000 0.86700  0.30980  0.08400  Biso   1.000  C
  C30      1.0000 0.98670  0.07620  0.11940  Biso   1.000  C
  C31      1.0000 0.53360  0.40700  0.15140  Biso   1.000  C
  C32      1.0000 0.61650  0.31980  0.19410  Biso   1.000  C
  C33      1.0000 0.47980  0.30790  0.10260  Biso   1.000  C
  H11      1.0000 0.43480  0.30170  0.06990  Biso   1.000  H
  C34      1.0000 0.55890  0.22260  0.14640  Biso   1.000  C
  H12      1.0000 0.56340  0.15980  0.14560  Biso   1.000  H
  C35      1.0000 0.51320  0.51500  0.15050  Biso   1.000  C
  C36      1.0000 0.69890  0.32190  0.24330  Biso   1.000  C
  Gd1      1.0000 0.75585  0.48131  0.32321  Biso   1.000  Gd
  Gd2      1.0000 0.13212  0.20129  0.10366  Biso   1.000  Gd
  N1       1.0000 0.87960  0.59530  0.55160  Biso   1.000  N
  N2       1.0000 0.71040  0.76850  0.47140  Biso   1.000  N
  N3       1.0000 0.91680  0.70890  0.32530  Biso   1.000  N
  N4       1.0000 0.82860  0.91740  0.28220  Biso   1.000  N
  N5       1.0000 0.62900  0.22750  0.18990  Biso   1.000  N
  N6       1.0000 0.46710  0.39900  0.10630  Biso   1.000  N
  N7       1.0000 0.49860  0.92250  0.62980  Biso   1.000  N
  N8       1.0000 0.60070  0.71410  0.66910  Biso   1.000  N
  N9       1.0000 0.79590  0.40160  0.76700  Biso   1.000  N
  N10      1.0000 0.95550  0.22860  0.85410  Biso   1.000  N
  N11      1.0000 0.74780  0.29250  0.99930  Biso   1.000  N
  N12      1.0000 0.85420  0.08370  0.03440  Biso   1.000  N
  O1       1.0000 0.87070  0.45260  0.43330  Biso   1.000  O
  O2       1.0000 0.81890  0.42800  0.56890  Biso   1.000  O
  O3       1.0000 0.64940  0.58440  0.42220  Biso   1.000  O
  O4       1.0000 0.57520  0.75090  0.38070  Biso   1.000  O
  O5       1.0000 0.80920  0.61350  0.28920  Biso   1.000  O
  O6       1.0000 0.73070  0.74270  0.18510  Biso   1.000  O
  O7       1.0000 0.60100  0.95190  0.22880  Biso   1.000  O
  O8       1.0000 0.71880  0.96030  0.12200  Biso   1.000  O
  O9       1.0000 0.06990  0.24990  0.96470  Biso   1.000  O
  O10      1.0000 0.03130  0.40650  0.89290  Biso   1.000  O
  O11      1.0000 0.78950  0.55050  0.87290  Biso   1.000  O
  O12      1.0000 0.88530  0.55740  0.75160  Biso   1.000  O
  O13      1.0000 0.94690  0.26320  0.13000  Biso   1.000  O
  O14      1.0000 0.81240  0.40130  0.06800  Biso   1.000  O
  O15      1.0000 0.07520  0.07660  0.08800  Biso   1.000  O
  O16      1.0000 0.97040  0.02900  0.18840  Biso   1.000  O
  O17      1.0000 0.77800  0.24120  0.26800  Biso   1.000  O
  O18      1.0000 0.68180  0.40840  0.25330  Biso   1.000  O
  O19      1.0000 0.45110  0.55590  0.20710  Biso   1.000  O
  O20      1.0000 0.55610  0.55400  0.09020  Biso   1.000  O
  O21      1.0000 0.53150  0.60710  0.60270  Biso   1.000  O
  O22      1.0000 0.38100  0.74510  0.56250  Biso   1.000  O
  O23      1.0000 0.27480  0.96540  0.58330  Biso   1.000  O
  O24      1.0000 0.38260  0.94550  0.46860  Biso   1.000  O
  O25      1.0000 0.69360  0.38470  0.43560  Biso   1.000  O
  H13      1.0000 0.74830  0.32770  0.44590  Biso   1.000  H
  H14      1.0000 0.69120  0.41880  0.47040  Biso   1.000  H
  Ag7      1.0000 0.23787  0.91289  0.73990  Biso   1.000  Ag
  Ag8      1.0000 0.33020  0.46181  0.30488  Biso   1.000  Ag
  Ag9      1.0000 0.57273  0.90667  0.40106  Biso   1.000  Ag
  Ag10     1.0000 0.66491  0.46700  0.97256  Biso   1.000  Ag
  Ag11     1.0000 0.08765  0.08627  0.92252  Biso   1.000  Ag
  Ag12     1.0000 0.00006  0.53670  0.35714  Biso   1.000  Ag
  C37      1.0000 0.27610  0.32470  0.53230  Biso   1.000  C
  C38      1.0000 0.19070  0.41100  0.49370  Biso   1.000  C
  C39      1.0000 0.21860  0.22630  0.48620  Biso   1.000  C
  H15      1.0000 0.22470  0.16340  0.48370  Biso   1.000  H
  C40      1.0000 0.13560  0.31260  0.44550  Biso   1.000  C
  H16      1.0000 0.08890  0.30570  0.41500  Biso   1.000  H
  C41      1.0000 0.16800  0.51920  0.49650  Biso   1.000  C
  C42      1.0000 0.36020  0.32770  0.58000  Biso   1.000  C
  C43      1.0000 0.16770  0.23940  0.72400  Biso   1.000  C
  C44      1.0000 0.21050  0.13530  0.74600  Biso   1.000  C
  C45      1.0000 0.08850  0.13560  0.66720  Biso   1.000  C
  H17      1.0000 0.06040  0.10170  0.64510  Biso   1.000  H
  C46      1.0000 0.04330  0.23970  0.64690  Biso   1.000  C
  H18      1.0000 0.98390  0.27450  0.61310  Biso   1.000  H
  C47      1.0000 0.21490  0.29810  0.75280  Biso   1.000  C
  C48      1.0000 0.30560  0.07010  0.80440  Biso   1.000  C
  C49      1.0000 0.48610  0.23740  0.37960  Biso   1.000  C
  C50      1.0000 0.53650  0.13200  0.39930  Biso   1.000  C
  C51      1.0000 0.36420  0.23050  0.30290  Biso   1.000  C
  H19      1.0000 0.30420  0.26260  0.26960  Biso   1.000  H
  C52      1.0000 0.41490  0.12720  0.32230  Biso   1.000  C
  H20      1.0000 0.38860  0.09060  0.30180  Biso   1.000  H
  C53      1.0000 0.52720  0.30060  0.40760  Biso   1.000  C
  C54      1.0000 0.63600  0.06930  0.45400  Biso   1.000  C
  C55      1.0000 0.13550  0.59290  0.18800  Biso   1.000  C
  C56      1.0000 0.05400  0.68010  0.14320  Biso   1.000  C
  C57      1.0000 0.19460  0.68920  0.23460  Biso   1.000  C
  H21      1.0000 0.24270  0.69500  0.26450  Biso   1.000  H
  C58      1.0000 0.11300  0.77560  0.19150  Biso   1.000  C
  H22      1.0000 0.10640  0.83840  0.19490  Biso   1.000  H
  C59      1.0000 0.15210  0.48580  0.18760  Biso   1.000  C
  C60      1.0000 0.97740  0.67230  0.09130  Biso   1.000  C
  C61      1.0000 0.16590  0.75610  0.95240  Biso   1.000  C
  C62      1.0000 0.11230  0.86160  0.93450  Biso   1.000  C
  C63      1.0000 0.28430  0.76310  0.03190  Biso   1.000  C
  H23      1.0000 0.34360  0.73110  0.06590  Biso   1.000  H
  C64      1.0000 0.23140  0.86600  0.01460  Biso   1.000  C
  H24      1.0000 0.25540  0.90250  0.03750  Biso   1.000  H
  C65      1.0000 0.13300  0.69020  0.91600  Biso   1.000  C
  C66      1.0000 0.01330  0.92380  0.88060  Biso   1.000  C
  C67      1.0000 0.46640  0.59300  0.84860  Biso   1.000  C
  C68      1.0000 0.38350  0.68020  0.80590  Biso   1.000  C
  C69      1.0000 0.52020  0.69210  0.89740  Biso   1.000  C
  H25      1.0000 0.56520  0.69830  0.93010  Biso   1.000  H
  C70      1.0000 0.44110  0.77740  0.85360  Biso   1.000  C
  H26      1.0000 0.43660  0.84020  0.85440  Biso   1.000  H
  C71      1.0000 0.48680  0.48500  0.84950  Biso   1.000  C
  C72      1.0000 0.30110  0.67810  0.75670  Biso   1.000  C
  Gd3      1.0000 0.24415  0.51869  0.67679  Biso   1.000  Gd
  Gd4      1.0000 0.86788  0.79871  0.89634  Biso   1.000  Gd
  N13      1.0000 0.12040  0.40470  0.44840  Biso   1.000  N
  N14      1.0000 0.28960  0.23150  0.52860  Biso   1.000  N
  N15      1.0000 0.08320  0.29110  0.67470  Biso   1.000  N
  N16      1.0000 0.17140  0.08260  0.71780  Biso   1.000  N
  N17      1.0000 0.37100  0.77250  0.81010  Biso   1.000  N
  N18      1.0000 0.53290  0.60100  0.89370  Biso   1.000  N
  N19      1.0000 0.50140  0.07750  0.37020  Biso   1.000  N
  N20      1.0000 0.39930  0.28590  0.33090  Biso   1.000  N
  N21      1.0000 0.20410  0.59840  0.23300  Biso   1.000  N
  N22      1.0000 0.04450  0.77140  0.14590  Biso   1.000  N
  N23      1.0000 0.25220  0.70750  0.00070  Biso   1.000  N
  N24      1.0000 0.14580  0.91630  0.96560  Biso   1.000  N
  O26      1.0000 0.12930  0.54740  0.56670  Biso   1.000  O
  O27      1.0000 0.18110  0.57200  0.43110  Biso   1.000  O
  O28      1.0000 0.35060  0.41560  0.57780  Biso   1.000  O
  O29      1.0000 0.42480  0.24910  0.61930  Biso   1.000  O
  O30      1.0000 0.19080  0.38650  0.71080  Biso   1.000  O
  O31      1.0000 0.26930  0.25730  0.81490  Biso   1.000  O
  O32      1.0000 0.39900  0.04810  0.77120  Biso   1.000  O
  O33      1.0000 0.28120  0.03970  0.87800  Biso   1.000  O
  O34      1.0000 0.93010  0.75010  0.03530  Biso   1.000  O
  O35      1.0000 0.96870  0.59350  0.10710  Biso   1.000  O
  O36      1.0000 0.21050  0.44950  0.12710  Biso   1.000  O
  O37      1.0000 0.11470  0.44260  0.24840  Biso   1.000  O
  O38      1.0000 0.05310  0.73680  0.87000  Biso   1.000  O
  O39      1.0000 0.18760  0.59870  0.93200  Biso   1.000  O
  O40      1.0000 0.92480  0.92340  0.91200  Biso   1.000  O
  O41      1.0000 0.02960  0.97100  0.81160  Biso   1.000  O
  O42      1.0000 0.22200  0.75880  0.73200  Biso   1.000  O
  O43      1.0000 0.31820  0.59160  0.74670  Biso   1.000  O
  O44      1.0000 0.54890  0.44410  0.79290  Biso   1.000  O
  O45      1.0000 0.44390  0.44600  0.90980  Biso   1.000  O
  O46      1.0000 0.46850  0.39290  0.39730  Biso   1.000  O
  O47      1.0000 0.61900  0.25490  0.43750  Biso   1.000  O
  O48      1.0000 0.72520  0.03460  0.41670  Biso   1.000  O
  O49      1.0000 0.61740  0.05450  0.53140  Biso   1.000  O
  O50      1.0000 0.30640  0.61530  0.56440  Biso   1.000  O
  H27      1.0000 0.25170  0.67230  0.55410  Biso   1.000  H
  H28      1.0000 0.30880  0.58120  0.52960  Biso   1.000  H
