data_image0
_cell_length_a       21.6819
_cell_length_b       21.6819
_cell_length_c       7.0794
_cell_angle_alpha    90
_cell_angle_beta     90
_cell_angle_gamma    120

_symmetry_space_group_name_H-M    "P 1"
_symmetry_int_tables_number       1

loop_
  _symmetry_equiv_pos_as_xyz
  'x, y, z'

loop_
  _atom_site_label
  _atom_site_occupancy
  _atom_site_fract_x
  _atom_site_fract_y
  _atom_site_fract_z
  _atom_site_thermal_displace_type
  _atom_site_B_iso_or_equiv
  _atom_site_type_symbol
  Mn1      1.0000 0.60964  0.27167  0.14546  Biso   1.000  Mn
  O1       1.0000 0.65949  0.23870  0.95910  Biso   1.000  O
  O2       1.0000 0.64384  0.28230  0.59490  Biso   1.000  O
  O3       1.0000 0.59350  0.20226  0.37860  Biso   1.000  O
  C1       1.0000 0.63190  0.17980  0.87070  Biso   1.000  C
  C2       1.0000 0.61120  0.16490  0.68120  Biso   1.000  C
  C3       1.0000 0.57610  0.09580  0.61670  Biso   1.000  C
  C4       1.0000 0.56340  0.03860  0.71400  Biso   1.000  C
  C5       1.0000 0.58780  0.04980  0.89710  Biso   1.000  C
  C6       1.0000 0.61330  0.11440  0.98720  Biso   1.000  C
  C7       1.0000 0.61770  0.21910  0.54210  Biso   1.000  C
  H1       1.0000 0.58266  0.00968  0.96495  Biso   1.000  H
  H2       1.0000 0.62577  0.11883  0.11707  Biso   1.000  H
  H3       1.0000 0.56208  0.08548  0.48814  Biso   1.000  H
  Mn2      1.0000 0.72833  0.33797  0.81213  Biso   1.000  Mn
  O4       1.0000 0.76130  0.42079  0.62577  Biso   1.000  O
  O5       1.0000 0.71770  0.36154  0.26157  Biso   1.000  O
  O6       1.0000 0.79774  0.39124  0.04527  Biso   1.000  O
  C8       1.0000 0.82020  0.45210  0.53737  Biso   1.000  C
  C9       1.0000 0.83510  0.44630  0.34787  Biso   1.000  C
  C10      1.0000 0.90420  0.48030  0.28337  Biso   1.000  C
  C11      1.0000 0.96140  0.52480  0.38067  Biso   1.000  C
  C12      1.0000 0.95020  0.53800  0.56377  Biso   1.000  C
  C13      1.0000 0.88560  0.49890  0.65387  Biso   1.000  C
  C14      1.0000 0.78090  0.39860  0.20877  Biso   1.000  C
  H4       1.0000 0.99032  0.57298  0.63162  Biso   1.000  H
  H5       1.0000 0.88117  0.50694  0.78374  Biso   1.000  H
  H6       1.0000 0.91452  0.47660  0.15481  Biso   1.000  H
  Mn3      1.0000 0.66203  0.39036  0.47879  Biso   1.000  Mn
  O7       1.0000 0.57921  0.34051  0.29243  Biso   1.000  O
  O8       1.0000 0.63846  0.35616  0.92823  Biso   1.000  O
  O9       1.0000 0.60876  0.40650  0.71193  Biso   1.000  O
  C15      1.0000 0.54790  0.36810  0.20403  Biso   1.000  C
  C16      1.0000 0.55370  0.38880  0.01453  Biso   1.000  C
  C17      1.0000 0.51970  0.42390  0.95003  Biso   1.000  C
  C18      1.0000 0.47520  0.43660  0.04733  Biso   1.000  C
  C19      1.0000 0.46200  0.41220  0.23043  Biso   1.000  C
  C20      1.0000 0.50110  0.38670  0.32053  Biso   1.000  C
  C21      1.0000 0.60140  0.38230  0.87543  Biso   1.000  C
  H7       1.0000 0.42702  0.41734  0.29828  Biso   1.000  H
  H8       1.0000 0.49306  0.37423  0.45040  Biso   1.000  H
  H9       1.0000 0.52340  0.43792  0.82147  Biso   1.000  H
  Mn4      1.0000 0.27167  0.60964  0.85454  Biso   1.000  Mn
  O10      1.0000 0.23870  0.65949  0.04090  Biso   1.000  O
  O11      1.0000 0.28230  0.64384  0.40510  Biso   1.000  O
  O12      1.0000 0.20226  0.59350  0.62140  Biso   1.000  O
  C22      1.0000 0.17980  0.63190  0.12930  Biso   1.000  C
  C23      1.0000 0.16490  0.61120  0.31880  Biso   1.000  C
  C24      1.0000 0.09580  0.57610  0.38330  Biso   1.000  C
  C25      1.0000 0.03860  0.56340  0.28600  Biso   1.000  C
  C26      1.0000 0.04980  0.58780  0.10290  Biso   1.000  C
  C27      1.0000 0.11440  0.61330  0.01280  Biso   1.000  C
  C28      1.0000 0.21910  0.61770  0.45790  Biso   1.000  C
  H10      1.0000 0.00968  0.58266  0.03505  Biso   1.000  H
  H11      1.0000 0.11883  0.62577  0.88293  Biso   1.000  H
  H12      1.0000 0.08548  0.56208  0.51186  Biso   1.000  H
  Mn5      1.0000 0.33797  0.72833  0.18787  Biso   1.000  Mn
  O13      1.0000 0.42079  0.76130  0.37423  Biso   1.000  O
  O14      1.0000 0.36154  0.71770  0.73843  Biso   1.000  O
  O15      1.0000 0.39124  0.79774  0.95473  Biso   1.000  O
  C29      1.0000 0.45210  0.82020  0.46263  Biso   1.000  C
  C30      1.0000 0.44630  0.83510  0.65213  Biso   1.000  C
  C31      1.0000 0.48030  0.90420  0.71663  Biso   1.000  C
  C32      1.0000 0.52480  0.96140  0.61933  Biso   1.000  C
  C33      1.0000 0.53800  0.95020  0.43623  Biso   1.000  C
  C34      1.0000 0.49890  0.88560  0.34613  Biso   1.000  C
  C35      1.0000 0.39860  0.78090  0.79123  Biso   1.000  C
  H13      1.0000 0.57298  0.99032  0.36838  Biso   1.000  H
  H14      1.0000 0.50694  0.88117  0.21626  Biso   1.000  H
  H15      1.0000 0.47660  0.91452  0.84519  Biso   1.000  H
  Mn6      1.0000 0.39036  0.66203  0.52121  Biso   1.000  Mn
  O16      1.0000 0.34051  0.57921  0.70757  Biso   1.000  O
  O17      1.0000 0.35616  0.63846  0.07177  Biso   1.000  O
  O18      1.0000 0.40650  0.60876  0.28807  Biso   1.000  O
  C36      1.0000 0.36810  0.54790  0.79597  Biso   1.000  C
  C37      1.0000 0.38880  0.55370  0.98547  Biso   1.000  C
  C38      1.0000 0.42390  0.51970  0.04997  Biso   1.000  C
  C39      1.0000 0.43660  0.47520  0.95267  Biso   1.000  C
  C40      1.0000 0.41220  0.46200  0.76957  Biso   1.000  C
  C41      1.0000 0.38670  0.50110  0.67947  Biso   1.000  C
  C42      1.0000 0.38230  0.60140  0.12457  Biso   1.000  C
  H16      1.0000 0.41734  0.42702  0.70172  Biso   1.000  H
  H17      1.0000 0.37423  0.49306  0.54960  Biso   1.000  H
  H18      1.0000 0.43792  0.52340  0.17853  Biso   1.000  H
