data_JUCXEK_clean
_audit_creation_date              2014-07-02
_audit_creation_method            'Materials Studio'
_symmetry_space_group_name_H-M    'P1'
_symmetry_Int_Tables_number       1
_symmetry_cell_setting            triclinic
loop_
_symmetry_equiv_pos_as_xyz
  x,y,z
_cell_length_a                    11.3820
_cell_length_b                    11.3820
_cell_length_c                    11.7340
_cell_angle_alpha                 90.0000
_cell_angle_beta                  90.0000
_cell_angle_gamma                 120.0000
loop_
_atom_site_label
_atom_site_type_symbol
_atom_site_fract_x
_atom_site_fract_y
_atom_site_fract_z
_atom_site_U_iso_or_equiv
_atom_site_adp_type
_atom_site_occupancy
Np1    Np    0.50744   0.89648   0.75000   0.01267  Uiso   1.00
Np2    Np    0.38904   0.49256   0.75000   0.01267  Uiso   1.00
Np3    Np    0.10352   0.61096   0.75000   0.01267  Uiso   1.00
Np4    Np    0.49256   0.10352   0.25000   0.01267  Uiso   1.00
Np5    Np    0.61096   0.50744   0.25000   0.01267  Uiso   1.00
Np6    Np    0.89648   0.38904   0.25000   0.01267  Uiso   1.00
C1     C     0.49930   0.93690   0.47560   0.01267  Uiso   1.00
C2     C     0.43760   0.50070   0.47560   0.01267  Uiso   1.00
C3     C     0.06310   0.56240   0.47560   0.01267  Uiso   1.00
C4     C     0.50070   0.06310   0.97560   0.01267  Uiso   1.00
C5     C     0.56240   0.49930   0.97560   0.01267  Uiso   1.00
C6     C     0.93690   0.43760   0.97560   0.01267  Uiso   1.00
C7     C     0.50070   0.06310   0.52440   0.01267  Uiso   1.00
C8     C     0.56240   0.49930   0.52440   0.01267  Uiso   1.00
C9     C     0.93690   0.43760   0.52440   0.01267  Uiso   1.00
C10    C     0.49930   0.93690   0.02440   0.01267  Uiso   1.00
C11    C     0.43760   0.50070   0.02440   0.01267  Uiso   1.00
C12    C     0.06310   0.56240   0.02440   0.01267  Uiso   1.00
O1     O     0.50430   0.85600   0.54420   0.01267  Uiso   1.00
O2     O     0.51010   0.07600   0.63160   0.01267  Uiso   1.00
O3     O     0.35170   0.49570   0.54420   0.01267  Uiso   1.00
O4     O     0.56590   0.48990   0.63160   0.01267  Uiso   1.00
O5     O     0.14400   0.64830   0.54420   0.01267  Uiso   1.00
O6     O     0.92400   0.43410   0.63160   0.01267  Uiso   1.00
O7     O     0.49570   0.14400   0.04420   0.01267  Uiso   1.00
O8     O     0.48990   0.92400   0.13160   0.01267  Uiso   1.00
O9     O     0.64830   0.50430   0.04420   0.01267  Uiso   1.00
O10    O     0.43410   0.51010   0.13160   0.01267  Uiso   1.00
O11    O     0.85600   0.35170   0.04420   0.01267  Uiso   1.00
O12    O     0.07600   0.56590   0.13160   0.01267  Uiso   1.00
O13    O     0.49570   0.14400   0.45580   0.01267  Uiso   1.00
O14    O     0.48990   0.92400   0.36840   0.01267  Uiso   1.00
O15    O     0.64830   0.50430   0.45580   0.01267  Uiso   1.00
O16    O     0.43410   0.51010   0.36840   0.01267  Uiso   1.00
O17    O     0.85600   0.35170   0.45580   0.01267  Uiso   1.00
O18    O     0.07600   0.56590   0.36840   0.01267  Uiso   1.00
O19    O     0.50430   0.85600   0.95580   0.01267  Uiso   1.00
O20    O     0.51010   0.07600   0.86840   0.01267  Uiso   1.00
O21    O     0.35170   0.49570   0.95580   0.01267  Uiso   1.00
O22    O     0.56590   0.48990   0.86840   0.01267  Uiso   1.00
O23    O     0.14400   0.64830   0.95580   0.01267  Uiso   1.00
O24    O     0.92400   0.43410   0.86840   0.01267  Uiso   1.00
O25    O     0.31660   0.81290   0.75000   0.01267  Uiso   1.00
O26    O     0.49630   0.68340   0.75000   0.01267  Uiso   1.00
O27    O     0.18710   0.50370   0.75000   0.01267  Uiso   1.00
O28    O     0.68340   0.18710   0.25000   0.01267  Uiso   1.00
O29    O     0.50370   0.31660   0.25000   0.01267  Uiso   1.00
O30    O     0.81290   0.49630   0.25000   0.01267  Uiso   1.00
