data_image0
_cell_length_a       15.8956
_cell_length_b       15.8956
_cell_length_c       7.6028
_cell_angle_alpha    90
_cell_angle_beta     90
_cell_angle_gamma    120

_symmetry_space_group_name_H-M    "P 1"
_symmetry_int_tables_number       1

loop_
  _symmetry_equiv_pos_as_xyz
  'x, y, z'

loop_
  _atom_site_label
  _atom_site_occupancy
  _atom_site_fract_x
  _atom_site_fract_y
  _atom_site_fract_z
  _atom_site_thermal_displace_type
  _atom_site_B_iso_or_equiv
  _atom_site_type_symbol
  Gd1      1.0000 0.37021  0.18511  0.25515  Biso   1.000  Gd
  N1       1.0000 0.50120  0.15240  0.40140  Biso   1.000  N
  C1       1.0000 0.59340  0.18660  0.35070  Biso   1.000  C
  H1       1.0000 0.61950  0.23880  0.27300  Biso   1.000  H
  N2       1.0000 0.65130  0.15240  0.40170  Biso   1.000  N
  C2       1.0000 0.61240  0.07600  0.51140  Biso   1.000  C
  C3       1.0000 0.51790  0.03540  0.57080  Biso   1.000  C
  H2       1.0000 0.49160  0.98280  0.64760  Biso   1.000  H
  C4       1.0000 0.46360  0.07640  0.51080  Biso   1.000  C
  C5       1.0000 0.35700  0.03340  0.55810  Biso   1.000  C
  O1       1.0000 0.31327  0.07236  0.49250  Biso   1.000  O
  O2       1.0000 0.32137  0.96014  0.65560  Biso   1.000  O
  C6       1.0000 0.67630  0.03280  0.55760  Biso   1.000  C
  O3       1.0000 0.75941  0.07272  0.49230  Biso   1.000  O
  O4       1.0000 0.63888  0.96054  0.65540  Biso   1.000  O
  O5       1.0000 0.37450  0.18700  0.92360  Biso   1.000  O
  N3       1.0000 0.46570  0.23300  0.91350  Biso   1.000  N
  O6       1.0000 0.51105  0.25530  0.06180  Biso   1.000  O
  O7       1.0000 0.50830  0.25400  0.77410  Biso   1.000  O
  Gd2      1.0000 0.81489  0.18510  0.25515  Biso   1.000  Gd
  N4       1.0000 0.84760  0.34880  0.40140  Biso   1.000  N
  C7       1.0000 0.81340  0.40680  0.35070  Biso   1.000  C
  H3       1.0000 0.76120  0.38070  0.27300  Biso   1.000  H
  N5       1.0000 0.84760  0.49890  0.40170  Biso   1.000  N
  C8       1.0000 0.92400  0.53640  0.51140  Biso   1.000  C
  C9       1.0000 0.96460  0.48250  0.57080  Biso   1.000  C
  H4       1.0000 0.01720  0.50880  0.64760  Biso   1.000  H
  C10      1.0000 0.92360  0.38720  0.51080  Biso   1.000  C
  C11      1.0000 0.96660  0.32360  0.55810  Biso   1.000  C
  O8       1.0000 0.92764  0.24091  0.49250  Biso   1.000  O
  O9       1.0000 0.03986  0.36123  0.65560  Biso   1.000  O
  C12      1.0000 0.96720  0.64350  0.55760  Biso   1.000  C
  O10      1.0000 0.92728  0.68669  0.49230  Biso   1.000  O
  O11      1.0000 0.03946  0.67834  0.65540  Biso   1.000  O
  O12      1.0000 0.81300  0.18750  0.92360  Biso   1.000  O
  N6       1.0000 0.76700  0.23270  0.91350  Biso   1.000  N
  O13      1.0000 0.74470  0.25575  0.06180  Biso   1.000  O
  O14      1.0000 0.74600  0.25430  0.77410  Biso   1.000  O
  Gd3      1.0000 0.81490  0.62979  0.25515  Biso   1.000  Gd
  N7       1.0000 0.65120  0.49880  0.40140  Biso   1.000  N
  C13      1.0000 0.59320  0.40660  0.35070  Biso   1.000  C
  H5       1.0000 0.61930  0.38050  0.27300  Biso   1.000  H
  N8       1.0000 0.50110  0.34870  0.40170  Biso   1.000  N
  C14      1.0000 0.46360  0.38760  0.51140  Biso   1.000  C
  C15      1.0000 0.51750  0.48210  0.57080  Biso   1.000  C
  H6       1.0000 0.49120  0.50840  0.64760  Biso   1.000  H
  C16      1.0000 0.61280  0.53640  0.51080  Biso   1.000  C
  C17      1.0000 0.67640  0.64300  0.55810  Biso   1.000  C
  O15      1.0000 0.75909  0.68673  0.49250  Biso   1.000  O
  O16      1.0000 0.63877  0.67863  0.65560  Biso   1.000  O
  C18      1.0000 0.35650  0.32370  0.55760  Biso   1.000  C
  O17      1.0000 0.31331  0.24059  0.49230  Biso   1.000  O
  O18      1.0000 0.32166  0.36112  0.65540  Biso   1.000  O
  O19      1.0000 0.81250  0.62550  0.92360  Biso   1.000  O
  N9       1.0000 0.76730  0.53430  0.91350  Biso   1.000  N
  O20      1.0000 0.74425  0.48895  0.06180  Biso   1.000  O
  O21      1.0000 0.74570  0.49170  0.77410  Biso   1.000  O
  Gd4      1.0000 0.62979  0.81489  0.75515  Biso   1.000  Gd
  N10      1.0000 0.49880  0.84760  0.90140  Biso   1.000  N
  C19      1.0000 0.40660  0.81340  0.85070  Biso   1.000  C
  H7       1.0000 0.38050  0.76120  0.77300  Biso   1.000  H
  N11      1.0000 0.34870  0.84760  0.90170  Biso   1.000  N
  C20      1.0000 0.38760  0.92400  0.01140  Biso   1.000  C
  C21      1.0000 0.48210  0.96460  0.07080  Biso   1.000  C
  H8       1.0000 0.50840  0.01720  0.14760  Biso   1.000  H
  C22      1.0000 0.53640  0.92360  0.01080  Biso   1.000  C
  C23      1.0000 0.64300  0.96660  0.05810  Biso   1.000  C
  O22      1.0000 0.68673  0.92764  0.99250  Biso   1.000  O
  O23      1.0000 0.67863  0.03986  0.15560  Biso   1.000  O
  C24      1.0000 0.32370  0.96720  0.05760  Biso   1.000  C
  O24      1.0000 0.24059  0.92728  0.99230  Biso   1.000  O
  O25      1.0000 0.36112  0.03946  0.15540  Biso   1.000  O
  O26      1.0000 0.62550  0.81300  0.42360  Biso   1.000  O
  N12      1.0000 0.53430  0.76700  0.41350  Biso   1.000  N
  O27      1.0000 0.48895  0.74470  0.56180  Biso   1.000  O
  O28      1.0000 0.49170  0.74600  0.27410  Biso   1.000  O
  Gd5      1.0000 0.18511  0.81490  0.75515  Biso   1.000  Gd
  N13      1.0000 0.15240  0.65120  0.90140  Biso   1.000  N
  C25      1.0000 0.18660  0.59320  0.85070  Biso   1.000  C
  H9       1.0000 0.23880  0.61930  0.77300  Biso   1.000  H
  N14      1.0000 0.15240  0.50110  0.90170  Biso   1.000  N
  C26      1.0000 0.07600  0.46360  0.01140  Biso   1.000  C
  C27      1.0000 0.03540  0.51750  0.07080  Biso   1.000  C
  H10      1.0000 0.98280  0.49120  0.14760  Biso   1.000  H
  C28      1.0000 0.07640  0.61280  0.01080  Biso   1.000  C
  C29      1.0000 0.03340  0.67640  0.05810  Biso   1.000  C
  O29      1.0000 0.07236  0.75909  0.99250  Biso   1.000  O
  O30      1.0000 0.96014  0.63877  0.15560  Biso   1.000  O
  C30      1.0000 0.03280  0.35650  0.05760  Biso   1.000  C
  O31      1.0000 0.07272  0.31331  0.99230  Biso   1.000  O
  O32      1.0000 0.96054  0.32166  0.15540  Biso   1.000  O
  O33      1.0000 0.18700  0.81250  0.42360  Biso   1.000  O
  N15      1.0000 0.23300  0.76730  0.41350  Biso   1.000  N
  O34      1.0000 0.25530  0.74425  0.56180  Biso   1.000  O
  O35      1.0000 0.25400  0.74570  0.27410  Biso   1.000  O
  Gd6      1.0000 0.18510  0.37021  0.75515  Biso   1.000  Gd
  N16      1.0000 0.34880  0.50120  0.90140  Biso   1.000  N
  C31      1.0000 0.40680  0.59340  0.85070  Biso   1.000  C
  H11      1.0000 0.38070  0.61950  0.77300  Biso   1.000  H
  N17      1.0000 0.49890  0.65130  0.90170  Biso   1.000  N
  C32      1.0000 0.53640  0.61240  0.01140  Biso   1.000  C
  C33      1.0000 0.48250  0.51790  0.07080  Biso   1.000  C
  H12      1.0000 0.50880  0.49160  0.14760  Biso   1.000  H
  C34      1.0000 0.38720  0.46360  0.01080  Biso   1.000  C
  C35      1.0000 0.32360  0.35700  0.05810  Biso   1.000  C
  O36      1.0000 0.24091  0.31327  0.99250  Biso   1.000  O
  O37      1.0000 0.36123  0.32137  0.15560  Biso   1.000  O
  C36      1.0000 0.64350  0.67630  0.05760  Biso   1.000  C
  O38      1.0000 0.68669  0.75941  0.99230  Biso   1.000  O
  O39      1.0000 0.67834  0.63888  0.15540  Biso   1.000  O
  O40      1.0000 0.18750  0.37450  0.42360  Biso   1.000  O
  N18      1.0000 0.23270  0.46570  0.41350  Biso   1.000  N
  O41      1.0000 0.25575  0.51105  0.56180  Biso   1.000  O
  O42      1.0000 0.25430  0.50830  0.27410  Biso   1.000  O
