data_image0
_cell_length_a       14.1129
_cell_length_b       14.7903
_cell_length_c       21.1602
_cell_angle_alpha    90
_cell_angle_beta     107.645
_cell_angle_gamma    90

_symmetry_space_group_name_H-M    "P 1"
_symmetry_int_tables_number       1

loop_
  _symmetry_equiv_pos_as_xyz
  'x, y, z'

loop_
  _atom_site_label
  _atom_site_occupancy
  _atom_site_fract_x
  _atom_site_fract_y
  _atom_site_fract_z
  _atom_site_thermal_displace_type
  _atom_site_B_iso_or_equiv
  _atom_site_type_symbol
  Cd1      1.0000 0.92195  0.56246  0.31704  Biso   1.000  Cd
  Cd2      1.0000 0.28544  0.06477  0.55116  Biso   1.000  Cd
  O1       1.0000 0.17720  0.18010  0.53430  Biso   1.000  O
  O2       1.0000 0.15450  0.32420  0.50270  Biso   1.000  O
  O3       1.0000 0.41980  0.91020  0.29830  Biso   1.000  O
  O4       1.0000 0.56460  0.94450  0.36920  Biso   1.000  O
  O5       1.0000 0.75910  0.55730  0.31890  Biso   1.000  O
  C1       1.0000 0.50350  0.88680  0.33730  Biso   1.000  C
  C2       1.0000 0.37000  0.81810  0.41580  Biso   1.000  C
  H1       1.0000 0.42650  0.85210  0.43600  Biso   1.000  H
  C3       1.0000 0.46930  0.72230  0.35940  Biso   1.000  C
  C4       1.0000 0.19650  0.78620  0.39950  Biso   1.000  C
  H2       1.0000 0.13770  0.79840  0.40920  Biso   1.000  H
  C5       1.0000 0.28060  0.83830  0.42790  Biso   1.000  C
  C6       1.0000 0.37550  0.74810  0.37410  Biso   1.000  C
  C7       1.0000 0.53010  0.78790  0.34230  Biso   1.000  C
  C8       1.0000 0.61990  0.76100  0.33270  Biso   1.000  C
  H3       1.0000 0.66190  0.80450  0.32390  Biso   1.000  H
  C9       1.0000 0.28930  0.69820  0.34440  Biso   1.000  C
  H4       1.0000 0.29150  0.65160  0.31550  Biso   1.000  H
  C10      1.0000 0.20010  0.71690  0.35730  Biso   1.000  C
  C11      1.0000 0.11130  0.65790  0.32590  Biso   1.000  C
  C12      1.0000 0.64730  0.67010  0.33600  Biso   1.000  C
  C13      1.0000 0.27410  0.91730  0.47160  Biso   1.000  C
  C14      1.0000 0.49940  0.63150  0.36340  Biso   1.000  C
  H5       1.0000 0.45960  0.58750  0.37380  Biso   1.000  H
  C15      1.0000 0.58590  0.60670  0.35220  Biso   1.000  C
  H6       1.0000 0.60410  0.54600  0.35550  Biso   1.000  H
  O6       1.0000 0.19190  0.94680  0.47490  Biso   1.000  O
  O7       1.0000 0.12230  0.58900  0.29550  Biso   1.000  O
  O8       1.0000 0.02960  0.68070  0.33500  Biso   1.000  O
  O9       1.0000 0.35390  0.95780  0.50090  Biso   1.000  O
  C16      1.0000 0.20080  0.25120  0.51060  Biso   1.000  C
  O10      1.0000 0.80630  0.70230  0.32310  Biso   1.000  O
  C17      1.0000 0.74390  0.64230  0.32560  Biso   1.000  C
  Cd3      1.0000 0.42195  0.06246  0.31704  Biso   1.000  Cd
  Cd4      1.0000 0.78544  0.56477  0.55116  Biso   1.000  Cd
  O11      1.0000 0.67720  0.68010  0.53430  Biso   1.000  O
  O12      1.0000 0.65450  0.82420  0.50270  Biso   1.000  O
  O13      1.0000 0.91980  0.41020  0.29830  Biso   1.000  O
  O14      1.0000 0.06460  0.44450  0.36920  Biso   1.000  O
  O15      1.0000 0.25910  0.05730  0.31890  Biso   1.000  O
  C18      1.0000 0.00350  0.38680  0.33730  Biso   1.000  C
  C19      1.0000 0.87000  0.31810  0.41580  Biso   1.000  C
  H7       1.0000 0.92650  0.35210  0.43600  Biso   1.000  H
  C20      1.0000 0.96930  0.22230  0.35940  Biso   1.000  C
  C21      1.0000 0.69650  0.28620  0.39950  Biso   1.000  C
  H8       1.0000 0.63770  0.29840  0.40920  Biso   1.000  H
  C22      1.0000 0.78060  0.33830  0.42790  Biso   1.000  C
  C23      1.0000 0.87550  0.24810  0.37410  Biso   1.000  C
  C24      1.0000 0.03010  0.28790  0.34230  Biso   1.000  C
  C25      1.0000 0.11990  0.26100  0.33270  Biso   1.000  C
  H9       1.0000 0.16190  0.30450  0.32390  Biso   1.000  H
  C26      1.0000 0.78930  0.19820  0.34440  Biso   1.000  C
  H10      1.0000 0.79150  0.15160  0.31550  Biso   1.000  H
  C27      1.0000 0.70010  0.21690  0.35730  Biso   1.000  C
  C28      1.0000 0.61130  0.15790  0.32590  Biso   1.000  C
  C29      1.0000 0.14730  0.17010  0.33600  Biso   1.000  C
  C30      1.0000 0.77410  0.41730  0.47160  Biso   1.000  C
  C31      1.0000 0.99940  0.13150  0.36340  Biso   1.000  C
  H11      1.0000 0.95960  0.08750  0.37380  Biso   1.000  H
  C32      1.0000 0.08590  0.10670  0.35220  Biso   1.000  C
  H12      1.0000 0.10410  0.04600  0.35550  Biso   1.000  H
  O16      1.0000 0.69190  0.44680  0.47490  Biso   1.000  O
  O17      1.0000 0.62230  0.08900  0.29550  Biso   1.000  O
  O18      1.0000 0.52960  0.18070  0.33500  Biso   1.000  O
  O19      1.0000 0.85390  0.45780  0.50090  Biso   1.000  O
  C33      1.0000 0.70080  0.75120  0.51060  Biso   1.000  C
  O20      1.0000 0.30630  0.20230  0.32310  Biso   1.000  O
  C34      1.0000 0.24390  0.14230  0.32560  Biso   1.000  C
  Cd5      1.0000 0.07805  0.56246  0.18296  Biso   1.000  Cd
  Cd6      1.0000 0.71456  0.06477  0.94884  Biso   1.000  Cd
  O21      1.0000 0.82280  0.18010  0.96570  Biso   1.000  O
  O22      1.0000 0.84550  0.32420  0.99730  Biso   1.000  O
  O23      1.0000 0.58020  0.91020  0.20170  Biso   1.000  O
  O24      1.0000 0.43540  0.94450  0.13080  Biso   1.000  O
  O25      1.0000 0.24090  0.55730  0.18110  Biso   1.000  O
  C35      1.0000 0.49650  0.88680  0.16270  Biso   1.000  C
  C36      1.0000 0.63000  0.81810  0.08420  Biso   1.000  C
  H13      1.0000 0.57350  0.85210  0.06400  Biso   1.000  H
  C37      1.0000 0.53070  0.72230  0.14060  Biso   1.000  C
  C38      1.0000 0.80350  0.78620  0.10050  Biso   1.000  C
  H14      1.0000 0.86230  0.79840  0.09080  Biso   1.000  H
  C39      1.0000 0.71940  0.83830  0.07210  Biso   1.000  C
  C40      1.0000 0.62450  0.74810  0.12590  Biso   1.000  C
  C41      1.0000 0.46990  0.78790  0.15770  Biso   1.000  C
  C42      1.0000 0.38010  0.76100  0.16730  Biso   1.000  C
  H15      1.0000 0.33810  0.80450  0.17610  Biso   1.000  H
  C43      1.0000 0.71070  0.69820  0.15560  Biso   1.000  C
  H16      1.0000 0.70850  0.65160  0.18450  Biso   1.000  H
  C44      1.0000 0.79990  0.71690  0.14270  Biso   1.000  C
  C45      1.0000 0.88870  0.65790  0.17410  Biso   1.000  C
  C46      1.0000 0.35270  0.67010  0.16400  Biso   1.000  C
  C47      1.0000 0.72590  0.91730  0.02840  Biso   1.000  C
  C48      1.0000 0.50060  0.63150  0.13660  Biso   1.000  C
  H17      1.0000 0.54040  0.58750  0.12620  Biso   1.000  H
  C49      1.0000 0.41410  0.60670  0.14780  Biso   1.000  C
  H18      1.0000 0.39590  0.54600  0.14450  Biso   1.000  H
  O26      1.0000 0.80810  0.94680  0.02510  Biso   1.000  O
  O27      1.0000 0.87770  0.58900  0.20450  Biso   1.000  O
  O28      1.0000 0.97040  0.68070  0.16500  Biso   1.000  O
  O29      1.0000 0.64610  0.95780  0.99910  Biso   1.000  O
  C50      1.0000 0.79920  0.25120  0.98940  Biso   1.000  C
  O30      1.0000 0.19370  0.70230  0.17690  Biso   1.000  O
  C51      1.0000 0.25610  0.64230  0.17440  Biso   1.000  C
  Cd7      1.0000 0.57805  0.06246  0.18296  Biso   1.000  Cd
  Cd8      1.0000 0.21456  0.56477  0.94884  Biso   1.000  Cd
  O31      1.0000 0.32280  0.68010  0.96570  Biso   1.000  O
  O32      1.0000 0.34550  0.82420  0.99730  Biso   1.000  O
  O33      1.0000 0.08020  0.41020  0.20170  Biso   1.000  O
  O34      1.0000 0.93540  0.44450  0.13080  Biso   1.000  O
  O35      1.0000 0.74090  0.05730  0.18110  Biso   1.000  O
  C52      1.0000 0.99650  0.38680  0.16270  Biso   1.000  C
  C53      1.0000 0.13000  0.31810  0.08420  Biso   1.000  C
  H19      1.0000 0.07350  0.35210  0.06400  Biso   1.000  H
  C54      1.0000 0.03070  0.22230  0.14060  Biso   1.000  C
  C55      1.0000 0.30350  0.28620  0.10050  Biso   1.000  C
  H20      1.0000 0.36230  0.29840  0.09080  Biso   1.000  H
  C56      1.0000 0.21940  0.33830  0.07210  Biso   1.000  C
  C57      1.0000 0.12450  0.24810  0.12590  Biso   1.000  C
  C58      1.0000 0.96990  0.28790  0.15770  Biso   1.000  C
  C59      1.0000 0.88010  0.26100  0.16730  Biso   1.000  C
  H21      1.0000 0.83810  0.30450  0.17610  Biso   1.000  H
  C60      1.0000 0.21070  0.19820  0.15560  Biso   1.000  C
  H22      1.0000 0.20850  0.15160  0.18450  Biso   1.000  H
  C61      1.0000 0.29990  0.21690  0.14270  Biso   1.000  C
  C62      1.0000 0.38870  0.15790  0.17410  Biso   1.000  C
  C63      1.0000 0.85270  0.17010  0.16400  Biso   1.000  C
  C64      1.0000 0.22590  0.41730  0.02840  Biso   1.000  C
  C65      1.0000 0.00060  0.13150  0.13660  Biso   1.000  C
  H23      1.0000 0.04040  0.08750  0.12620  Biso   1.000  H
  C66      1.0000 0.91410  0.10670  0.14780  Biso   1.000  C
  H24      1.0000 0.89590  0.04600  0.14450  Biso   1.000  H
  O36      1.0000 0.30810  0.44680  0.02510  Biso   1.000  O
  O37      1.0000 0.37770  0.08900  0.20450  Biso   1.000  O
  O38      1.0000 0.47040  0.18070  0.16500  Biso   1.000  O
  O39      1.0000 0.14610  0.45780  0.99910  Biso   1.000  O
  C67      1.0000 0.29920  0.75120  0.98940  Biso   1.000  C
  O40      1.0000 0.69370  0.20230  0.17690  Biso   1.000  O
  C68      1.0000 0.75610  0.14230  0.17440  Biso   1.000  C
  Cd9      1.0000 0.07805  0.43754  0.68296  Biso   1.000  Cd
  Cd10     1.0000 0.71456  0.93523  0.44884  Biso   1.000  Cd
  O41      1.0000 0.82280  0.81990  0.46570  Biso   1.000  O
  O42      1.0000 0.84550  0.67580  0.49730  Biso   1.000  O
  O43      1.0000 0.58020  0.08980  0.70170  Biso   1.000  O
  O44      1.0000 0.43540  0.05550  0.63080  Biso   1.000  O
  O45      1.0000 0.24090  0.44270  0.68110  Biso   1.000  O
  C69      1.0000 0.49650  0.11320  0.66270  Biso   1.000  C
  C70      1.0000 0.63000  0.18190  0.58420  Biso   1.000  C
  H25      1.0000 0.57350  0.14790  0.56400  Biso   1.000  H
  C71      1.0000 0.53070  0.27770  0.64060  Biso   1.000  C
  C72      1.0000 0.80350  0.21380  0.60050  Biso   1.000  C
  H26      1.0000 0.86230  0.20160  0.59080  Biso   1.000  H
  C73      1.0000 0.71940  0.16170  0.57210  Biso   1.000  C
  C74      1.0000 0.62450  0.25190  0.62590  Biso   1.000  C
  C75      1.0000 0.46990  0.21210  0.65770  Biso   1.000  C
  C76      1.0000 0.38010  0.23900  0.66730  Biso   1.000  C
  H27      1.0000 0.33810  0.19550  0.67610  Biso   1.000  H
  C77      1.0000 0.71070  0.30180  0.65560  Biso   1.000  C
  H28      1.0000 0.70850  0.34840  0.68450  Biso   1.000  H
  C78      1.0000 0.79990  0.28310  0.64270  Biso   1.000  C
  C79      1.0000 0.88870  0.34210  0.67410  Biso   1.000  C
  C80      1.0000 0.35270  0.32990  0.66400  Biso   1.000  C
  C81      1.0000 0.72590  0.08270  0.52840  Biso   1.000  C
  C82      1.0000 0.50060  0.36850  0.63660  Biso   1.000  C
  H29      1.0000 0.54040  0.41250  0.62620  Biso   1.000  H
  C83      1.0000 0.41410  0.39330  0.64780  Biso   1.000  C
  H30      1.0000 0.39590  0.45400  0.64450  Biso   1.000  H
  O46      1.0000 0.80810  0.05320  0.52510  Biso   1.000  O
  O47      1.0000 0.87770  0.41100  0.70450  Biso   1.000  O
  O48      1.0000 0.97040  0.31930  0.66500  Biso   1.000  O
  O49      1.0000 0.64610  0.04220  0.49910  Biso   1.000  O
  C84      1.0000 0.79920  0.74880  0.48940  Biso   1.000  C
  O50      1.0000 0.19370  0.29770  0.67690  Biso   1.000  O
  C85      1.0000 0.25610  0.35770  0.67440  Biso   1.000  C
  Cd11     1.0000 0.57805  0.93754  0.68296  Biso   1.000  Cd
  Cd12     1.0000 0.21456  0.43523  0.44884  Biso   1.000  Cd
  O51      1.0000 0.32280  0.31990  0.46570  Biso   1.000  O
  O52      1.0000 0.34550  0.17580  0.49730  Biso   1.000  O
  O53      1.0000 0.08020  0.58980  0.70170  Biso   1.000  O
  O54      1.0000 0.93540  0.55550  0.63080  Biso   1.000  O
  O55      1.0000 0.74090  0.94270  0.68110  Biso   1.000  O
  C86      1.0000 0.99650  0.61320  0.66270  Biso   1.000  C
  C87      1.0000 0.13000  0.68190  0.58420  Biso   1.000  C
  H31      1.0000 0.07350  0.64790  0.56400  Biso   1.000  H
  C88      1.0000 0.03070  0.77770  0.64060  Biso   1.000  C
  C89      1.0000 0.30350  0.71380  0.60050  Biso   1.000  C
  H32      1.0000 0.36230  0.70160  0.59080  Biso   1.000  H
  C90      1.0000 0.21940  0.66170  0.57210  Biso   1.000  C
  C91      1.0000 0.12450  0.75190  0.62590  Biso   1.000  C
  C92      1.0000 0.96990  0.71210  0.65770  Biso   1.000  C
  C93      1.0000 0.88010  0.73900  0.66730  Biso   1.000  C
  H33      1.0000 0.83810  0.69550  0.67610  Biso   1.000  H
  C94      1.0000 0.21070  0.80180  0.65560  Biso   1.000  C
  H34      1.0000 0.20850  0.84840  0.68450  Biso   1.000  H
  C95      1.0000 0.29990  0.78310  0.64270  Biso   1.000  C
  C96      1.0000 0.38870  0.84210  0.67410  Biso   1.000  C
  C97      1.0000 0.85270  0.82990  0.66400  Biso   1.000  C
  C98      1.0000 0.22590  0.58270  0.52840  Biso   1.000  C
  C99      1.0000 0.00060  0.86850  0.63660  Biso   1.000  C
  H35      1.0000 0.04040  0.91250  0.62620  Biso   1.000  H
  C100     1.0000 0.91410  0.89330  0.64780  Biso   1.000  C
  H36      1.0000 0.89590  0.95400  0.64450  Biso   1.000  H
  O56      1.0000 0.30810  0.55320  0.52510  Biso   1.000  O
  O57      1.0000 0.37770  0.91100  0.70450  Biso   1.000  O
  O58      1.0000 0.47040  0.81930  0.66500  Biso   1.000  O
  O59      1.0000 0.14610  0.54220  0.49910  Biso   1.000  O
  C101     1.0000 0.29920  0.24880  0.48940  Biso   1.000  C
  O60      1.0000 0.69370  0.79770  0.67690  Biso   1.000  O
  C102     1.0000 0.75610  0.85770  0.67440  Biso   1.000  C
  Cd13     1.0000 0.92195  0.43754  0.81704  Biso   1.000  Cd
  Cd14     1.0000 0.28544  0.93523  0.05116  Biso   1.000  Cd
  O61      1.0000 0.17720  0.81990  0.03430  Biso   1.000  O
  O62      1.0000 0.15450  0.67580  0.00270  Biso   1.000  O
  O63      1.0000 0.41980  0.08980  0.79830  Biso   1.000  O
  O64      1.0000 0.56460  0.05550  0.86920  Biso   1.000  O
  O65      1.0000 0.75910  0.44270  0.81890  Biso   1.000  O
  C103     1.0000 0.50350  0.11320  0.83730  Biso   1.000  C
  C104     1.0000 0.37000  0.18190  0.91580  Biso   1.000  C
  H37      1.0000 0.42650  0.14790  0.93600  Biso   1.000  H
  C105     1.0000 0.46930  0.27770  0.85940  Biso   1.000  C
  C106     1.0000 0.19650  0.21380  0.89950  Biso   1.000  C
  H38      1.0000 0.13770  0.20160  0.90920  Biso   1.000  H
  C107     1.0000 0.28060  0.16170  0.92790  Biso   1.000  C
  C108     1.0000 0.37550  0.25190  0.87410  Biso   1.000  C
  C109     1.0000 0.53010  0.21210  0.84230  Biso   1.000  C
  C110     1.0000 0.61990  0.23900  0.83270  Biso   1.000  C
  H39      1.0000 0.66190  0.19550  0.82390  Biso   1.000  H
  C111     1.0000 0.28930  0.30180  0.84440  Biso   1.000  C
  H40      1.0000 0.29150  0.34840  0.81550  Biso   1.000  H
  C112     1.0000 0.20010  0.28310  0.85730  Biso   1.000  C
  C113     1.0000 0.11130  0.34210  0.82590  Biso   1.000  C
  C114     1.0000 0.64730  0.32990  0.83600  Biso   1.000  C
  C115     1.0000 0.27410  0.08270  0.97160  Biso   1.000  C
  C116     1.0000 0.49940  0.36850  0.86340  Biso   1.000  C
  H41      1.0000 0.45960  0.41250  0.87380  Biso   1.000  H
  C117     1.0000 0.58590  0.39330  0.85220  Biso   1.000  C
  H42      1.0000 0.60410  0.45400  0.85550  Biso   1.000  H
  O66      1.0000 0.19190  0.05320  0.97490  Biso   1.000  O
  O67      1.0000 0.12230  0.41100  0.79550  Biso   1.000  O
  O68      1.0000 0.02960  0.31930  0.83500  Biso   1.000  O
  O69      1.0000 0.35390  0.04220  0.00090  Biso   1.000  O
  C118     1.0000 0.20080  0.74880  0.01060  Biso   1.000  C
  O70      1.0000 0.80630  0.29770  0.82310  Biso   1.000  O
  C119     1.0000 0.74390  0.35770  0.82560  Biso   1.000  C
  Cd15     1.0000 0.42195  0.93754  0.81704  Biso   1.000  Cd
  Cd16     1.0000 0.78544  0.43523  0.05116  Biso   1.000  Cd
  O71      1.0000 0.67720  0.31990  0.03430  Biso   1.000  O
  O72      1.0000 0.65450  0.17580  0.00270  Biso   1.000  O
  O73      1.0000 0.91980  0.58980  0.79830  Biso   1.000  O
  O74      1.0000 0.06460  0.55550  0.86920  Biso   1.000  O
  O75      1.0000 0.25910  0.94270  0.81890  Biso   1.000  O
  C120     1.0000 0.00350  0.61320  0.83730  Biso   1.000  C
  C121     1.0000 0.87000  0.68190  0.91580  Biso   1.000  C
  H43      1.0000 0.92650  0.64790  0.93600  Biso   1.000  H
  C122     1.0000 0.96930  0.77770  0.85940  Biso   1.000  C
  C123     1.0000 0.69650  0.71380  0.89950  Biso   1.000  C
  H44      1.0000 0.63770  0.70160  0.90920  Biso   1.000  H
  C124     1.0000 0.78060  0.66170  0.92790  Biso   1.000  C
  C125     1.0000 0.87550  0.75190  0.87410  Biso   1.000  C
  C126     1.0000 0.03010  0.71210  0.84230  Biso   1.000  C
  C127     1.0000 0.11990  0.73900  0.83270  Biso   1.000  C
  H45      1.0000 0.16190  0.69550  0.82390  Biso   1.000  H
  C128     1.0000 0.78930  0.80180  0.84440  Biso   1.000  C
  H46      1.0000 0.79150  0.84840  0.81550  Biso   1.000  H
  C129     1.0000 0.70010  0.78310  0.85730  Biso   1.000  C
  C130     1.0000 0.61130  0.84210  0.82590  Biso   1.000  C
  C131     1.0000 0.14730  0.82990  0.83600  Biso   1.000  C
  C132     1.0000 0.77410  0.58270  0.97160  Biso   1.000  C
  C133     1.0000 0.99940  0.86850  0.86340  Biso   1.000  C
  H47      1.0000 0.95960  0.91250  0.87380  Biso   1.000  H
  C134     1.0000 0.08590  0.89330  0.85220  Biso   1.000  C
  H48      1.0000 0.10410  0.95400  0.85550  Biso   1.000  H
  O76      1.0000 0.69190  0.55320  0.97490  Biso   1.000  O
  O77      1.0000 0.62230  0.91100  0.79550  Biso   1.000  O
  O78      1.0000 0.52960  0.81930  0.83500  Biso   1.000  O
  O79      1.0000 0.85390  0.54220  0.00090  Biso   1.000  O
  C135     1.0000 0.70080  0.24880  0.01060  Biso   1.000  C
  O80      1.0000 0.30630  0.79770  0.82310  Biso   1.000  O
  C136     1.0000 0.24390  0.85770  0.82560  Biso   1.000  C
