data_image0
_cell_length_a       10.0345
_cell_length_b       15.2852
_cell_length_c       18.421
_cell_angle_alpha    67.732
_cell_angle_beta     87.024
_cell_angle_gamma    77.361

_symmetry_space_group_name_H-M    "P 1"
_symmetry_int_tables_number       1

loop_
  _symmetry_equiv_pos_as_xyz
  'x, y, z'

loop_
  _atom_site_label
  _atom_site_occupancy
  _atom_site_fract_x
  _atom_site_fract_y
  _atom_site_fract_z
  _atom_site_thermal_displace_type
  _atom_site_B_iso_or_equiv
  _atom_site_type_symbol
  Co1      1.0000 0.86172  0.98040  0.43287  Biso   1.000  Co
  O1       1.0000 0.53960  0.00079  0.88880  Biso   1.000  O
  O2       1.0000 0.86400  0.96848  0.54522  Biso   1.000  O
  O3       1.0000 0.25450  0.01434  0.66944  Biso   1.000  O
  O4       1.0000 0.95910  0.01956  0.62334  Biso   1.000  O
  O5       1.0000 0.35450  0.00840  0.56305  Biso   1.000  O
  O6       1.0000 0.60670  0.47660  0.76039  Biso   1.000  O
  N1       1.0000 0.91840  0.82420  0.47102  Biso   1.000  N
  N2       1.0000 0.82600  0.13600  0.38262  Biso   1.000  N
  O7       1.0000 0.66720  0.44310  0.14981  Biso   1.000  O
  O8       1.0000 0.10920  0.47180  0.66367  Biso   1.000  O
  N3       1.0000 0.49820  0.35640  0.77143  Biso   1.000  N
  H1       1.0000 0.45070  0.33680  0.74480  Biso   1.000  H
  C1       1.0000 0.61420  0.99180  0.62218  Biso   1.000  C
  H2       1.0000 0.60800  0.99100  0.57170  Biso   1.000  H
  N4       1.0000 0.51770  0.15070  0.95772  Biso   1.000  N
  O9       1.0000 0.75830  0.92560  0.89716  Biso   1.000  O
  N5       1.0000 0.95740  0.61180  0.65204  Biso   1.000  N
  H3       1.0000 0.90190  0.63980  0.67850  Biso   1.000  H
  C2       1.0000 0.74050  0.98780  0.65305  Biso   1.000  C
  N6       1.0000 0.84460  0.31370  0.18551  Biso   1.000  N
  H4       1.0000 0.91530  0.28260  0.16920  Biso   1.000  H
  C3       1.0000 0.75050  0.98160  0.72950  Biso   1.000  C
  H5       1.0000 0.83610  0.97660  0.75090  Biso   1.000  H
  C4       1.0000 0.49750  0.99710  0.66583  Biso   1.000  C
  C5       1.0000 0.44060  0.48680  0.52020  Biso   1.000  C
  C6       1.0000 0.86370  0.99180  0.60321  Biso   1.000  C
  C7       1.0000 0.85280  0.48300  0.88690  Biso   1.000  C
  C8       1.0000 0.63580  0.98260  0.77510  Biso   1.000  C
  C9       1.0000 0.43860  0.46120  0.60280  Biso   1.000  C
  H6       1.0000 0.36110  0.44280  0.63000  Biso   1.000  H
  C10      1.0000 0.54720  0.46300  0.64310  Biso   1.000  C
  C11      1.0000 0.91860  0.76420  0.54620  Biso   1.000  C
  H7       1.0000 0.88720  0.79120  0.58370  Biso   1.000  H
  C12      1.0000 0.55270  0.43460  0.73060  Biso   1.000  C
  C13      1.0000 0.80630  0.42160  0.04770  Biso   1.000  C
  C14      1.0000 0.36120  0.00750  0.63093  Biso   1.000  C
  C15      1.0000 0.70260  0.48460  0.99250  Biso   1.000  C
  H8       1.0000 0.61690  0.50720  0.00970  Biso   1.000  H
  C16      1.0000 0.96240  0.66520  0.57170  Biso   1.000  C
  C17      1.0000 0.50830  0.99420  0.74190  Biso   1.000  C
  H9       1.0000 0.42930  0.00020  0.77090  Biso   1.000  H
  C18      1.0000 0.72510  0.51300  0.91460  Biso   1.000  C
  H10      1.0000 0.65370  0.55350  0.87840  Biso   1.000  H
  C19      1.0000 0.84840  0.17920  0.30650  Biso   1.000  C
  H11      1.0000 0.88820  0.13980  0.27900  Biso   1.000  H
  C20      1.0000 0.87900  0.51370  0.80610  Biso   1.000  C
  H12      1.0000 0.80830  0.55440  0.76950  Biso   1.000  H
  C21      1.0000 0.64650  0.96960  0.85980  Biso   1.000  C
  C22      1.0000 0.66940  0.51640  0.52320  Biso   1.000  C
  H13      1.0000 0.74780  0.53470  0.49710  Biso   1.000  H
  C23      1.0000 0.77250  0.19340  0.42160  Biso   1.000  C
  H14      1.0000 0.75660  0.16470  0.47530  Biso   1.000  H
  C24      1.0000 0.50230  0.20840  0.88180  Biso   1.000  C
  H15      1.0000 0.48360  0.18220  0.84580  Biso   1.000  H
  C25      1.0000 0.95950  0.42110  0.94210  Biso   1.000  C
  C26      1.0000 0.51240  0.30480  0.85300  Biso   1.000  C
  C27      1.0000 0.81690  0.27770  0.26580  Biso   1.000  C
  C28      1.0000 0.00370  0.48600  0.77990  Biso   1.000  C
  C29      1.0000 0.76640  0.39470  0.13190  Biso   1.000  C
  C30      1.0000 0.66350  0.49350  0.60170  Biso   1.000  C
  H16      1.0000 0.73660  0.49780  0.62920  Biso   1.000  H
  C31      1.0000 0.02970  0.52060  0.69380  Biso   1.000  C
  C32      1.0000 0.76140  0.33640  0.30640  Biso   1.000  C
  H17      1.0000 0.73890  0.40410  0.28090  Biso   1.000  H
  C33      1.0000 0.53540  0.34440  0.90590  Biso   1.000  C
  H18      1.0000 0.53780  0.41020  0.88940  Biso   1.000  H
  C34      1.0000 0.93190  0.39110  0.02260  Biso   1.000  C
  H19      1.0000 0.00120  0.34920  0.05980  Biso   1.000  H
  C35      1.0000 0.96220  0.78480  0.41820  Biso   1.000  C
  H20      1.0000 0.96360  0.82570  0.36520  Biso   1.000  H
  C36      1.0000 0.00500  0.62460  0.51600  Biso   1.000  C
  H21      1.0000 0.03260  0.55720  0.53070  Biso   1.000  H
  C37      1.0000 0.74020  0.29220  0.38560  Biso   1.000  C
  H22      1.0000 0.70350  0.33010  0.41480  Biso   1.000  H
  C38      1.0000 0.00530  0.68650  0.43850  Biso   1.000  C
  H23      1.0000 0.03490  0.66140  0.39970  Biso   1.000  H
  C39      1.0000 0.10910  0.42280  0.83490  Biso   1.000  C
  H24      1.0000 0.19500  0.40180  0.81710  Biso   1.000  H
  C40      1.0000 0.55490  0.28420  0.98360  Biso   1.000  C
  H25      1.0000 0.57450  0.30860  0.02080  Biso   1.000  H
  C41      1.0000 0.54600  0.18930  0.00780  Biso   1.000  C
  H26      1.0000 0.56020  0.14990  0.06140  Biso   1.000  H
  C42      1.0000 0.08780  0.39230  0.91290  Biso   1.000  C
  H27      1.0000 0.15970  0.35100  0.94840  Biso   1.000  H
  Co2      1.0000 0.13828  0.01960  0.56713  Biso   1.000  Co
  O10      1.0000 0.46040  0.99921  0.11120  Biso   1.000  O
  O11      1.0000 0.13600  0.03152  0.45478  Biso   1.000  O
  O12      1.0000 0.74550  0.98566  0.33056  Biso   1.000  O
  O13      1.0000 0.04090  0.98044  0.37666  Biso   1.000  O
  O14      1.0000 0.64550  0.99160  0.43695  Biso   1.000  O
  O15      1.0000 0.39330  0.52340  0.23961  Biso   1.000  O
  N7       1.0000 0.08160  0.17580  0.52898  Biso   1.000  N
  N8       1.0000 0.17400  0.86400  0.61738  Biso   1.000  N
  O16      1.0000 0.33280  0.55690  0.85019  Biso   1.000  O
  O17      1.0000 0.89080  0.52820  0.33633  Biso   1.000  O
  N9       1.0000 0.50180  0.64360  0.22857  Biso   1.000  N
  H28      1.0000 0.54930  0.66320  0.25520  Biso   1.000  H
  C43      1.0000 0.38580  0.00820  0.37782  Biso   1.000  C
  H29      1.0000 0.39200  0.00900  0.42830  Biso   1.000  H
  N10      1.0000 0.48230  0.84930  0.04228  Biso   1.000  N
  O18      1.0000 0.24170  0.07440  0.10284  Biso   1.000  O
  N11      1.0000 0.04260  0.38820  0.34796  Biso   1.000  N
  H30      1.0000 0.09810  0.36020  0.32150  Biso   1.000  H
  C44      1.0000 0.25950  0.01220  0.34695  Biso   1.000  C
  N12      1.0000 0.15540  0.68630  0.81449  Biso   1.000  N
  H31      1.0000 0.08470  0.71740  0.83080  Biso   1.000  H
  C45      1.0000 0.24950  0.01840  0.27050  Biso   1.000  C
  H32      1.0000 0.16390  0.02340  0.24910  Biso   1.000  H
  C46      1.0000 0.50250  0.00290  0.33417  Biso   1.000  C
  C47      1.0000 0.55940  0.51320  0.47980  Biso   1.000  C
  C48      1.0000 0.13630  0.00820  0.39679  Biso   1.000  C
  C49      1.0000 0.14720  0.51700  0.11310  Biso   1.000  C
  C50      1.0000 0.36420  0.01740  0.22490  Biso   1.000  C
  C51      1.0000 0.56140  0.53880  0.39720  Biso   1.000  C
  H33      1.0000 0.63890  0.55720  0.37000  Biso   1.000  H
  C52      1.0000 0.45280  0.53700  0.35690  Biso   1.000  C
  C53      1.0000 0.08140  0.23580  0.45380  Biso   1.000  C
  H34      1.0000 0.11280  0.20880  0.41630  Biso   1.000  H
  C54      1.0000 0.44730  0.56540  0.26940  Biso   1.000  C
  C55      1.0000 0.19370  0.57840  0.95230  Biso   1.000  C
  C56      1.0000 0.63880  0.99250  0.36907  Biso   1.000  C
  C57      1.0000 0.29740  0.51540  0.00750  Biso   1.000  C
  H35      1.0000 0.38310  0.49280  0.99030  Biso   1.000  H
  C58      1.0000 0.03760  0.33480  0.42830  Biso   1.000  C
  C59      1.0000 0.49170  0.00580  0.25810  Biso   1.000  C
  H36      1.0000 0.57070  0.99980  0.22910  Biso   1.000  H
  C60      1.0000 0.27490  0.48700  0.08540  Biso   1.000  C
  H37      1.0000 0.34630  0.44650  0.12160  Biso   1.000  H
  C61      1.0000 0.15160  0.82080  0.69350  Biso   1.000  C
  H38      1.0000 0.11180  0.86020  0.72100  Biso   1.000  H
  C62      1.0000 0.12100  0.48630  0.19390  Biso   1.000  C
  H39      1.0000 0.19170  0.44560  0.23050  Biso   1.000  H
  C63      1.0000 0.35350  0.03040  0.14020  Biso   1.000  C
  C64      1.0000 0.33060  0.48360  0.47680  Biso   1.000  C
  H40      1.0000 0.25220  0.46530  0.50290  Biso   1.000  H
  C65      1.0000 0.22750  0.80660  0.57840  Biso   1.000  C
  H41      1.0000 0.24340  0.83530  0.52470  Biso   1.000  H
  C66      1.0000 0.49770  0.79160  0.11820  Biso   1.000  C
  H42      1.0000 0.51640  0.81780  0.15420  Biso   1.000  H
  C67      1.0000 0.04050  0.57890  0.05790  Biso   1.000  C
  C68      1.0000 0.48760  0.69520  0.14700  Biso   1.000  C
  C69      1.0000 0.18310  0.72230  0.73420  Biso   1.000  C
  C70      1.0000 0.99630  0.51400  0.22010  Biso   1.000  C
  C71      1.0000 0.23360  0.60530  0.86810  Biso   1.000  C
  C72      1.0000 0.33650  0.50650  0.39830  Biso   1.000  C
  H43      1.0000 0.26340  0.50220  0.37080  Biso   1.000  H
  C73      1.0000 0.97030  0.47940  0.30620  Biso   1.000  C
  C74      1.0000 0.23860  0.66360  0.69360  Biso   1.000  C
  H44      1.0000 0.26110  0.59590  0.71910  Biso   1.000  H
  C75      1.0000 0.46460  0.65560  0.09410  Biso   1.000  C
  H45      1.0000 0.46220  0.58980  0.11060  Biso   1.000  H
  C76      1.0000 0.06810  0.60890  0.97740  Biso   1.000  C
  H46      1.0000 0.99880  0.65080  0.94020  Biso   1.000  H
  C77      1.0000 0.03780  0.21520  0.58180  Biso   1.000  C
  H47      1.0000 0.03640  0.17430  0.63480  Biso   1.000  H
  C78      1.0000 0.99500  0.37540  0.48400  Biso   1.000  C
  H48      1.0000 0.96740  0.44280  0.46930  Biso   1.000  H
  C79      1.0000 0.25980  0.70780  0.61440  Biso   1.000  C
  H49      1.0000 0.29650  0.66990  0.58520  Biso   1.000  H
  C80      1.0000 0.99470  0.31350  0.56150  Biso   1.000  C
  H50      1.0000 0.96510  0.33860  0.60030  Biso   1.000  H
  C81      1.0000 0.89090  0.57720  0.16510  Biso   1.000  C
  H51      1.0000 0.80500  0.59820  0.18290  Biso   1.000  H
  C82      1.0000 0.44510  0.71580  0.01640  Biso   1.000  C
  H52      1.0000 0.42550  0.69140  0.97920  Biso   1.000  H
  C83      1.0000 0.45400  0.81070  0.99220  Biso   1.000  C
  H53      1.0000 0.43980  0.85010  0.93860  Biso   1.000  H
  C84      1.0000 0.91220  0.60770  0.08710  Biso   1.000  C
  H54      1.0000 0.84030  0.64900  0.05160  Biso   1.000  H
  Co3      1.0000 0.50000  0.00000  0.00000  Biso   1.000  Co
