data_image0
_cell_length_a       10.1032
_cell_length_b       9.2299
_cell_length_c       31.773
_cell_angle_alpha    90
_cell_angle_beta     107.486
_cell_angle_gamma    90

_symmetry_space_group_name_H-M    "P 1"
_symmetry_int_tables_number       1

loop_
  _symmetry_equiv_pos_as_xyz
  'x, y, z'

loop_
  _atom_site_label
  _atom_site_occupancy
  _atom_site_fract_x
  _atom_site_fract_y
  _atom_site_fract_z
  _atom_site_thermal_displace_type
  _atom_site_B_iso_or_equiv
  _atom_site_type_symbol
  Co1      1.0000 0.09958  0.90351  0.21953  Biso   1.000  Co
  Co2      1.0000 0.67981  0.15545  0.09389  Biso   1.000  Co
  Co3      1.0000 0.11460  0.01311  0.62488  Biso   1.000  Co
  Co4      1.0000 0.54788  0.17972  0.65698  Biso   1.000  Co
  Co5      1.0000 0.13184  0.92954  0.52967  Biso   1.000  Co
  P1       1.0000 0.82890  0.13150  0.62781  Biso   1.000  P
  P2       1.0000 0.39980  0.89410  0.62170  Biso   1.000  P
  C1       1.0000 0.87120  0.30150  0.60740  Biso   1.000  C
  C2       1.0000 0.92530  0.32320  0.57200  Biso   1.000  C
  C3       1.0000 0.96270  0.46310  0.56310  Biso   1.000  C
  H1       1.0000 0.99380  0.47830  0.53810  Biso   1.000  H
  C4       1.0000 0.95600  0.58020  0.58960  Biso   1.000  C
  C5       1.0000 0.90560  0.55840  0.62530  Biso   1.000  C
  C6       1.0000 0.86180  0.42250  0.63320  Biso   1.000  C
  H2       1.0000 0.82390  0.41010  0.65690  Biso   1.000  H
  C7       1.0000 0.94670  0.20090  0.54300  Biso   1.000  C
  C8       1.0000 0.00800  0.72610  0.58120  Biso   1.000  C
  C9       1.0000 0.89480  0.67190  0.65890  Biso   1.000  C
  C10      1.0000 0.35660  0.72360  0.64150  Biso   1.000  C
  C11      1.0000 0.30250  0.70340  0.67710  Biso   1.000  C
  C12      1.0000 0.26300  0.56720  0.68640  Biso   1.000  C
  H3       1.0000 0.23170  0.55420  0.71150  Biso   1.000  H
  C13      1.0000 0.26790  0.44820  0.66000  Biso   1.000  C
  C14      1.0000 0.32140  0.46800  0.62410  Biso   1.000  C
  C15      1.0000 0.36670  0.60400  0.61600  Biso   1.000  C
  H4       1.0000 0.40560  0.61580  0.59250  Biso   1.000  H
  C16      1.0000 0.28410  0.82610  0.70690  Biso   1.000  C
  C17      1.0000 0.21810  0.30130  0.66810  Biso   1.000  C
  C18      1.0000 0.33530  0.35230  0.59210  Biso   1.000  C
  C19      1.0000 0.50790  0.29790  0.74110  Biso   1.000  C
  H5       1.0000 0.46770  0.21260  0.74870  Biso   1.000  H
  C20      1.0000 0.61230  0.44920  0.71050  Biso   1.000  C
  H6       1.0000 0.65970  0.48770  0.69140  Biso   1.000  H
  C21      1.0000 0.58400  0.52270  0.74290  Biso   1.000  C
  H7       1.0000 0.60560  0.62110  0.75080  Biso   1.000  H
  C22      1.0000 0.45930  0.46040  0.79880  Biso   1.000  C
  H8       1.0000 0.40770  0.37550  0.80470  Biso   1.000  H
  H9       1.0000 0.39340  0.54230  0.79010  Biso   1.000  H
  C23      1.0000 0.57330  0.49980  0.84020  Biso   1.000  C
  C24      1.0000 0.62650  0.39760  0.87220  Biso   1.000  C
  H10      1.0000 0.58880  0.30250  0.86890  Biso   1.000  H
  C25      1.0000 0.73520  0.43250  0.90950  Biso   1.000  C
  C26      1.0000 0.78860  0.56990  0.91480  Biso   1.000  C
  H11      1.0000 0.86330  0.59360  0.94020  Biso   1.000  H
  C27      1.0000 0.73360  0.67390  0.88330  Biso   1.000  C
  H12      1.0000 0.77060  0.76930  0.88730  Biso   1.000  H
  C28      1.0000 0.62570  0.64180  0.84580  Biso   1.000  C
  H13      1.0000 0.58780  0.71430  0.82440  Biso   1.000  H
  C29      1.0000 0.79260  0.32150  0.94530  Biso   1.000  C
  H14      1.0000 0.78040  0.22330  0.93220  Biso   1.000  H
  H15      1.0000 0.89320  0.33840  0.95890  Biso   1.000  H
  C30      1.0000 0.72560  0.22140  0.00840  Biso   1.000  C
  H16      1.0000 0.76390  0.12790  0.00740  Biso   1.000  H
  C31      1.0000 0.65990  0.44580  0.99220  Biso   1.000  C
  H17      1.0000 0.64300  0.53790  0.97830  Biso   1.000  H
  C32      1.0000 0.62660  0.40410  0.02880  Biso   1.000  C
  H18      1.0000 0.58180  0.46340  0.04480  Biso   1.000  H
  C33      1.0000 0.00280  0.63000  0.25780  Biso   1.000  C
  H19      1.0000 0.04420  0.56890  0.24120  Biso   1.000  H
  C34      1.0000 0.93250  0.81830  0.28500  Biso   1.000  C
  H20      1.0000 0.91550  0.91640  0.29080  Biso   1.000  H
  C35      1.0000 0.89680  0.70010  0.30540  Biso   1.000  C
  H21      1.0000 0.85030  0.69990  0.32730  Biso   1.000  H
  C36      1.0000 0.93870  0.43260  0.30210  Biso   1.000  C
  H22      1.0000 0.91800  0.36720  0.27620  Biso   1.000  H
  H23      1.0000 0.86370  0.42170  0.31600  Biso   1.000  H
  C37      1.0000 0.07470  0.38960  0.33460  Biso   1.000  C
  C38      1.0000 0.10920  0.42960  0.37790  Biso   1.000  C
  H24      1.0000 0.04490  0.48490  0.38780  Biso   1.000  H
  C39      1.0000 0.16860  0.31100  0.32010  Biso   1.000  C
  H25      1.0000 0.14600  0.28290  0.29000  Biso   1.000  H
  C40      1.0000 0.29550  0.27310  0.34920  Biso   1.000  C
  H26      1.0000 0.35980  0.21910  0.33900  Biso   1.000  H
  C41      1.0000 0.32970  0.31290  0.39290  Biso   1.000  C
  H27      1.0000 0.41730  0.28620  0.41260  Biso   1.000  H
  C42      1.0000 0.23750  0.39130  0.40840  Biso   1.000  C
  C43      1.0000 0.27590  0.43020  0.45650  Biso   1.000  C
  H28      1.0000 0.21230  0.37920  0.46990  Biso   1.000  H
  H29      1.0000 0.37110  0.39480  0.47120  Biso   1.000  H
  C44      1.0000 0.21340  0.64660  0.49400  Biso   1.000  C
  H30      1.0000 0.16650  0.59440  0.51100  Biso   1.000  H
  C45      1.0000 0.32970  0.69560  0.44830  Biso   1.000  C
  H31      1.0000 0.38000  0.68760  0.42750  Biso   1.000  H
  C46      1.0000 0.30270  0.81750  0.46680  Biso   1.000  C
  H32      1.0000 0.33010  0.91160  0.46060  Biso   1.000  H
  N1       1.0000 0.56230  0.30800  0.70890  Biso   1.000  N
  N2       1.0000 0.51700  0.42630  0.76230  Biso   1.000  N
  N3       1.0000 0.66680  0.26570  0.03900  Biso   1.000  N
  N4       1.0000 0.72230  0.32990  0.97920  Biso   1.000  N
  N5       1.0000 0.99720  0.77230  0.25460  Biso   1.000  N
  N6       1.0000 0.94210  0.58260  0.28750  Biso   1.000  N
  N7       1.0000 0.23010  0.78840  0.49590  Biso   1.000  N
  N8       1.0000 0.27060  0.58380  0.46500  Biso   1.000  N
  O1       1.0000 0.75690  0.03630  0.58830  Biso   1.000  O
  O2       1.0000 0.73950  0.16110  0.65723  Biso   1.000  O
  O3       1.0000 0.96850  0.06990  0.65512  Biso   1.000  O
  O4       1.0000 0.01490  0.08840  0.56040  Biso   1.000  O
  O5       1.0000 0.90290  0.22020  0.50170  Biso   1.000  O
  O6       1.0000 0.04060  0.74610  0.54620  Biso   1.000  O
  O7       1.0000 0.01350  0.81770  0.61081  Biso   1.000  O
  O8       1.0000 0.78410  0.75140  0.64870  Biso   1.000  O
  O9       1.0000 0.98130  0.66910  0.69570  Biso   1.000  O
  O10      1.0000 0.48880  0.86300  0.59190  Biso   1.000  O
  O11      1.0000 0.47240  0.98790  0.66119  Biso   1.000  O
  O12      1.0000 0.25950  0.95620  0.59430  Biso   1.000  O
  O13      1.0000 0.21640  0.93890  0.68950  Biso   1.000  O
  O14      1.0000 0.33490  0.80880  0.74710  Biso   1.000  O
  O15      1.0000 0.18030  0.28480  0.70224  Biso   1.000  O
  O16      1.0000 0.21760  0.20670  0.64060  Biso   1.000  O
  O17      1.0000 0.44410  0.27500  0.60170  Biso   1.000  O
  O18      1.0000 0.24740  0.35030  0.55500  Biso   1.000  O
  Co6      1.0000 0.09958  0.09649  0.71953  Biso   1.000  Co
  Co7      1.0000 0.67981  0.84455  0.59389  Biso   1.000  Co
  Co8      1.0000 0.11460  0.98689  0.12488  Biso   1.000  Co
  Co9      1.0000 0.54788  0.82028  0.15698  Biso   1.000  Co
  Co10     1.0000 0.13184  0.07046  0.02967  Biso   1.000  Co
  P3       1.0000 0.82890  0.86850  0.12781  Biso   1.000  P
  P4       1.0000 0.39980  0.10590  0.12170  Biso   1.000  P
  C47      1.0000 0.87120  0.69850  0.10740  Biso   1.000  C
  C48      1.0000 0.92530  0.67680  0.07200  Biso   1.000  C
  C49      1.0000 0.96270  0.53690  0.06310  Biso   1.000  C
  H33      1.0000 0.99380  0.52170  0.03810  Biso   1.000  H
  C50      1.0000 0.95600  0.41980  0.08960  Biso   1.000  C
  C51      1.0000 0.90560  0.44160  0.12530  Biso   1.000  C
  C52      1.0000 0.86180  0.57750  0.13320  Biso   1.000  C
  H34      1.0000 0.82390  0.58990  0.15690  Biso   1.000  H
  C53      1.0000 0.94670  0.79910  0.04300  Biso   1.000  C
  C54      1.0000 0.00800  0.27390  0.08120  Biso   1.000  C
  C55      1.0000 0.89480  0.32810  0.15890  Biso   1.000  C
  C56      1.0000 0.35660  0.27640  0.14150  Biso   1.000  C
  C57      1.0000 0.30250  0.29660  0.17710  Biso   1.000  C
  C58      1.0000 0.26300  0.43280  0.18640  Biso   1.000  C
  H35      1.0000 0.23170  0.44580  0.21150  Biso   1.000  H
  C59      1.0000 0.26790  0.55180  0.16000  Biso   1.000  C
  C60      1.0000 0.32140  0.53200  0.12410  Biso   1.000  C
  C61      1.0000 0.36670  0.39600  0.11600  Biso   1.000  C
  H36      1.0000 0.40560  0.38420  0.09250  Biso   1.000  H
  C62      1.0000 0.28410  0.17390  0.20690  Biso   1.000  C
  C63      1.0000 0.21810  0.69870  0.16810  Biso   1.000  C
  C64      1.0000 0.33530  0.64770  0.09210  Biso   1.000  C
  C65      1.0000 0.50790  0.70210  0.24110  Biso   1.000  C
  H37      1.0000 0.46770  0.78740  0.24870  Biso   1.000  H
  C66      1.0000 0.61230  0.55080  0.21050  Biso   1.000  C
  H38      1.0000 0.65970  0.51230  0.19140  Biso   1.000  H
  C67      1.0000 0.58400  0.47730  0.24290  Biso   1.000  C
  H39      1.0000 0.60560  0.37890  0.25080  Biso   1.000  H
  C68      1.0000 0.45930  0.53960  0.29880  Biso   1.000  C
  H40      1.0000 0.40770  0.62450  0.30470  Biso   1.000  H
  H41      1.0000 0.39340  0.45770  0.29010  Biso   1.000  H
  C69      1.0000 0.57330  0.50020  0.34020  Biso   1.000  C
  C70      1.0000 0.62650  0.60240  0.37220  Biso   1.000  C
  H42      1.0000 0.58880  0.69750  0.36890  Biso   1.000  H
  C71      1.0000 0.73520  0.56750  0.40950  Biso   1.000  C
  C72      1.0000 0.78860  0.43010  0.41480  Biso   1.000  C
  H43      1.0000 0.86330  0.40640  0.44020  Biso   1.000  H
  C73      1.0000 0.73360  0.32610  0.38330  Biso   1.000  C
  H44      1.0000 0.77060  0.23070  0.38730  Biso   1.000  H
  C74      1.0000 0.62570  0.35820  0.34580  Biso   1.000  C
  H45      1.0000 0.58780  0.28570  0.32440  Biso   1.000  H
  C75      1.0000 0.79260  0.67850  0.44530  Biso   1.000  C
  H46      1.0000 0.78040  0.77670  0.43220  Biso   1.000  H
  H47      1.0000 0.89320  0.66160  0.45890  Biso   1.000  H
  C76      1.0000 0.72560  0.77860  0.50840  Biso   1.000  C
  H48      1.0000 0.76390  0.87210  0.50740  Biso   1.000  H
  C77      1.0000 0.65990  0.55420  0.49220  Biso   1.000  C
  H49      1.0000 0.64300  0.46210  0.47830  Biso   1.000  H
  C78      1.0000 0.62660  0.59590  0.52880  Biso   1.000  C
  H50      1.0000 0.58180  0.53660  0.54480  Biso   1.000  H
  C79      1.0000 0.00280  0.37000  0.75780  Biso   1.000  C
  H51      1.0000 0.04420  0.43110  0.74120  Biso   1.000  H
  C80      1.0000 0.93250  0.18170  0.78500  Biso   1.000  C
  H52      1.0000 0.91550  0.08360  0.79080  Biso   1.000  H
  C81      1.0000 0.89680  0.29990  0.80540  Biso   1.000  C
  H53      1.0000 0.85030  0.30010  0.82730  Biso   1.000  H
  C82      1.0000 0.93870  0.56740  0.80210  Biso   1.000  C
  H54      1.0000 0.91800  0.63280  0.77620  Biso   1.000  H
  H55      1.0000 0.86370  0.57830  0.81600  Biso   1.000  H
  C83      1.0000 0.07470  0.61040  0.83460  Biso   1.000  C
  C84      1.0000 0.10920  0.57040  0.87790  Biso   1.000  C
  H56      1.0000 0.04490  0.51510  0.88780  Biso   1.000  H
  C85      1.0000 0.16860  0.68900  0.82010  Biso   1.000  C
  H57      1.0000 0.14600  0.71710  0.79000  Biso   1.000  H
  C86      1.0000 0.29550  0.72690  0.84920  Biso   1.000  C
  H58      1.0000 0.35980  0.78090  0.83900  Biso   1.000  H
  C87      1.0000 0.32970  0.68710  0.89290  Biso   1.000  C
  H59      1.0000 0.41730  0.71380  0.91260  Biso   1.000  H
  C88      1.0000 0.23750  0.60870  0.90840  Biso   1.000  C
  C89      1.0000 0.27590  0.56980  0.95650  Biso   1.000  C
  H60      1.0000 0.21230  0.62080  0.96990  Biso   1.000  H
  H61      1.0000 0.37110  0.60520  0.97120  Biso   1.000  H
  C90      1.0000 0.21340  0.35340  0.99400  Biso   1.000  C
  H62      1.0000 0.16650  0.40560  0.01100  Biso   1.000  H
  C91      1.0000 0.32970  0.30440  0.94830  Biso   1.000  C
  H63      1.0000 0.38000  0.31240  0.92750  Biso   1.000  H
  C92      1.0000 0.30270  0.18250  0.96680  Biso   1.000  C
  H64      1.0000 0.33010  0.08840  0.96060  Biso   1.000  H
  N9       1.0000 0.56230  0.69200  0.20890  Biso   1.000  N
  N10      1.0000 0.51700  0.57370  0.26230  Biso   1.000  N
  N11      1.0000 0.66680  0.73430  0.53900  Biso   1.000  N
  N12      1.0000 0.72230  0.67010  0.47920  Biso   1.000  N
  N13      1.0000 0.99720  0.22770  0.75460  Biso   1.000  N
  N14      1.0000 0.94210  0.41740  0.78750  Biso   1.000  N
  N15      1.0000 0.23010  0.21160  0.99590  Biso   1.000  N
  N16      1.0000 0.27060  0.41620  0.96500  Biso   1.000  N
  O19      1.0000 0.75690  0.96370  0.08830  Biso   1.000  O
  O20      1.0000 0.73950  0.83890  0.15723  Biso   1.000  O
  O21      1.0000 0.96850  0.93010  0.15512  Biso   1.000  O
  O22      1.0000 0.01490  0.91160  0.06040  Biso   1.000  O
  O23      1.0000 0.90290  0.77980  0.00170  Biso   1.000  O
  O24      1.0000 0.04060  0.25390  0.04620  Biso   1.000  O
  O25      1.0000 0.01350  0.18230  0.11081  Biso   1.000  O
  O26      1.0000 0.78410  0.24860  0.14870  Biso   1.000  O
  O27      1.0000 0.98130  0.33090  0.19570  Biso   1.000  O
  O28      1.0000 0.48880  0.13700  0.09190  Biso   1.000  O
  O29      1.0000 0.47240  0.01210  0.16119  Biso   1.000  O
  O30      1.0000 0.25950  0.04380  0.09430  Biso   1.000  O
  O31      1.0000 0.21640  0.06110  0.18950  Biso   1.000  O
  O32      1.0000 0.33490  0.19120  0.24710  Biso   1.000  O
  O33      1.0000 0.18030  0.71520  0.20224  Biso   1.000  O
  O34      1.0000 0.21760  0.79330  0.14060  Biso   1.000  O
  O35      1.0000 0.44410  0.72500  0.10170  Biso   1.000  O
  O36      1.0000 0.24740  0.64970  0.05500  Biso   1.000  O
