data_image0
_cell_length_a       9.247
_cell_length_b       9.97
_cell_length_c       15.025
_cell_angle_alpha    100.151
_cell_angle_beta     91.372
_cell_angle_gamma    91.776

_symmetry_space_group_name_H-M    "P 1"
_symmetry_int_tables_number       1

loop_
  _symmetry_equiv_pos_as_xyz
  'x, y, z'

loop_
  _atom_site_label
  _atom_site_occupancy
  _atom_site_fract_x
  _atom_site_fract_y
  _atom_site_fract_z
  _atom_site_thermal_displace_type
  _atom_site_B_iso_or_equiv
  _atom_site_type_symbol
  Co1      1.0000 0.06792  0.84395  0.80653  Biso   1.000  Co
  Co2      1.0000 0.82937  0.61331  0.06252  Biso   1.000  Co
  P1       1.0000 0.11377  0.71019  0.99383  Biso   1.000  P
  O1       1.0000 0.13870  0.57550  0.93437  Biso   1.000  O
  O2       1.0000 0.05080  0.80820  0.93805  Biso   1.000  O
  O3       1.0000 0.02320  0.69710  0.07560  Biso   1.000  O
  O4       1.0000 0.08400  0.99760  0.13207  Biso   1.000  O
  O5       1.0000 0.21360  0.96330  0.25120  Biso   1.000  O
  O6       1.0000 0.74320  0.04480  0.15950  Biso   1.000  O
  O7       1.0000 0.80680  0.91530  0.03119  Biso   1.000  O
  O8       1.0000 0.72450  0.62970  0.95098  Biso   1.000  O
  O9       1.0000 0.64930  0.76210  0.85726  Biso   1.000  O
  N1       1.0000 0.71140  0.67730  0.17000  Biso   1.000  N
  N2       1.0000 0.62640  0.80990  0.28710  Biso   1.000  N
  N3       1.0000 0.39780  0.59900  0.68440  Biso   1.000  N
  N4       1.0000 0.19970  0.68730  0.74350  Biso   1.000  N
  C1       1.0000 0.28680  0.78390  0.03430  Biso   1.000  C
  C2       1.0000 0.31200  0.89100  0.10790  Biso   1.000  C
  C3       1.0000 0.45360  0.94060  0.12610  Biso   1.000  C
  H1       1.0000 0.47300  0.00920  0.17790  Biso   1.000  H
  C4       1.0000 0.56770  0.89500  0.07240  Biso   1.000  C
  C5       1.0000 0.54120  0.78930  0.99890  Biso   1.000  C
  C6       1.0000 0.40230  0.73490  0.98160  Biso   1.000  C
  H2       1.0000 0.38480  0.66170  0.93240  Biso   1.000  H
  C7       1.0000 0.19430  0.95280  0.16850  Biso   1.000  C
  C8       1.0000 0.71710  0.95710  0.08900  Biso   1.000  C
  C9       1.0000 0.64980  0.72900  0.93200  Biso   1.000  C
  C10      1.0000 0.74230  0.77990  0.23650  Biso   1.000  C
  H3       1.0000 0.83410  0.82620  0.24710  Biso   1.000  H
  C11      1.0000 0.56910  0.63990  0.17910  Biso   1.000  C
  H4       1.0000 0.51640  0.56800  0.14070  Biso   1.000  H
  C12      1.0000 0.51600  0.72150  0.25110  Biso   1.000  C
  H5       1.0000 0.42050  0.71810  0.27260  Biso   1.000  H
  C13      1.0000 0.62010  0.91550  0.36830  Biso   1.000  C
  H6       1.0000 0.53770  0.97470  0.36230  Biso   1.000  H
  H7       1.0000 0.71030  0.97290  0.37570  Biso   1.000  H
  C14      1.0000 0.60160  0.84780  0.44990  Biso   1.000  C
  C15      1.0000 0.46500  0.80510  0.46980  Biso   1.000  C
  H8       1.0000 0.38300  0.83050  0.43810  Biso   1.000  H
  C16      1.0000 0.44650  0.72550  0.53540  Biso   1.000  C
  H9       1.0000 0.35190  0.69440  0.54730  Biso   1.000  H
  C17      1.0000 0.56360  0.69080  0.58390  Biso   1.000  C
  C18      1.0000 0.70220  0.73960  0.56660  Biso   1.000  C
  H10      1.0000 0.78400  0.71960  0.60080  Biso   1.000  H
  C19      1.0000 0.71900  0.81670  0.49980  Biso   1.000  C
  H11      1.0000 0.81300  0.84900  0.48790  Biso   1.000  H
  C20      1.0000 0.54530  0.59940  0.65260  Biso   1.000  C
  H12      1.0000 0.56970  0.50540  0.62540  Biso   1.000  H
  H13      1.0000 0.61310  0.63080  0.70460  Biso   1.000  H
  C21      1.0000 0.34060  0.70440  0.73900  Biso   1.000  C
  H14      1.0000 0.39510  0.78150  0.77020  Biso   1.000  H
  C22      1.0000 0.28590  0.51070  0.65130  Biso   1.000  C
  H15      1.0000 0.29180  0.42730  0.61010  Biso   1.000  H
  C23      1.0000 0.16590  0.56480  0.68840  Biso   1.000  C
  H16      1.0000 0.07130  0.52430  0.67800  Biso   1.000  H
  Co3      1.0000 0.93208  0.15605  0.19347  Biso   1.000  Co
  Co4      1.0000 0.17063  0.38669  0.93748  Biso   1.000  Co
  P2       1.0000 0.88623  0.28981  0.00617  Biso   1.000  P
  O10      1.0000 0.86130  0.42450  0.06563  Biso   1.000  O
  O11      1.0000 0.94920  0.19180  0.06195  Biso   1.000  O
  O12      1.0000 0.97680  0.30290  0.92440  Biso   1.000  O
  O13      1.0000 0.91600  0.00240  0.86793  Biso   1.000  O
  O14      1.0000 0.78640  0.03670  0.74880  Biso   1.000  O
  O15      1.0000 0.25680  0.95520  0.84050  Biso   1.000  O
  O16      1.0000 0.19320  0.08470  0.96881  Biso   1.000  O
  O17      1.0000 0.27550  0.37030  0.04902  Biso   1.000  O
  O18      1.0000 0.35070  0.23790  0.14274  Biso   1.000  O
  N5       1.0000 0.28860  0.32270  0.83000  Biso   1.000  N
  N6       1.0000 0.37360  0.19010  0.71290  Biso   1.000  N
  N7       1.0000 0.60220  0.40100  0.31560  Biso   1.000  N
  N8       1.0000 0.80030  0.31270  0.25650  Biso   1.000  N
  C24      1.0000 0.71320  0.21610  0.96570  Biso   1.000  C
  C25      1.0000 0.68800  0.10900  0.89210  Biso   1.000  C
  C26      1.0000 0.54640  0.05940  0.87390  Biso   1.000  C
  H17      1.0000 0.52700  0.99080  0.82210  Biso   1.000  H
  C27      1.0000 0.43230  0.10500  0.92760  Biso   1.000  C
  C28      1.0000 0.45880  0.21070  0.00110  Biso   1.000  C
  C29      1.0000 0.59770  0.26510  0.01840  Biso   1.000  C
  H18      1.0000 0.61520  0.33830  0.06760  Biso   1.000  H
  C30      1.0000 0.80570  0.04720  0.83150  Biso   1.000  C
  C31      1.0000 0.28290  0.04290  0.91100  Biso   1.000  C
  C32      1.0000 0.35020  0.27100  0.06800  Biso   1.000  C
  C33      1.0000 0.25770  0.22010  0.76350  Biso   1.000  C
  H19      1.0000 0.16590  0.17380  0.75290  Biso   1.000  H
  C34      1.0000 0.43090  0.36010  0.82090  Biso   1.000  C
  H20      1.0000 0.48360  0.43200  0.85930  Biso   1.000  H
  C35      1.0000 0.48400  0.27850  0.74890  Biso   1.000  C
  H21      1.0000 0.57950  0.28190  0.72740  Biso   1.000  H
  C36      1.0000 0.37990  0.08450  0.63170  Biso   1.000  C
  H22      1.0000 0.46230  0.02530  0.63770  Biso   1.000  H
  H23      1.0000 0.28970  0.02710  0.62430  Biso   1.000  H
  C37      1.0000 0.39840  0.15220  0.55010  Biso   1.000  C
  C38      1.0000 0.53500  0.19490  0.53020  Biso   1.000  C
  H24      1.0000 0.61700  0.16950  0.56190  Biso   1.000  H
  C39      1.0000 0.55350  0.27450  0.46460  Biso   1.000  C
  H25      1.0000 0.64810  0.30560  0.45270  Biso   1.000  H
  C40      1.0000 0.43640  0.30920  0.41610  Biso   1.000  C
  C41      1.0000 0.29780  0.26040  0.43340  Biso   1.000  C
  H26      1.0000 0.21600  0.28040  0.39920  Biso   1.000  H
  C42      1.0000 0.28100  0.18330  0.50020  Biso   1.000  C
  H27      1.0000 0.18700  0.15100  0.51210  Biso   1.000  H
  C43      1.0000 0.45470  0.40060  0.34740  Biso   1.000  C
  H28      1.0000 0.43030  0.49460  0.37460  Biso   1.000  H
  H29      1.0000 0.38690  0.36920  0.29540  Biso   1.000  H
  C44      1.0000 0.65940  0.29560  0.26100  Biso   1.000  C
  H30      1.0000 0.60490  0.21850  0.22980  Biso   1.000  H
  C45      1.0000 0.71410  0.48930  0.34870  Biso   1.000  C
  H31      1.0000 0.70820  0.57270  0.38990  Biso   1.000  H
  C46      1.0000 0.83410  0.43520  0.31160  Biso   1.000  C
  H32      1.0000 0.92870  0.47570  0.32200  Biso   1.000  H
  Co5      1.0000 0.00000  0.00000  0.00000  Biso   1.000  Co
