data_image0
_cell_length_a       9.6827
_cell_length_b       27.686
_cell_length_c       9.105
_cell_angle_alpha    90
_cell_angle_beta     121.794
_cell_angle_gamma    90

_symmetry_space_group_name_H-M    "P 1"
_symmetry_int_tables_number       1

loop_
  _symmetry_equiv_pos_as_xyz
  'x, y, z'

loop_
  _atom_site_label
  _atom_site_occupancy
  _atom_site_fract_x
  _atom_site_fract_y
  _atom_site_fract_z
  _atom_site_thermal_displace_type
  _atom_site_B_iso_or_equiv
  _atom_site_type_symbol
  Nd1      1.0000 0.97432  0.50916  0.99873  Biso   1.000  Nd
  O1       1.0000 0.12400  0.48330  0.29900  Biso   1.000  O
  O2       1.0000 0.26100  0.46150  0.57000  Biso   1.000  O
  O3       1.0000 0.82500  0.48390  0.69700  Biso   1.000  O
  O4       1.0000 0.70000  0.46010  0.42900  Biso   1.000  O
  C1       1.0000 0.25200  0.46740  0.43300  Biso   1.000  C
  C2       1.0000 0.38800  0.45720  0.42100  Biso   1.000  C
  H1       1.0000 0.38550  0.47850  0.33300  Biso   1.000  H
  H2       1.0000 0.37950  0.42340  0.38160  Biso   1.000  H
  C3       1.0000 0.54900  0.46360  0.59000  Biso   1.000  C
  H3       1.0000 0.56780  0.43510  0.66390  Biso   1.000  H
  H4       1.0000 0.54160  0.49230  0.64990  Biso   1.000  H
  C4       1.0000 0.70100  0.46990  0.56700  Biso   1.000  C
  O5       1.0000 0.90600  0.58370  0.82600  Biso   1.000  O
  O6       1.0000 0.05900  0.58610  0.17200  Biso   1.000  O
  C5       1.0000 0.93400  0.62540  0.90400  Biso   1.000  C
  C6       1.0000 0.03500  0.62490  0.10600  Biso   1.000  C
  Nd2      1.0000 0.99200  0.74104  0.99735  Biso   1.000  Nd
  O7       1.0000 0.89400  0.66620  0.82600  Biso   1.000  O
  O8       1.0000 0.08600  0.66460  0.17300  Biso   1.000  O
  O9       1.0000 0.14600  0.76660  0.29900  Biso   1.000  O
  O10      1.0000 0.28700  0.79140  0.56900  Biso   1.000  O
  O11      1.0000 0.70600  0.79020  0.42900  Biso   1.000  O
  O12      1.0000 0.84400  0.76530  0.69700  Biso   1.000  O
  C7       1.0000 0.14700  0.78040  0.43200  Biso   1.000  C
  C8       1.0000 0.98800  0.78600  0.42200  Biso   1.000  C
  H5       1.0000 0.92770  0.81270  0.34080  Biso   1.000  H
  H6       1.0000 0.92420  0.75610  0.36930  Biso   1.000  H
  C9       1.0000 0.98500  0.79530  0.58000  Biso   1.000  C
  H7       1.0000 0.07340  0.77650  0.67650  Biso   1.000  H
  H8       1.0000 0.00800  0.82990  0.61010  Biso   1.000  H
  C10      1.0000 0.83600  0.78340  0.56600  Biso   1.000  C
  Nd3      1.0000 0.47432  0.00916  0.99873  Biso   1.000  Nd
  O13      1.0000 0.62400  0.98330  0.29900  Biso   1.000  O
  O14      1.0000 0.76100  0.96150  0.57000  Biso   1.000  O
  O15      1.0000 0.32500  0.98390  0.69700  Biso   1.000  O
  O16      1.0000 0.20000  0.96010  0.42900  Biso   1.000  O
  C11      1.0000 0.75200  0.96740  0.43300  Biso   1.000  C
  C12      1.0000 0.88800  0.95720  0.42100  Biso   1.000  C
  H9       1.0000 0.88550  0.97850  0.33300  Biso   1.000  H
  H10      1.0000 0.87950  0.92340  0.38160  Biso   1.000  H
  C13      1.0000 0.04900  0.96360  0.59000  Biso   1.000  C
  H11      1.0000 0.06780  0.93510  0.66390  Biso   1.000  H
  H12      1.0000 0.04160  0.99230  0.64990  Biso   1.000  H
  C14      1.0000 0.20100  0.96990  0.56700  Biso   1.000  C
  O17      1.0000 0.40600  0.08370  0.82600  Biso   1.000  O
  O18      1.0000 0.55900  0.08610  0.17200  Biso   1.000  O
  C15      1.0000 0.43400  0.12540  0.90400  Biso   1.000  C
  C16      1.0000 0.53500  0.12490  0.10600  Biso   1.000  C
  Nd4      1.0000 0.49200  0.24104  0.99735  Biso   1.000  Nd
  O19      1.0000 0.39400  0.16620  0.82600  Biso   1.000  O
  O20      1.0000 0.58600  0.16460  0.17300  Biso   1.000  O
  O21      1.0000 0.64600  0.26660  0.29900  Biso   1.000  O
  O22      1.0000 0.78700  0.29140  0.56900  Biso   1.000  O
  O23      1.0000 0.20600  0.29020  0.42900  Biso   1.000  O
  O24      1.0000 0.34400  0.26530  0.69700  Biso   1.000  O
  C17      1.0000 0.64700  0.28040  0.43200  Biso   1.000  C
  C18      1.0000 0.48800  0.28600  0.42200  Biso   1.000  C
  H13      1.0000 0.42770  0.31270  0.34080  Biso   1.000  H
  H14      1.0000 0.42420  0.25610  0.36930  Biso   1.000  H
  C19      1.0000 0.48500  0.29530  0.58000  Biso   1.000  C
  H15      1.0000 0.57340  0.27650  0.67650  Biso   1.000  H
  H16      1.0000 0.50800  0.32990  0.61010  Biso   1.000  H
  C20      1.0000 0.33600  0.28340  0.56600  Biso   1.000  C
  Nd5      1.0000 0.97432  0.49084  0.49873  Biso   1.000  Nd
  O25      1.0000 0.12400  0.51670  0.79900  Biso   1.000  O
  O26      1.0000 0.26100  0.53850  0.07000  Biso   1.000  O
  O27      1.0000 0.82500  0.51610  0.19700  Biso   1.000  O
  O28      1.0000 0.70000  0.53990  0.92900  Biso   1.000  O
  C21      1.0000 0.25200  0.53260  0.93300  Biso   1.000  C
  C22      1.0000 0.38800  0.54280  0.92100  Biso   1.000  C
  H17      1.0000 0.38550  0.52150  0.83300  Biso   1.000  H
  H18      1.0000 0.37950  0.57660  0.88160  Biso   1.000  H
  C23      1.0000 0.54900  0.53640  0.09000  Biso   1.000  C
  H19      1.0000 0.56780  0.56490  0.16390  Biso   1.000  H
  H20      1.0000 0.54160  0.50770  0.14990  Biso   1.000  H
  C24      1.0000 0.70100  0.53010  0.06700  Biso   1.000  C
  O29      1.0000 0.90600  0.41630  0.32600  Biso   1.000  O
  O30      1.0000 0.05900  0.41390  0.67200  Biso   1.000  O
  C25      1.0000 0.93400  0.37460  0.40400  Biso   1.000  C
  C26      1.0000 0.03500  0.37510  0.60600  Biso   1.000  C
  Nd6      1.0000 0.99200  0.25896  0.49735  Biso   1.000  Nd
  O31      1.0000 0.89400  0.33380  0.32600  Biso   1.000  O
  O32      1.0000 0.08600  0.33540  0.67300  Biso   1.000  O
  O33      1.0000 0.14600  0.23340  0.79900  Biso   1.000  O
  O34      1.0000 0.28700  0.20860  0.06900  Biso   1.000  O
  O35      1.0000 0.70600  0.20980  0.92900  Biso   1.000  O
  O36      1.0000 0.84400  0.23470  0.19700  Biso   1.000  O
  C27      1.0000 0.14700  0.21960  0.93200  Biso   1.000  C
  C28      1.0000 0.98800  0.21400  0.92200  Biso   1.000  C
  H21      1.0000 0.92770  0.18730  0.84080  Biso   1.000  H
  H22      1.0000 0.92420  0.24390  0.86930  Biso   1.000  H
  C29      1.0000 0.98500  0.20470  0.08000  Biso   1.000  C
  H23      1.0000 0.07340  0.22350  0.17650  Biso   1.000  H
  H24      1.0000 0.00800  0.17010  0.11010  Biso   1.000  H
  C30      1.0000 0.83600  0.21660  0.06600  Biso   1.000  C
  Nd7      1.0000 0.47432  0.99084  0.49873  Biso   1.000  Nd
  O37      1.0000 0.62400  0.01670  0.79900  Biso   1.000  O
  O38      1.0000 0.76100  0.03850  0.07000  Biso   1.000  O
  O39      1.0000 0.32500  0.01610  0.19700  Biso   1.000  O
  O40      1.0000 0.20000  0.03990  0.92900  Biso   1.000  O
  C31      1.0000 0.75200  0.03260  0.93300  Biso   1.000  C
  C32      1.0000 0.88800  0.04280  0.92100  Biso   1.000  C
  H25      1.0000 0.88550  0.02150  0.83300  Biso   1.000  H
  H26      1.0000 0.87950  0.07660  0.88160  Biso   1.000  H
  C33      1.0000 0.04900  0.03640  0.09000  Biso   1.000  C
  H27      1.0000 0.06780  0.06490  0.16390  Biso   1.000  H
  H28      1.0000 0.04160  0.00770  0.14990  Biso   1.000  H
  C34      1.0000 0.20100  0.03010  0.06700  Biso   1.000  C
  O41      1.0000 0.40600  0.91630  0.32600  Biso   1.000  O
  O42      1.0000 0.55900  0.91390  0.67200  Biso   1.000  O
  C35      1.0000 0.43400  0.87460  0.40400  Biso   1.000  C
  C36      1.0000 0.53500  0.87510  0.60600  Biso   1.000  C
  Nd8      1.0000 0.49200  0.75896  0.49735  Biso   1.000  Nd
  O43      1.0000 0.39400  0.83380  0.32600  Biso   1.000  O
  O44      1.0000 0.58600  0.83540  0.67300  Biso   1.000  O
  O45      1.0000 0.64600  0.73340  0.79900  Biso   1.000  O
  O46      1.0000 0.78700  0.70860  0.06900  Biso   1.000  O
  O47      1.0000 0.20600  0.70980  0.92900  Biso   1.000  O
  O48      1.0000 0.34400  0.73470  0.19700  Biso   1.000  O
  C37      1.0000 0.64700  0.71960  0.93200  Biso   1.000  C
  C38      1.0000 0.48800  0.71400  0.92200  Biso   1.000  C
  H29      1.0000 0.42770  0.68730  0.84080  Biso   1.000  H
  H30      1.0000 0.42420  0.74390  0.86930  Biso   1.000  H
  C39      1.0000 0.48500  0.70470  0.08000  Biso   1.000  C
  H31      1.0000 0.57340  0.72350  0.17650  Biso   1.000  H
  H32      1.0000 0.50800  0.67010  0.11010  Biso   1.000  H
  C40      1.0000 0.33600  0.71660  0.06600  Biso   1.000  C
