data_image0
_cell_length_a       9.63
_cell_length_b       10.0916
_cell_length_c       11.7335
_cell_angle_alpha    87.958
_cell_angle_beta     67.638
_cell_angle_gamma    68.181

_symmetry_space_group_name_H-M    "P 1"
_symmetry_int_tables_number       1

loop_
  _symmetry_equiv_pos_as_xyz
  'x, y, z'

loop_
  _atom_site_label
  _atom_site_occupancy
  _atom_site_fract_x
  _atom_site_fract_y
  _atom_site_fract_z
  _atom_site_thermal_displace_type
  _atom_site_B_iso_or_equiv
  _atom_site_type_symbol
  Pr1      1.0000 0.29076  0.96267  0.02245  Biso   1.000  Pr
  O1       1.0000 0.47650  0.17290  0.17300  Biso   1.000  O
  O2       1.0000 0.25350  0.14230  0.18360  Biso   1.000  O
  O3       1.0000 0.54930  0.27980  0.93120  Biso   1.000  O
  O4       1.0000 0.44220  0.12180  0.92500  Biso   1.000  O
  O5       1.0000 0.16930  0.79880  0.00000  Biso   1.000  O
  O6       1.0000 0.98350  0.86120  0.91820  Biso   1.000  O
  N1       1.0000 0.09480  0.34740  0.61070  Biso   1.000  N
  C1       1.0000 0.43910  0.24740  0.91820  Biso   1.000  C
  C2       1.0000 0.30700  0.36330  0.89240  Biso   1.000  C
  C3       1.0000 0.22390  0.32550  0.83380  Biso   1.000  C
  C4       1.0000 0.10250  0.43130  0.80850  Biso   1.000  C
  C5       1.0000 0.06060  0.57610  0.84200  Biso   1.000  C
  C6       1.0000 0.14320  0.61330  0.90280  Biso   1.000  C
  C7       1.0000 0.26530  0.50730  0.92870  Biso   1.000  C
  C8       1.0000 0.09440  0.76940  0.94310  Biso   1.000  C
  C9       1.0000 0.00710  0.38970  0.74770  Biso   1.000  C
  C10      1.0000 0.24750  0.33810  0.54710  Biso   1.000  C
  C11      1.0000 0.32460  0.28900  0.42050  Biso   1.000  C
  C12      1.0000 0.24670  0.24720  0.36240  Biso   1.000  C
  C13      1.0000 0.08640  0.26040  0.42870  Biso   1.000  C
  C14      1.0000 0.01150  0.31210  0.55460  Biso   1.000  C
  C15      1.0000 0.33640  0.18080  0.22580  Biso   1.000  C
  Pr2      1.0000 0.70924  0.03733  0.97755  Biso   1.000  Pr
  O7       1.0000 0.52350  0.82710  0.82700  Biso   1.000  O
  O8       1.0000 0.74650  0.85770  0.81640  Biso   1.000  O
  O9       1.0000 0.45070  0.72020  0.06880  Biso   1.000  O
  O10      1.0000 0.55780  0.87820  0.07500  Biso   1.000  O
  O11      1.0000 0.83070  0.20120  0.00000  Biso   1.000  O
  O12      1.0000 0.01650  0.13880  0.08180  Biso   1.000  O
  N2       1.0000 0.90520  0.65260  0.38930  Biso   1.000  N
  C16      1.0000 0.56090  0.75260  0.08180  Biso   1.000  C
  C17      1.0000 0.69300  0.63670  0.10760  Biso   1.000  C
  C18      1.0000 0.77610  0.67450  0.16620  Biso   1.000  C
  C19      1.0000 0.89750  0.56870  0.19150  Biso   1.000  C
  C20      1.0000 0.93940  0.42390  0.15800  Biso   1.000  C
  C21      1.0000 0.85680  0.38670  0.09720  Biso   1.000  C
  C22      1.0000 0.73470  0.49270  0.07130  Biso   1.000  C
  C23      1.0000 0.90560  0.23060  0.05690  Biso   1.000  C
  C24      1.0000 0.99290  0.61030  0.25230  Biso   1.000  C
  C25      1.0000 0.75250  0.66190  0.45290  Biso   1.000  C
  C26      1.0000 0.67540  0.71100  0.57950  Biso   1.000  C
  C27      1.0000 0.75330  0.75280  0.63760  Biso   1.000  C
  C28      1.0000 0.91360  0.73960  0.57130  Biso   1.000  C
  C29      1.0000 0.98850  0.68790  0.44540  Biso   1.000  C
  C30      1.0000 0.66360  0.81920  0.77420  Biso   1.000  C
