data_image0
_cell_length_a       17.5279
_cell_length_b       17.5279
_cell_length_c       17.5279
_cell_angle_alpha    90
_cell_angle_beta     90
_cell_angle_gamma    90

_symmetry_space_group_name_H-M    "P 1"
_symmetry_int_tables_number       1

loop_
  _symmetry_equiv_pos_as_xyz
  'x, y, z'

loop_
  _atom_site_label
  _atom_site_occupancy
  _atom_site_fract_x
  _atom_site_fract_y
  _atom_site_fract_z
  _atom_site_thermal_displace_type
  _atom_site_B_iso_or_equiv
  _atom_site_type_symbol
  Co1      1.0000 0.87133  0.10553  0.23826  Biso   1.000  Co
  N1       1.0000 0.79240  0.02570  0.21110  Biso   1.000  N
  O1       1.0000 0.76964  0.17342  0.19427  Biso   1.000  O
  N2       1.0000 0.96180  0.03730  0.26530  Biso   1.000  N
  O2       1.0000 0.93080  0.15590  0.15410  Biso   1.000  O
  O3       1.0000 0.85460  0.15220  0.34035  Biso   1.000  O
  C1       1.0000 0.78520  0.95190  0.21460  Biso   1.000  C
  C2       1.0000 0.72310  0.05200  0.18120  Biso   1.000  C
  C3       1.0000 0.71280  0.13430  0.17320  Biso   1.000  C
  C4       1.0000 0.01800  0.01810  0.21560  Biso   1.000  C
  C5       1.0000 0.97980  0.00050  0.32910  Biso   1.000  C
  C6       1.0000 0.93140  0.22540  0.13810  Biso   1.000  C
  N3       1.0000 0.71810  0.92550  0.19040  Biso   1.000  N
  H1       1.0000 0.82540  0.91950  0.23380  Biso   1.000  H
  C7       1.0000 0.67840  0.98910  0.16860  Biso   1.000  C
  O4       1.0000 0.90124  0.27904  0.17816  Biso   1.000  O
  C8       1.0000 0.06750  0.97020  0.25110  Biso   1.000  C
  H2       1.0000 0.02220  0.03320  0.16630  Biso   1.000  H
  N4       1.0000 0.04290  0.95970  0.32470  Biso   1.000  N
  H3       1.0000 0.95150  0.00170  0.37430  Biso   1.000  H
  H4       1.0000 0.63020  0.99020  0.15110  Biso   1.000  H
  Co2      1.0000 0.62867  0.89447  0.73826  Biso   1.000  Co
  N5       1.0000 0.70760  0.97430  0.71110  Biso   1.000  N
  O5       1.0000 0.73036  0.82658  0.69427  Biso   1.000  O
  N6       1.0000 0.53820  0.96270  0.76530  Biso   1.000  N
  O6       1.0000 0.56920  0.84410  0.65410  Biso   1.000  O
  O7       1.0000 0.64540  0.84780  0.84035  Biso   1.000  O
  C9       1.0000 0.71480  0.04810  0.71460  Biso   1.000  C
  C10      1.0000 0.77690  0.94800  0.68120  Biso   1.000  C
  C11      1.0000 0.78720  0.86570  0.67320  Biso   1.000  C
  C12      1.0000 0.48200  0.98190  0.71560  Biso   1.000  C
  C13      1.0000 0.52020  0.99950  0.82910  Biso   1.000  C
  C14      1.0000 0.56860  0.77460  0.63810  Biso   1.000  C
  N7       1.0000 0.78190  0.07450  0.69040  Biso   1.000  N
  H5       1.0000 0.67460  0.08050  0.73380  Biso   1.000  H
  C15      1.0000 0.82160  0.01090  0.66860  Biso   1.000  C
  O8       1.0000 0.59876  0.72096  0.67816  Biso   1.000  O
  C16      1.0000 0.43250  0.02980  0.75110  Biso   1.000  C
  H6       1.0000 0.47780  0.96680  0.66630  Biso   1.000  H
  N8       1.0000 0.45710  0.04030  0.82470  Biso   1.000  N
  H7       1.0000 0.54850  0.99830  0.87430  Biso   1.000  H
  H8       1.0000 0.86980  0.00980  0.65110  Biso   1.000  H
  Co3      1.0000 0.12867  0.60553  0.26174  Biso   1.000  Co
  N9       1.0000 0.20760  0.52570  0.28890  Biso   1.000  N
  O9       1.0000 0.23036  0.67342  0.30573  Biso   1.000  O
  N10      1.0000 0.03820  0.53730  0.23470  Biso   1.000  N
  O10      1.0000 0.06920  0.65590  0.34590  Biso   1.000  O
  O11      1.0000 0.14540  0.65220  0.15965  Biso   1.000  O
  C17      1.0000 0.21480  0.45190  0.28540  Biso   1.000  C
  C18      1.0000 0.27690  0.55200  0.31880  Biso   1.000  C
  C19      1.0000 0.28720  0.63430  0.32680  Biso   1.000  C
  C20      1.0000 0.98200  0.51810  0.28440  Biso   1.000  C
  C21      1.0000 0.02020  0.50050  0.17090  Biso   1.000  C
  C22      1.0000 0.06860  0.72540  0.36190  Biso   1.000  C
  N11      1.0000 0.28190  0.42550  0.30960  Biso   1.000  N
  H9       1.0000 0.17460  0.41950  0.26620  Biso   1.000  H
  C23      1.0000 0.32160  0.48910  0.33140  Biso   1.000  C
  O12      1.0000 0.09876  0.77904  0.32184  Biso   1.000  O
  C24      1.0000 0.93250  0.47020  0.24890  Biso   1.000  C
  H10      1.0000 0.97780  0.53320  0.33370  Biso   1.000  H
  N12      1.0000 0.95710  0.45970  0.17530  Biso   1.000  N
  H11      1.0000 0.04850  0.50170  0.12570  Biso   1.000  H
  H12      1.0000 0.36980  0.49020  0.34890  Biso   1.000  H
  Co4      1.0000 0.37133  0.39447  0.76174  Biso   1.000  Co
  N13      1.0000 0.29240  0.47430  0.78890  Biso   1.000  N
  O13      1.0000 0.26964  0.32658  0.80573  Biso   1.000  O
  N14      1.0000 0.46180  0.46270  0.73470  Biso   1.000  N
  O14      1.0000 0.43080  0.34410  0.84590  Biso   1.000  O
  O15      1.0000 0.35460  0.34780  0.65965  Biso   1.000  O
  C25      1.0000 0.28520  0.54810  0.78540  Biso   1.000  C
  C26      1.0000 0.22310  0.44800  0.81880  Biso   1.000  C
  C27      1.0000 0.21280  0.36570  0.82680  Biso   1.000  C
  C28      1.0000 0.51800  0.48190  0.78440  Biso   1.000  C
  C29      1.0000 0.47980  0.49950  0.67090  Biso   1.000  C
  C30      1.0000 0.43140  0.27460  0.86190  Biso   1.000  C
  N15      1.0000 0.21810  0.57450  0.80960  Biso   1.000  N
  H13      1.0000 0.32540  0.58050  0.76620  Biso   1.000  H
  C31      1.0000 0.17840  0.51090  0.83140  Biso   1.000  C
  O16      1.0000 0.40124  0.22096  0.82184  Biso   1.000  O
  C32      1.0000 0.56750  0.52980  0.74890  Biso   1.000  C
  H14      1.0000 0.52220  0.46680  0.83370  Biso   1.000  H
  N16      1.0000 0.54290  0.54030  0.67530  Biso   1.000  N
  H15      1.0000 0.45150  0.49830  0.62570  Biso   1.000  H
  H16      1.0000 0.13020  0.50980  0.84890  Biso   1.000  H
  Co5      1.0000 0.23826  0.87133  0.10553  Biso   1.000  Co
  N17      1.0000 0.21110  0.79240  0.02570  Biso   1.000  N
  O17      1.0000 0.19427  0.76964  0.17342  Biso   1.000  O
  N18      1.0000 0.26530  0.96180  0.03730  Biso   1.000  N
  O18      1.0000 0.15410  0.93080  0.15590  Biso   1.000  O
  O19      1.0000 0.34035  0.85460  0.15220  Biso   1.000  O
  C33      1.0000 0.21460  0.78520  0.95190  Biso   1.000  C
  C34      1.0000 0.18120  0.72310  0.05200  Biso   1.000  C
  C35      1.0000 0.17320  0.71280  0.13430  Biso   1.000  C
  C36      1.0000 0.21560  0.01800  0.01810  Biso   1.000  C
  C37      1.0000 0.32910  0.97980  0.00050  Biso   1.000  C
  C38      1.0000 0.13810  0.93140  0.22540  Biso   1.000  C
  N19      1.0000 0.19040  0.71810  0.92550  Biso   1.000  N
  H17      1.0000 0.23380  0.82540  0.91950  Biso   1.000  H
  C39      1.0000 0.16860  0.67840  0.98910  Biso   1.000  C
  O20      1.0000 0.17816  0.90124  0.27904  Biso   1.000  O
  C40      1.0000 0.25110  0.06750  0.97020  Biso   1.000  C
  H18      1.0000 0.16630  0.02220  0.03320  Biso   1.000  H
  N20      1.0000 0.32470  0.04290  0.95970  Biso   1.000  N
  H19      1.0000 0.37430  0.95150  0.00170  Biso   1.000  H
  H20      1.0000 0.15110  0.63020  0.99020  Biso   1.000  H
  Co6      1.0000 0.73826  0.62867  0.89447  Biso   1.000  Co
  N21      1.0000 0.71110  0.70760  0.97430  Biso   1.000  N
  O21      1.0000 0.69427  0.73036  0.82658  Biso   1.000  O
  N22      1.0000 0.76530  0.53820  0.96270  Biso   1.000  N
  O22      1.0000 0.65410  0.56920  0.84410  Biso   1.000  O
  O23      1.0000 0.84035  0.64540  0.84780  Biso   1.000  O
  C41      1.0000 0.71460  0.71480  0.04810  Biso   1.000  C
  C42      1.0000 0.68120  0.77690  0.94800  Biso   1.000  C
  C43      1.0000 0.67320  0.78720  0.86570  Biso   1.000  C
  C44      1.0000 0.71560  0.48200  0.98190  Biso   1.000  C
  C45      1.0000 0.82910  0.52020  0.99950  Biso   1.000  C
  C46      1.0000 0.63810  0.56860  0.77460  Biso   1.000  C
  N23      1.0000 0.69040  0.78190  0.07450  Biso   1.000  N
  H21      1.0000 0.73380  0.67460  0.08050  Biso   1.000  H
  C47      1.0000 0.66860  0.82160  0.01090  Biso   1.000  C
  O24      1.0000 0.67816  0.59876  0.72096  Biso   1.000  O
  C48      1.0000 0.75110  0.43250  0.02980  Biso   1.000  C
  H22      1.0000 0.66630  0.47780  0.96680  Biso   1.000  H
  N24      1.0000 0.82470  0.45710  0.04030  Biso   1.000  N
  H23      1.0000 0.87430  0.54850  0.99830  Biso   1.000  H
  H24      1.0000 0.65110  0.86980  0.00980  Biso   1.000  H
  Co7      1.0000 0.26174  0.12867  0.60553  Biso   1.000  Co
  N25      1.0000 0.28890  0.20760  0.52570  Biso   1.000  N
  O25      1.0000 0.30573  0.23036  0.67342  Biso   1.000  O
  N26      1.0000 0.23470  0.03820  0.53730  Biso   1.000  N
  O26      1.0000 0.34590  0.06920  0.65590  Biso   1.000  O
  O27      1.0000 0.15965  0.14540  0.65220  Biso   1.000  O
  C49      1.0000 0.28540  0.21480  0.45190  Biso   1.000  C
  C50      1.0000 0.31880  0.27690  0.55200  Biso   1.000  C
  C51      1.0000 0.32680  0.28720  0.63430  Biso   1.000  C
  C52      1.0000 0.28440  0.98200  0.51810  Biso   1.000  C
  C53      1.0000 0.17090  0.02020  0.50050  Biso   1.000  C
  C54      1.0000 0.36190  0.06860  0.72540  Biso   1.000  C
  N27      1.0000 0.30960  0.28190  0.42550  Biso   1.000  N
  H25      1.0000 0.26620  0.17460  0.41950  Biso   1.000  H
  C55      1.0000 0.33140  0.32160  0.48910  Biso   1.000  C
  O28      1.0000 0.32184  0.09876  0.77904  Biso   1.000  O
  C56      1.0000 0.24890  0.93250  0.47020  Biso   1.000  C
  H26      1.0000 0.33370  0.97780  0.53320  Biso   1.000  H
  N28      1.0000 0.17530  0.95710  0.45970  Biso   1.000  N
  H27      1.0000 0.12570  0.04850  0.50170  Biso   1.000  H
  H28      1.0000 0.34890  0.36980  0.49020  Biso   1.000  H
  Co8      1.0000 0.76174  0.37133  0.39447  Biso   1.000  Co
  N29      1.0000 0.78890  0.29240  0.47430  Biso   1.000  N
  O29      1.0000 0.80573  0.26964  0.32658  Biso   1.000  O
  N30      1.0000 0.73470  0.46180  0.46270  Biso   1.000  N
  O30      1.0000 0.84590  0.43080  0.34410  Biso   1.000  O
  O31      1.0000 0.65965  0.35460  0.34780  Biso   1.000  O
  C57      1.0000 0.78540  0.28520  0.54810  Biso   1.000  C
  C58      1.0000 0.81880  0.22310  0.44800  Biso   1.000  C
  C59      1.0000 0.82680  0.21280  0.36570  Biso   1.000  C
  C60      1.0000 0.78440  0.51800  0.48190  Biso   1.000  C
  C61      1.0000 0.67090  0.47980  0.49950  Biso   1.000  C
  C62      1.0000 0.86190  0.43140  0.27460  Biso   1.000  C
  N31      1.0000 0.80960  0.21810  0.57450  Biso   1.000  N
  H29      1.0000 0.76620  0.32540  0.58050  Biso   1.000  H
  C63      1.0000 0.83140  0.17840  0.51090  Biso   1.000  C
  O32      1.0000 0.82184  0.40124  0.22096  Biso   1.000  O
  C64      1.0000 0.74890  0.56750  0.52980  Biso   1.000  C
  H30      1.0000 0.83370  0.52220  0.46680  Biso   1.000  H
  N32      1.0000 0.67530  0.54290  0.54030  Biso   1.000  N
  H31      1.0000 0.62570  0.45150  0.49830  Biso   1.000  H
  H32      1.0000 0.84890  0.13020  0.50980  Biso   1.000  H
  Co9      1.0000 0.10553  0.23826  0.87133  Biso   1.000  Co
  N33      1.0000 0.02570  0.21110  0.79240  Biso   1.000  N
  O33      1.0000 0.17342  0.19427  0.76964  Biso   1.000  O
  N34      1.0000 0.03730  0.26530  0.96180  Biso   1.000  N
  O34      1.0000 0.15590  0.15410  0.93080  Biso   1.000  O
  O35      1.0000 0.15220  0.34035  0.85460  Biso   1.000  O
  C65      1.0000 0.95190  0.21460  0.78520  Biso   1.000  C
  C66      1.0000 0.05200  0.18120  0.72310  Biso   1.000  C
  C67      1.0000 0.13430  0.17320  0.71280  Biso   1.000  C
  C68      1.0000 0.01810  0.21560  0.01800  Biso   1.000  C
  C69      1.0000 0.00050  0.32910  0.97980  Biso   1.000  C
  C70      1.0000 0.22540  0.13810  0.93140  Biso   1.000  C
  N35      1.0000 0.92550  0.19040  0.71810  Biso   1.000  N
  H33      1.0000 0.91950  0.23380  0.82540  Biso   1.000  H
  C71      1.0000 0.98910  0.16860  0.67840  Biso   1.000  C
  O36      1.0000 0.27904  0.17816  0.90124  Biso   1.000  O
  C72      1.0000 0.97020  0.25110  0.06750  Biso   1.000  C
  H34      1.0000 0.03320  0.16630  0.02220  Biso   1.000  H
  N36      1.0000 0.95970  0.32470  0.04290  Biso   1.000  N
  H35      1.0000 0.00170  0.37430  0.95150  Biso   1.000  H
  H36      1.0000 0.99020  0.15110  0.63020  Biso   1.000  H
  Co10     1.0000 0.89447  0.73826  0.62867  Biso   1.000  Co
  N37      1.0000 0.97430  0.71110  0.70760  Biso   1.000  N
  O37      1.0000 0.82658  0.69427  0.73036  Biso   1.000  O
  N38      1.0000 0.96270  0.76530  0.53820  Biso   1.000  N
  O38      1.0000 0.84410  0.65410  0.56920  Biso   1.000  O
  O39      1.0000 0.84780  0.84035  0.64540  Biso   1.000  O
  C73      1.0000 0.04810  0.71460  0.71480  Biso   1.000  C
  C74      1.0000 0.94800  0.68120  0.77690  Biso   1.000  C
  C75      1.0000 0.86570  0.67320  0.78720  Biso   1.000  C
  C76      1.0000 0.98190  0.71560  0.48200  Biso   1.000  C
  C77      1.0000 0.99950  0.82910  0.52020  Biso   1.000  C
  C78      1.0000 0.77460  0.63810  0.56860  Biso   1.000  C
  N39      1.0000 0.07450  0.69040  0.78190  Biso   1.000  N
  H37      1.0000 0.08050  0.73380  0.67460  Biso   1.000  H
  C79      1.0000 0.01090  0.66860  0.82160  Biso   1.000  C
  O40      1.0000 0.72096  0.67816  0.59876  Biso   1.000  O
  C80      1.0000 0.02980  0.75110  0.43250  Biso   1.000  C
  H38      1.0000 0.96680  0.66630  0.47780  Biso   1.000  H
  N40      1.0000 0.04030  0.82470  0.45710  Biso   1.000  N
  H39      1.0000 0.99830  0.87430  0.54850  Biso   1.000  H
  H40      1.0000 0.00980  0.65110  0.86980  Biso   1.000  H
  Co11     1.0000 0.60553  0.26174  0.12867  Biso   1.000  Co
  N41      1.0000 0.52570  0.28890  0.20760  Biso   1.000  N
  O41      1.0000 0.67342  0.30573  0.23036  Biso   1.000  O
  N42      1.0000 0.53730  0.23470  0.03820  Biso   1.000  N
  O42      1.0000 0.65590  0.34590  0.06920  Biso   1.000  O
  O43      1.0000 0.65220  0.15965  0.14540  Biso   1.000  O
  C81      1.0000 0.45190  0.28540  0.21480  Biso   1.000  C
  C82      1.0000 0.55200  0.31880  0.27690  Biso   1.000  C
  C83      1.0000 0.63430  0.32680  0.28720  Biso   1.000  C
  C84      1.0000 0.51810  0.28440  0.98200  Biso   1.000  C
  C85      1.0000 0.50050  0.17090  0.02020  Biso   1.000  C
  C86      1.0000 0.72540  0.36190  0.06860  Biso   1.000  C
  N43      1.0000 0.42550  0.30960  0.28190  Biso   1.000  N
  H41      1.0000 0.41950  0.26620  0.17460  Biso   1.000  H
  C87      1.0000 0.48910  0.33140  0.32160  Biso   1.000  C
  O44      1.0000 0.77904  0.32184  0.09876  Biso   1.000  O
  C88      1.0000 0.47020  0.24890  0.93250  Biso   1.000  C
  H42      1.0000 0.53320  0.33370  0.97780  Biso   1.000  H
  N44      1.0000 0.45970  0.17530  0.95710  Biso   1.000  N
  H43      1.0000 0.50170  0.12570  0.04850  Biso   1.000  H
  H44      1.0000 0.49020  0.34890  0.36980  Biso   1.000  H
  Co12     1.0000 0.39447  0.76174  0.37133  Biso   1.000  Co
  N45      1.0000 0.47430  0.78890  0.29240  Biso   1.000  N
  O45      1.0000 0.32658  0.80573  0.26964  Biso   1.000  O
  N46      1.0000 0.46270  0.73470  0.46180  Biso   1.000  N
  O46      1.0000 0.34410  0.84590  0.43080  Biso   1.000  O
  O47      1.0000 0.34780  0.65965  0.35460  Biso   1.000  O
  C89      1.0000 0.54810  0.78540  0.28520  Biso   1.000  C
  C90      1.0000 0.44800  0.81880  0.22310  Biso   1.000  C
  C91      1.0000 0.36570  0.82680  0.21280  Biso   1.000  C
  C92      1.0000 0.48190  0.78440  0.51800  Biso   1.000  C
  C93      1.0000 0.49950  0.67090  0.47980  Biso   1.000  C
  C94      1.0000 0.27460  0.86190  0.43140  Biso   1.000  C
  N47      1.0000 0.57450  0.80960  0.21810  Biso   1.000  N
  H45      1.0000 0.58050  0.76620  0.32540  Biso   1.000  H
  C95      1.0000 0.51090  0.83140  0.17840  Biso   1.000  C
  O48      1.0000 0.22096  0.82184  0.40124  Biso   1.000  O
  C96      1.0000 0.52980  0.74890  0.56750  Biso   1.000  C
  H46      1.0000 0.46680  0.83370  0.52220  Biso   1.000  H
  N48      1.0000 0.54030  0.67530  0.54290  Biso   1.000  N
  H47      1.0000 0.49830  0.62570  0.45150  Biso   1.000  H
  H48      1.0000 0.50980  0.84890  0.13020  Biso   1.000  H
  Co13     1.0000 0.78704  0.28704  0.21296  Biso   1.000  Co
  Co14     1.0000 0.88895  0.38895  0.11105  Biso   1.000  Co
  Co15     1.0000 0.71296  0.71296  0.71296  Biso   1.000  Co
  Co16     1.0000 0.61105  0.61105  0.61105  Biso   1.000  Co
  Co17     1.0000 0.21296  0.78704  0.28704  Biso   1.000  Co
  Co18     1.0000 0.11105  0.88895  0.38895  Biso   1.000  Co
  Co19     1.0000 0.28704  0.21296  0.78704  Biso   1.000  Co
  Co20     1.0000 0.38895  0.11105  0.88895  Biso   1.000  Co
  Co21     1.0000 0.68409  0.81591  0.18409  Biso   1.000  Co
  Co22     1.0000 0.81591  0.18409  0.68409  Biso   1.000  Co
  Co23     1.0000 0.31591  0.31591  0.31591  Biso   1.000  Co
  Co24     1.0000 0.18409  0.68409  0.81591  Biso   1.000  Co
