data_image0
_cell_length_a       19.6786
_cell_length_b       22.7703
_cell_length_c       14.8344
_cell_angle_alpha    90
_cell_angle_beta     104.147
_cell_angle_gamma    90

_symmetry_space_group_name_H-M    "P 1"
_symmetry_int_tables_number       1

loop_
  _symmetry_equiv_pos_as_xyz
  'x, y, z'

loop_
  _atom_site_label
  _atom_site_occupancy
  _atom_site_fract_x
  _atom_site_fract_y
  _atom_site_fract_z
  _atom_site_thermal_displace_type
  _atom_site_B_iso_or_equiv
  _atom_site_type_symbol
  Mn1      1.0000 0.03055  0.56962  0.53378  Biso   1.000  Mn
  Mn2      1.0000 0.05714  0.56069  0.78814  Biso   1.000  Mn
  O1       1.0000 0.03715  0.47835  0.58640  Biso   1.000  O
  O2       1.0000 0.09472  0.48328  0.73610  Biso   1.000  O
  O3       1.0000 0.17863  0.39166  0.72260  Biso   1.000  O
  O4       1.0000 0.87964  0.45045  0.51640  Biso   1.000  O
  O5       1.0000 0.89170  0.39300  0.64130  Biso   1.000  O
  O6       1.0000 0.78568  0.45090  0.69070  Biso   1.000  O
  O7       1.0000 0.93947  0.90900  0.08170  Biso   1.000  O
  O8       1.0000 0.95240  0.93560  0.22730  Biso   1.000  O
  O9       1.0000 0.09510  0.89191  0.15970  Biso   1.000  O
  O10      1.0000 0.15790  0.89330  0.30320  Biso   1.000  O
  O11      1.0000 0.19978  0.83328  0.10580  Biso   1.000  O
  O12      1.0000 0.80262  0.89089  0.06370  Biso   1.000  O
  C1       1.0000 0.08220  0.45970  0.65820  Biso   1.000  C
  C2       1.0000 0.12230  0.40540  0.64290  Biso   1.000  C
  H1       1.0000 0.09030  0.37230  0.62970  Biso   1.000  H
  H2       1.0000 0.14150  0.41140  0.58930  Biso   1.000  H
  C3       1.0000 0.23670  0.42610  0.73740  Biso   1.000  C
  C4       1.0000 0.29080  0.41050  0.81330  Biso   1.000  C
  H3       1.0000 0.28500  0.37880  0.85030  Biso   1.000  H
  C5       1.0000 0.35320  0.44180  0.83440  Biso   1.000  C
  C6       1.0000 0.36110  0.48931  0.77770  Biso   1.000  C
  C7       1.0000 0.30710  0.50420  0.70220  Biso   1.000  C
  C8       1.0000 0.24460  0.47340  0.68150  Biso   1.000  C
  H4       1.0000 0.20840  0.48410  0.63110  Biso   1.000  H
  C9       1.0000 0.31560  0.55360  0.63720  Biso   1.000  C
  H5       1.0000 0.27020  0.56650  0.60270  Biso   1.000  H
  H6       1.0000 0.34190  0.53980  0.59480  Biso   1.000  H
  H7       1.0000 0.33990  0.58580  0.67280  Biso   1.000  H
  C10      1.0000 0.41160  0.42270  0.91420  Biso   1.000  C
  H8       1.0000 0.43310  0.45650  0.94800  Biso   1.000  H
  H9       1.0000 0.44590  0.40140  0.89100  Biso   1.000  H
  H10      1.0000 0.39320  0.39770  0.95480  Biso   1.000  H
  C11      1.0000 0.42620  0.52635  0.79960  Biso   1.000  C
  C12      1.0000 0.48570  0.50820  0.77460  Biso   1.000  C
  H11      1.0000 0.48510  0.47200  0.74550  Biso   1.000  H
  C13      1.0000 0.54670  0.54120  0.79040  Biso   1.000  C
  C14      1.0000 0.54830  0.59670  0.83320  Biso   1.000  C
  C15      1.0000 0.48810  0.61630  0.86120  Biso   1.000  C
  C16      1.0000 0.42660  0.58052  0.84420  Biso   1.000  C
  C17      1.0000 0.36690  0.60160  0.87440  Biso   1.000  C
  H12      1.0000 0.32650  0.57870  0.86350  Biso   1.000  H
  C18      1.0000 0.36790  0.65410  0.91860  Biso   1.000  C
  H13      1.0000 0.32840  0.66630  0.93740  Biso   1.000  H
  C19      1.0000 0.42880  0.69103  0.93670  Biso   1.000  C
  C20      1.0000 0.48870  0.67160  0.90810  Biso   1.000  C
  C21      1.0000 0.55060  0.70690  0.92570  Biso   1.000  C
  C22      1.0000 0.60970  0.68600  0.89520  Biso   1.000  C
  H14      1.0000 0.65020  0.70870  0.90610  Biso   1.000  H
  C23      1.0000 0.60830  0.63390  0.85070  Biso   1.000  C
  H15      1.0000 0.64750  0.62210  0.83100  Biso   1.000  H
  C24      1.0000 0.55150  0.76040  0.97430  Biso   1.000  C
  C25      1.0000 0.49200  0.77800  0.00090  Biso   1.000  C
  H16      1.0000 0.49310  0.81360  0.03180  Biso   1.000  H
  C26      1.0000 0.43060  0.74490  0.98400  Biso   1.000  C
  C27      1.0000 0.31170  0.80520  0.85630  Biso   1.000  C
  H17      1.0000 0.26530  0.81630  0.82310  Biso   1.000  H
  H18      1.0000 0.32510  0.76980  0.83020  Biso   1.000  H
  H19      1.0000 0.34400  0.83610  0.85150  Biso   1.000  H
  C28      1.0000 0.36940  0.76710  0.01760  Biso   1.000  C
  C29      1.0000 0.36950  0.76110  0.10990  Biso   1.000  C
  C30      1.0000 0.42980  0.73190  0.17700  Biso   1.000  C
  H20      1.0000 0.42330  0.73490  0.23900  Biso   1.000  H
  H21      1.0000 0.47280  0.75080  0.17420  Biso   1.000  H
  H22      1.0000 0.43170  0.69120  0.16070  Biso   1.000  H
  C31      1.0000 0.31340  0.78330  0.14200  Biso   1.000  C
  H23      1.0000 0.31390  0.78080  0.20470  Biso   1.000  H
  C32      1.0000 0.25700  0.80920  0.08010  Biso   1.000  C
  C33      1.0000 0.25750  0.81530  0.98960  Biso   1.000  C
  H24      1.0000 0.21980  0.83330  0.94880  Biso   1.000  H
  C34      1.0000 0.31310  0.79520  0.95700  Biso   1.000  C
  C35      1.0000 0.20500  0.83750  0.20150  Biso   1.000  C
  H25      1.0000 0.25070  0.85280  0.23250  Biso   1.000  H
  H26      1.0000 0.20020  0.79880  0.22650  Biso   1.000  H
  C36      1.0000 0.14820  0.87790  0.22020  Biso   1.000  C
  C37      1.0000 0.61650  0.79600  0.00010  Biso   1.000  C
  C38      1.0000 0.63490  0.83430  0.93590  Biso   1.000  C
  C39      1.0000 0.69710  0.86550  0.96100  Biso   1.000  C
  H27      1.0000 0.70950  0.89060  0.91820  Biso   1.000  H
  C40      1.0000 0.74130  0.85980  0.04950  Biso   1.000  C
  C41      1.0000 0.72270  0.82350  0.11390  Biso   1.000  C
  H28      1.0000 0.75180  0.82040  0.17340  Biso   1.000  H
  C42      1.0000 0.66050  0.79120  0.09020  Biso   1.000  C
  C43      1.0000 0.64180  0.75220  0.16240  Biso   1.000  C
  H29      1.0000 0.68300  0.74470  0.21100  Biso   1.000  H
  H30      1.0000 0.62330  0.71580  0.13430  Biso   1.000  H
  H31      1.0000 0.60730  0.77140  0.18790  Biso   1.000  H
  C44      1.0000 0.58710  0.84280  0.84150  Biso   1.000  C
  H32      1.0000 0.60490  0.87370  0.80970  Biso   1.000  H
  H33      1.0000 0.54110  0.85310  0.84770  Biso   1.000  H
  H34      1.0000 0.58460  0.80710  0.80650  Biso   1.000  H
  C45      1.0000 0.84600  0.89260  0.15450  Biso   1.000  C
  H35      1.0000 0.84890  0.85370  0.18190  Biso   1.000  H
  H36      1.0000 0.82590  0.91890  0.19250  Biso   1.000  H
  C46      1.0000 0.91970  0.91400  0.15270  Biso   1.000  C
  C47      1.0000 0.60940  0.51820  0.76180  Biso   1.000  C
  C48      1.0000 0.61940  0.53070  0.67380  Biso   1.000  C
  C49      1.0000 0.67830  0.50820  0.64800  Biso   1.000  C
  H37      1.0000 0.68520  0.51660  0.58960  Biso   1.000  H
  C50      1.0000 0.72600  0.47360  0.70890  Biso   1.000  C
  C51      1.0000 0.71540  0.46120  0.79470  Biso   1.000  C
  H38      1.0000 0.74740  0.43740  0.83500  Biso   1.000  H
  C52      1.0000 0.65810  0.48310  0.82300  Biso   1.000  C
  C53      1.0000 0.64850  0.46850  0.91760  Biso   1.000  C
  H39      1.0000 0.68810  0.44640  0.95140  Biso   1.000  H
  H40      1.0000 0.60660  0.44570  0.91140  Biso   1.000  H
  H41      1.0000 0.64460  0.50420  0.95050  Biso   1.000  H
  C54      1.0000 0.56760  0.56710  0.60710  Biso   1.000  C
  H42      1.0000 0.58200  0.57090  0.55010  Biso   1.000  H
  H43      1.0000 0.56490  0.60540  0.63330  Biso   1.000  H
  H44      1.0000 0.52240  0.54870  0.59500  Biso   1.000  H
  C55      1.0000 0.79590  0.46180  0.60100  Biso   1.000  C
  H45      1.0000 0.79830  0.50380  0.59180  Biso   1.000  H
  H46      1.0000 0.75600  0.44670  0.55470  Biso   1.000  H
  C56      1.0000 0.86280  0.43310  0.58730  Biso   1.000  C
  Mn3      1.0000 0.96945  0.06962  0.96622  Biso   1.000  Mn
  Mn4      1.0000 0.94286  0.06069  0.71186  Biso   1.000  Mn
  O13      1.0000 0.96285  0.97835  0.91360  Biso   1.000  O
  O14      1.0000 0.90528  0.98328  0.76390  Biso   1.000  O
  O15      1.0000 0.82137  0.89166  0.77740  Biso   1.000  O
  O16      1.0000 0.12036  0.95045  0.98360  Biso   1.000  O
  O17      1.0000 0.10830  0.89300  0.85870  Biso   1.000  O
  O18      1.0000 0.21432  0.95090  0.80930  Biso   1.000  O
  O19      1.0000 0.06053  0.40900  0.41830  Biso   1.000  O
  O20      1.0000 0.04760  0.43560  0.27270  Biso   1.000  O
  O21      1.0000 0.90490  0.39191  0.34030  Biso   1.000  O
  O22      1.0000 0.84210  0.39330  0.19680  Biso   1.000  O
  O23      1.0000 0.80022  0.33328  0.39420  Biso   1.000  O
  O24      1.0000 0.19738  0.39089  0.43630  Biso   1.000  O
  C57      1.0000 0.91780  0.95970  0.84180  Biso   1.000  C
  C58      1.0000 0.87770  0.90540  0.85710  Biso   1.000  C
  H47      1.0000 0.90970  0.87230  0.87030  Biso   1.000  H
  H48      1.0000 0.85850  0.91140  0.91070  Biso   1.000  H
  C59      1.0000 0.76330  0.92610  0.76260  Biso   1.000  C
  C60      1.0000 0.70920  0.91050  0.68670  Biso   1.000  C
  H49      1.0000 0.71500  0.87880  0.64970  Biso   1.000  H
  C61      1.0000 0.64680  0.94180  0.66560  Biso   1.000  C
  C62      1.0000 0.63890  0.98931  0.72230  Biso   1.000  C
  C63      1.0000 0.69290  0.00420  0.79780  Biso   1.000  C
  C64      1.0000 0.75540  0.97340  0.81850  Biso   1.000  C
  H50      1.0000 0.79160  0.98410  0.86890  Biso   1.000  H
  C65      1.0000 0.68440  0.05360  0.86280  Biso   1.000  C
  H51      1.0000 0.72980  0.06650  0.89730  Biso   1.000  H
  H52      1.0000 0.65810  0.03980  0.90520  Biso   1.000  H
  H53      1.0000 0.66010  0.08580  0.82720  Biso   1.000  H
  C66      1.0000 0.58840  0.92270  0.58580  Biso   1.000  C
  H54      1.0000 0.56690  0.95650  0.55200  Biso   1.000  H
  H55      1.0000 0.55410  0.90140  0.60900  Biso   1.000  H
  H56      1.0000 0.60680  0.89770  0.54520  Biso   1.000  H
  C67      1.0000 0.57380  0.02635  0.70040  Biso   1.000  C
  C68      1.0000 0.51430  0.00820  0.72540  Biso   1.000  C
  H57      1.0000 0.51490  0.97200  0.75450  Biso   1.000  H
  C69      1.0000 0.45330  0.04120  0.70960  Biso   1.000  C
  C70      1.0000 0.45170  0.09670  0.66680  Biso   1.000  C
  C71      1.0000 0.51190  0.11630  0.63880  Biso   1.000  C
  C72      1.0000 0.57340  0.08052  0.65580  Biso   1.000  C
  C73      1.0000 0.63310  0.10160  0.62560  Biso   1.000  C
  H58      1.0000 0.67350  0.07870  0.63650  Biso   1.000  H
  C74      1.0000 0.63210  0.15410  0.58140  Biso   1.000  C
  H59      1.0000 0.67160  0.16630  0.56260  Biso   1.000  H
  C75      1.0000 0.57120  0.19103  0.56330  Biso   1.000  C
  C76      1.0000 0.51130  0.17160  0.59190  Biso   1.000  C
  C77      1.0000 0.44940  0.20690  0.57430  Biso   1.000  C
  C78      1.0000 0.39030  0.18600  0.60480  Biso   1.000  C
  H60      1.0000 0.34980  0.20870  0.59390  Biso   1.000  H
  C79      1.0000 0.39170  0.13390  0.64930  Biso   1.000  C
  H61      1.0000 0.35250  0.12210  0.66900  Biso   1.000  H
  C80      1.0000 0.44850  0.26040  0.52570  Biso   1.000  C
  C81      1.0000 0.50800  0.27800  0.49910  Biso   1.000  C
  H62      1.0000 0.50690  0.31360  0.46820  Biso   1.000  H
  C82      1.0000 0.56940  0.24490  0.51600  Biso   1.000  C
  C83      1.0000 0.68830  0.30520  0.64370  Biso   1.000  C
  H63      1.0000 0.73470  0.31630  0.67690  Biso   1.000  H
  H64      1.0000 0.67490  0.26980  0.66980  Biso   1.000  H
  H65      1.0000 0.65600  0.33610  0.64850  Biso   1.000  H
  C84      1.0000 0.63060  0.26710  0.48240  Biso   1.000  C
  C85      1.0000 0.63050  0.26110  0.39010  Biso   1.000  C
  C86      1.0000 0.57020  0.23190  0.32300  Biso   1.000  C
  H66      1.0000 0.57670  0.23490  0.26100  Biso   1.000  H
  H67      1.0000 0.52720  0.25080  0.32580  Biso   1.000  H
  H68      1.0000 0.56830  0.19120  0.33930  Biso   1.000  H
  C87      1.0000 0.68660  0.28330  0.35800  Biso   1.000  C
  H69      1.0000 0.68610  0.28080  0.29530  Biso   1.000  H
  C88      1.0000 0.74300  0.30920  0.41990  Biso   1.000  C
  C89      1.0000 0.74250  0.31530  0.51040  Biso   1.000  C
  H70      1.0000 0.78020  0.33330  0.55120  Biso   1.000  H
  C90      1.0000 0.68690  0.29520  0.54300  Biso   1.000  C
  C91      1.0000 0.79500  0.33750  0.29850  Biso   1.000  C
  H71      1.0000 0.74930  0.35280  0.26750  Biso   1.000  H
  H72      1.0000 0.79980  0.29880  0.27350  Biso   1.000  H
  C92      1.0000 0.85180  0.37790  0.27980  Biso   1.000  C
  C93      1.0000 0.38350  0.29600  0.49990  Biso   1.000  C
  C94      1.0000 0.36510  0.33430  0.56410  Biso   1.000  C
  C95      1.0000 0.30290  0.36550  0.53900  Biso   1.000  C
  H73      1.0000 0.29050  0.39060  0.58180  Biso   1.000  H
  C96      1.0000 0.25870  0.35980  0.45050  Biso   1.000  C
  C97      1.0000 0.27730  0.32350  0.38610  Biso   1.000  C
  H74      1.0000 0.24820  0.32040  0.32660  Biso   1.000  H
  C98      1.0000 0.33950  0.29120  0.40980  Biso   1.000  C
  C99      1.0000 0.35820  0.25220  0.33760  Biso   1.000  C
  H75      1.0000 0.31700  0.24470  0.28900  Biso   1.000  H
  H76      1.0000 0.37670  0.21580  0.36570  Biso   1.000  H
  H77      1.0000 0.39270  0.27140  0.31210  Biso   1.000  H
  C100     1.0000 0.41290  0.34280  0.65850  Biso   1.000  C
  H78      1.0000 0.39510  0.37370  0.69030  Biso   1.000  H
  H79      1.0000 0.45890  0.35310  0.65230  Biso   1.000  H
  H80      1.0000 0.41540  0.30710  0.69350  Biso   1.000  H
  C101     1.0000 0.15400  0.39260  0.34550  Biso   1.000  C
  H81      1.0000 0.15110  0.35370  0.31810  Biso   1.000  H
  H82      1.0000 0.17410  0.41890  0.30750  Biso   1.000  H
  C102     1.0000 0.08030  0.41400  0.34730  Biso   1.000  C
  C103     1.0000 0.39060  0.01820  0.73820  Biso   1.000  C
  C104     1.0000 0.38060  0.03070  0.82620  Biso   1.000  C
  C105     1.0000 0.32170  0.00820  0.85200  Biso   1.000  C
  H83      1.0000 0.31480  0.01660  0.91040  Biso   1.000  H
  C106     1.0000 0.27400  0.97360  0.79110  Biso   1.000  C
  C107     1.0000 0.28460  0.96120  0.70530  Biso   1.000  C
  H84      1.0000 0.25260  0.93740  0.66500  Biso   1.000  H
  C108     1.0000 0.34190  0.98310  0.67700  Biso   1.000  C
  C109     1.0000 0.35150  0.96850  0.58240  Biso   1.000  C
  H85      1.0000 0.31190  0.94640  0.54860  Biso   1.000  H
  H86      1.0000 0.39340  0.94570  0.58860  Biso   1.000  H
  H87      1.0000 0.35540  0.00420  0.54950  Biso   1.000  H
  C110     1.0000 0.43240  0.06710  0.89290  Biso   1.000  C
  H88      1.0000 0.41800  0.07090  0.94990  Biso   1.000  H
  H89      1.0000 0.43510  0.10540  0.86670  Biso   1.000  H
  H90      1.0000 0.47760  0.04870  0.90500  Biso   1.000  H
  C111     1.0000 0.20410  0.96180  0.89900  Biso   1.000  C
  H91      1.0000 0.20170  0.00380  0.90820  Biso   1.000  H
  H92      1.0000 0.24400  0.94670  0.94530  Biso   1.000  H
  C112     1.0000 0.13720  0.93310  0.91270  Biso   1.000  C
  Mn5      1.0000 0.96945  0.43038  0.46622  Biso   1.000  Mn
  Mn6      1.0000 0.94286  0.43931  0.21186  Biso   1.000  Mn
  O25      1.0000 0.96285  0.52165  0.41360  Biso   1.000  O
  O26      1.0000 0.90528  0.51672  0.26390  Biso   1.000  O
  O27      1.0000 0.82137  0.60834  0.27740  Biso   1.000  O
  O28      1.0000 0.12036  0.54955  0.48360  Biso   1.000  O
  O29      1.0000 0.10830  0.60700  0.35870  Biso   1.000  O
  O30      1.0000 0.21432  0.54910  0.30930  Biso   1.000  O
  O31      1.0000 0.06053  0.09100  0.91830  Biso   1.000  O
  O32      1.0000 0.04760  0.06440  0.77270  Biso   1.000  O
  O33      1.0000 0.90490  0.10809  0.84030  Biso   1.000  O
  O34      1.0000 0.84210  0.10670  0.69680  Biso   1.000  O
  O35      1.0000 0.80022  0.16672  0.89420  Biso   1.000  O
  O36      1.0000 0.19738  0.10911  0.93630  Biso   1.000  O
  C113     1.0000 0.91780  0.54030  0.34180  Biso   1.000  C
  C114     1.0000 0.87770  0.59460  0.35710  Biso   1.000  C
  H93      1.0000 0.90970  0.62770  0.37030  Biso   1.000  H
  H94      1.0000 0.85850  0.58860  0.41070  Biso   1.000  H
  C115     1.0000 0.76330  0.57390  0.26260  Biso   1.000  C
  C116     1.0000 0.70920  0.58950  0.18670  Biso   1.000  C
  H95      1.0000 0.71500  0.62120  0.14970  Biso   1.000  H
  C117     1.0000 0.64680  0.55820  0.16560  Biso   1.000  C
  C118     1.0000 0.63890  0.51069  0.22230  Biso   1.000  C
  C119     1.0000 0.69290  0.49580  0.29780  Biso   1.000  C
  C120     1.0000 0.75540  0.52660  0.31850  Biso   1.000  C
  H96      1.0000 0.79160  0.51590  0.36890  Biso   1.000  H
  C121     1.0000 0.68440  0.44640  0.36280  Biso   1.000  C
  H97      1.0000 0.72980  0.43350  0.39730  Biso   1.000  H
  H98      1.0000 0.65810  0.46020  0.40520  Biso   1.000  H
  H99      1.0000 0.66010  0.41420  0.32720  Biso   1.000  H
  C122     1.0000 0.58840  0.57730  0.08580  Biso   1.000  C
  H100     1.0000 0.56690  0.54350  0.05200  Biso   1.000  H
  H101     1.0000 0.55410  0.59860  0.10900  Biso   1.000  H
  H102     1.0000 0.60680  0.60230  0.04520  Biso   1.000  H
  C123     1.0000 0.57380  0.47365  0.20040  Biso   1.000  C
  C124     1.0000 0.51430  0.49180  0.22540  Biso   1.000  C
  H103     1.0000 0.51490  0.52800  0.25450  Biso   1.000  H
  C125     1.0000 0.45330  0.45880  0.20960  Biso   1.000  C
  C126     1.0000 0.45170  0.40330  0.16680  Biso   1.000  C
  C127     1.0000 0.51190  0.38370  0.13880  Biso   1.000  C
  C128     1.0000 0.57340  0.41948  0.15580  Biso   1.000  C
  C129     1.0000 0.63310  0.39840  0.12560  Biso   1.000  C
  H104     1.0000 0.67350  0.42130  0.13650  Biso   1.000  H
  C130     1.0000 0.63210  0.34590  0.08140  Biso   1.000  C
  H105     1.0000 0.67160  0.33370  0.06260  Biso   1.000  H
  C131     1.0000 0.57120  0.30897  0.06330  Biso   1.000  C
  C132     1.0000 0.51130  0.32840  0.09190  Biso   1.000  C
  C133     1.0000 0.44940  0.29310  0.07430  Biso   1.000  C
  C134     1.0000 0.39030  0.31400  0.10480  Biso   1.000  C
  H106     1.0000 0.34980  0.29130  0.09390  Biso   1.000  H
  C135     1.0000 0.39170  0.36610  0.14930  Biso   1.000  C
  H107     1.0000 0.35250  0.37790  0.16900  Biso   1.000  H
  C136     1.0000 0.44850  0.23960  0.02570  Biso   1.000  C
  C137     1.0000 0.50800  0.22200  0.99910  Biso   1.000  C
  H108     1.0000 0.50690  0.18640  0.96820  Biso   1.000  H
  C138     1.0000 0.56940  0.25510  0.01600  Biso   1.000  C
  C139     1.0000 0.68830  0.19480  0.14370  Biso   1.000  C
  H109     1.0000 0.73470  0.18370  0.17690  Biso   1.000  H
  H110     1.0000 0.67490  0.23020  0.16980  Biso   1.000  H
  H111     1.0000 0.65600  0.16390  0.14850  Biso   1.000  H
  C140     1.0000 0.63060  0.23290  0.98240  Biso   1.000  C
  C141     1.0000 0.63050  0.23890  0.89010  Biso   1.000  C
  C142     1.0000 0.57020  0.26810  0.82300  Biso   1.000  C
  H112     1.0000 0.57670  0.26510  0.76100  Biso   1.000  H
  H113     1.0000 0.52720  0.24920  0.82580  Biso   1.000  H
  H114     1.0000 0.56830  0.30880  0.83930  Biso   1.000  H
  C143     1.0000 0.68660  0.21670  0.85800  Biso   1.000  C
  H115     1.0000 0.68610  0.21920  0.79530  Biso   1.000  H
  C144     1.0000 0.74300  0.19080  0.91990  Biso   1.000  C
  C145     1.0000 0.74250  0.18470  0.01040  Biso   1.000  C
  H116     1.0000 0.78020  0.16670  0.05120  Biso   1.000  H
  C146     1.0000 0.68690  0.20480  0.04300  Biso   1.000  C
  C147     1.0000 0.79500  0.16250  0.79850  Biso   1.000  C
  H117     1.0000 0.74930  0.14720  0.76750  Biso   1.000  H
  H118     1.0000 0.79980  0.20120  0.77350  Biso   1.000  H
  C148     1.0000 0.85180  0.12210  0.77980  Biso   1.000  C
  C149     1.0000 0.38350  0.20400  0.99990  Biso   1.000  C
  C150     1.0000 0.36510  0.16570  0.06410  Biso   1.000  C
  C151     1.0000 0.30290  0.13450  0.03900  Biso   1.000  C
  H119     1.0000 0.29050  0.10940  0.08180  Biso   1.000  H
  C152     1.0000 0.25870  0.14020  0.95050  Biso   1.000  C
  C153     1.0000 0.27730  0.17650  0.88610  Biso   1.000  C
  H120     1.0000 0.24820  0.17960  0.82660  Biso   1.000  H
  C154     1.0000 0.33950  0.20880  0.90980  Biso   1.000  C
  C155     1.0000 0.35820  0.24780  0.83760  Biso   1.000  C
  H121     1.0000 0.31700  0.25530  0.78900  Biso   1.000  H
  H122     1.0000 0.37670  0.28420  0.86570  Biso   1.000  H
  H123     1.0000 0.39270  0.22860  0.81210  Biso   1.000  H
  C156     1.0000 0.41290  0.15720  0.15850  Biso   1.000  C
  H124     1.0000 0.39510  0.12630  0.19030  Biso   1.000  H
  H125     1.0000 0.45890  0.14690  0.15230  Biso   1.000  H
  H126     1.0000 0.41540  0.19290  0.19350  Biso   1.000  H
  C157     1.0000 0.15400  0.10740  0.84550  Biso   1.000  C
  H127     1.0000 0.15110  0.14630  0.81810  Biso   1.000  H
  H128     1.0000 0.17410  0.08110  0.80750  Biso   1.000  H
  C158     1.0000 0.08030  0.08600  0.84730  Biso   1.000  C
  C159     1.0000 0.39060  0.48180  0.23820  Biso   1.000  C
  C160     1.0000 0.38060  0.46930  0.32620  Biso   1.000  C
  C161     1.0000 0.32170  0.49180  0.35200  Biso   1.000  C
  H129     1.0000 0.31480  0.48340  0.41040  Biso   1.000  H
  C162     1.0000 0.27400  0.52640  0.29110  Biso   1.000  C
  C163     1.0000 0.28460  0.53880  0.20530  Biso   1.000  C
  H130     1.0000 0.25260  0.56260  0.16500  Biso   1.000  H
  C164     1.0000 0.34190  0.51690  0.17700  Biso   1.000  C
  C165     1.0000 0.35150  0.53150  0.08240  Biso   1.000  C
  H131     1.0000 0.31190  0.55360  0.04860  Biso   1.000  H
  H132     1.0000 0.39340  0.55430  0.08860  Biso   1.000  H
  H133     1.0000 0.35540  0.49580  0.04950  Biso   1.000  H
  C166     1.0000 0.43240  0.43290  0.39290  Biso   1.000  C
  H134     1.0000 0.41800  0.42910  0.44990  Biso   1.000  H
  H135     1.0000 0.43510  0.39460  0.36670  Biso   1.000  H
  H136     1.0000 0.47760  0.45130  0.40500  Biso   1.000  H
  C167     1.0000 0.20410  0.53820  0.39900  Biso   1.000  C
  H137     1.0000 0.20170  0.49620  0.40820  Biso   1.000  H
  H138     1.0000 0.24400  0.55330  0.44530  Biso   1.000  H
  C168     1.0000 0.13720  0.56690  0.41270  Biso   1.000  C
  Mn7      1.0000 0.03055  0.93038  0.03378  Biso   1.000  Mn
  Mn8      1.0000 0.05714  0.93931  0.28814  Biso   1.000  Mn
  O37      1.0000 0.03715  0.02165  0.08640  Biso   1.000  O
  O38      1.0000 0.09472  0.01672  0.23610  Biso   1.000  O
  O39      1.0000 0.17863  0.10834  0.22260  Biso   1.000  O
  O40      1.0000 0.87964  0.04955  0.01640  Biso   1.000  O
  O41      1.0000 0.89170  0.10700  0.14130  Biso   1.000  O
  O42      1.0000 0.78568  0.04910  0.19070  Biso   1.000  O
  O43      1.0000 0.93947  0.59100  0.58170  Biso   1.000  O
  O44      1.0000 0.95240  0.56440  0.72730  Biso   1.000  O
  O45      1.0000 0.09510  0.60809  0.65970  Biso   1.000  O
  O46      1.0000 0.15790  0.60670  0.80320  Biso   1.000  O
  O47      1.0000 0.19978  0.66672  0.60580  Biso   1.000  O
  O48      1.0000 0.80262  0.60911  0.56370  Biso   1.000  O
  C169     1.0000 0.08220  0.04030  0.15820  Biso   1.000  C
  C170     1.0000 0.12230  0.09460  0.14290  Biso   1.000  C
  H139     1.0000 0.09030  0.12770  0.12970  Biso   1.000  H
  H140     1.0000 0.14150  0.08860  0.08930  Biso   1.000  H
  C171     1.0000 0.23670  0.07390  0.23740  Biso   1.000  C
  C172     1.0000 0.29080  0.08950  0.31330  Biso   1.000  C
  H141     1.0000 0.28500  0.12120  0.35030  Biso   1.000  H
  C173     1.0000 0.35320  0.05820  0.33440  Biso   1.000  C
  C174     1.0000 0.36110  0.01069  0.27770  Biso   1.000  C
  C175     1.0000 0.30710  0.99580  0.20220  Biso   1.000  C
  C176     1.0000 0.24460  0.02660  0.18150  Biso   1.000  C
  H142     1.0000 0.20840  0.01590  0.13110  Biso   1.000  H
  C177     1.0000 0.31560  0.94640  0.13720  Biso   1.000  C
  H143     1.0000 0.27020  0.93350  0.10270  Biso   1.000  H
  H144     1.0000 0.34190  0.96020  0.09480  Biso   1.000  H
  H145     1.0000 0.33990  0.91420  0.17280  Biso   1.000  H
  C178     1.0000 0.41160  0.07730  0.41420  Biso   1.000  C
  H146     1.0000 0.43310  0.04350  0.44800  Biso   1.000  H
  H147     1.0000 0.44590  0.09860  0.39100  Biso   1.000  H
  H148     1.0000 0.39320  0.10230  0.45480  Biso   1.000  H
  C179     1.0000 0.42620  0.97365  0.29960  Biso   1.000  C
  C180     1.0000 0.48570  0.99180  0.27460  Biso   1.000  C
  H149     1.0000 0.48510  0.02800  0.24550  Biso   1.000  H
  C181     1.0000 0.54670  0.95880  0.29040  Biso   1.000  C
  C182     1.0000 0.54830  0.90330  0.33320  Biso   1.000  C
  C183     1.0000 0.48810  0.88370  0.36120  Biso   1.000  C
  C184     1.0000 0.42660  0.91948  0.34420  Biso   1.000  C
  C185     1.0000 0.36690  0.89840  0.37440  Biso   1.000  C
  H150     1.0000 0.32650  0.92130  0.36350  Biso   1.000  H
  C186     1.0000 0.36790  0.84590  0.41860  Biso   1.000  C
  H151     1.0000 0.32840  0.83370  0.43740  Biso   1.000  H
  C187     1.0000 0.42880  0.80897  0.43670  Biso   1.000  C
  C188     1.0000 0.48870  0.82840  0.40810  Biso   1.000  C
  C189     1.0000 0.55060  0.79310  0.42570  Biso   1.000  C
  C190     1.0000 0.60970  0.81400  0.39520  Biso   1.000  C
  H152     1.0000 0.65020  0.79130  0.40610  Biso   1.000  H
  C191     1.0000 0.60830  0.86610  0.35070  Biso   1.000  C
  H153     1.0000 0.64750  0.87790  0.33100  Biso   1.000  H
  C192     1.0000 0.55150  0.73960  0.47430  Biso   1.000  C
  C193     1.0000 0.49200  0.72200  0.50090  Biso   1.000  C
  H154     1.0000 0.49310  0.68640  0.53180  Biso   1.000  H
  C194     1.0000 0.43060  0.75510  0.48400  Biso   1.000  C
  C195     1.0000 0.31170  0.69480  0.35630  Biso   1.000  C
  H155     1.0000 0.26530  0.68370  0.32310  Biso   1.000  H
  H156     1.0000 0.32510  0.73020  0.33020  Biso   1.000  H
  H157     1.0000 0.34400  0.66390  0.35150  Biso   1.000  H
  C196     1.0000 0.36940  0.73290  0.51760  Biso   1.000  C
  C197     1.0000 0.36950  0.73890  0.60990  Biso   1.000  C
  C198     1.0000 0.42980  0.76810  0.67700  Biso   1.000  C
  H158     1.0000 0.42330  0.76510  0.73900  Biso   1.000  H
  H159     1.0000 0.47280  0.74920  0.67420  Biso   1.000  H
  H160     1.0000 0.43170  0.80880  0.66070  Biso   1.000  H
  C199     1.0000 0.31340  0.71670  0.64200  Biso   1.000  C
  H161     1.0000 0.31390  0.71920  0.70470  Biso   1.000  H
  C200     1.0000 0.25700  0.69080  0.58010  Biso   1.000  C
  C201     1.0000 0.25750  0.68470  0.48960  Biso   1.000  C
  H162     1.0000 0.21980  0.66670  0.44880  Biso   1.000  H
  C202     1.0000 0.31310  0.70480  0.45700  Biso   1.000  C
  C203     1.0000 0.20500  0.66250  0.70150  Biso   1.000  C
  H163     1.0000 0.25070  0.64720  0.73250  Biso   1.000  H
  H164     1.0000 0.20020  0.70120  0.72650  Biso   1.000  H
  C204     1.0000 0.14820  0.62210  0.72020  Biso   1.000  C
  C205     1.0000 0.61650  0.70400  0.50010  Biso   1.000  C
  C206     1.0000 0.63490  0.66570  0.43590  Biso   1.000  C
  C207     1.0000 0.69710  0.63450  0.46100  Biso   1.000  C
  H165     1.0000 0.70950  0.60940  0.41820  Biso   1.000  H
  C208     1.0000 0.74130  0.64020  0.54950  Biso   1.000  C
  C209     1.0000 0.72270  0.67650  0.61390  Biso   1.000  C
  H166     1.0000 0.75180  0.67960  0.67340  Biso   1.000  H
  C210     1.0000 0.66050  0.70880  0.59020  Biso   1.000  C
  C211     1.0000 0.64180  0.74780  0.66240  Biso   1.000  C
  H167     1.0000 0.68300  0.75530  0.71100  Biso   1.000  H
  H168     1.0000 0.62330  0.78420  0.63430  Biso   1.000  H
  H169     1.0000 0.60730  0.72860  0.68790  Biso   1.000  H
  C212     1.0000 0.58710  0.65720  0.34150  Biso   1.000  C
  H170     1.0000 0.60490  0.62630  0.30970  Biso   1.000  H
  H171     1.0000 0.54110  0.64690  0.34770  Biso   1.000  H
  H172     1.0000 0.58460  0.69290  0.30650  Biso   1.000  H
  C213     1.0000 0.84600  0.60740  0.65450  Biso   1.000  C
  H173     1.0000 0.84890  0.64630  0.68190  Biso   1.000  H
  H174     1.0000 0.82590  0.58110  0.69250  Biso   1.000  H
  C214     1.0000 0.91970  0.58600  0.65270  Biso   1.000  C
  C215     1.0000 0.60940  0.98180  0.26180  Biso   1.000  C
  C216     1.0000 0.61940  0.96930  0.17380  Biso   1.000  C
  C217     1.0000 0.67830  0.99180  0.14800  Biso   1.000  C
  H175     1.0000 0.68520  0.98340  0.08960  Biso   1.000  H
  C218     1.0000 0.72600  0.02640  0.20890  Biso   1.000  C
  C219     1.0000 0.71540  0.03880  0.29470  Biso   1.000  C
  H176     1.0000 0.74740  0.06260  0.33500  Biso   1.000  H
  C220     1.0000 0.65810  0.01690  0.32300  Biso   1.000  C
  C221     1.0000 0.64850  0.03150  0.41760  Biso   1.000  C
  H177     1.0000 0.68810  0.05360  0.45140  Biso   1.000  H
  H178     1.0000 0.60660  0.05430  0.41140  Biso   1.000  H
  H179     1.0000 0.64460  0.99580  0.45050  Biso   1.000  H
  C222     1.0000 0.56760  0.93290  0.10710  Biso   1.000  C
  H180     1.0000 0.58200  0.92910  0.05010  Biso   1.000  H
  H181     1.0000 0.56490  0.89460  0.13330  Biso   1.000  H
  H182     1.0000 0.52240  0.95130  0.09500  Biso   1.000  H
  C223     1.0000 0.79590  0.03820  0.10100  Biso   1.000  C
  H183     1.0000 0.79830  0.99620  0.09180  Biso   1.000  H
  H184     1.0000 0.75600  0.05330  0.05470  Biso   1.000  H
  C224     1.0000 0.86280  0.06690  0.08730  Biso   1.000  C
