data_image0
_cell_length_a       27.6817
_cell_length_b       10.2694
_cell_length_c       20.6356
_cell_angle_alpha    90
_cell_angle_beta     123.241
_cell_angle_gamma    90

_symmetry_space_group_name_H-M    "P 1"
_symmetry_int_tables_number       1

loop_
  _symmetry_equiv_pos_as_xyz
  'x, y, z'

loop_
  _atom_site_label
  _atom_site_occupancy
  _atom_site_fract_x
  _atom_site_fract_y
  _atom_site_fract_z
  _atom_site_thermal_displace_type
  _atom_site_B_iso_or_equiv
  _atom_site_type_symbol
  Cd1      1.0000 0.82489  0.79745  0.54825  Biso   1.000  Cd
  Cd2      1.0000 0.95707  0.97830  0.63539  Biso   1.000  Cd
  O1       1.0000 0.90568  0.79110  0.54060  Biso   1.000  O
  O2       1.0000 0.73838  0.15100  0.04436  Biso   1.000  O
  O3       1.0000 0.70076  0.46540  0.02978  Biso   1.000  O
  N1       1.0000 0.92844  0.88470  0.71203  Biso   1.000  N
  O4       1.0000 0.66450  0.06420  0.93786  Biso   1.000  O
  N2       1.0000 0.95504  0.87800  0.78883  Biso   1.000  N
  O5       1.0000 0.94788  0.95390  0.52036  Biso   1.000  O
  N3       1.0000 0.87910  0.81760  0.67614  Biso   1.000  N
  O6       1.0000 0.63171  0.58120  0.92985  Biso   1.000  O
  C1       1.0000 0.87331  0.76490  0.73193  Biso   1.000  C
  C2       1.0000 0.76169  0.91540  0.12435  Biso   1.000  C
  H1       1.0000 0.78070  0.99070  0.15140  Biso   1.000  H
  C3       1.0000 0.81513  0.79750  0.25007  Biso   1.000  C
  C4       1.0000 0.72126  0.92300  0.04529  Biso   1.000  C
  C5       1.0000 0.91463  0.85660  0.49614  Biso   1.000  C
  C6       1.0000 0.69223  0.81180  0.00395  Biso   1.000  C
  H2       1.0000 0.66440  0.81680  0.95110  Biso   1.000  H
  C7       1.0000 0.77457  0.79840  0.16434  Biso   1.000  C
  C8       1.0000 0.70719  0.05250  0.00559  Biso   1.000  C
  C9       1.0000 0.70505  0.69360  0.04203  Biso   1.000  C
  C10      1.0000 0.74589  0.68700  0.12162  Biso   1.000  C
  H3       1.0000 0.75420  0.60690  0.14670  Biso   1.000  H
  C11      1.0000 0.67616  0.57100  0.99676  Biso   1.000  C
  C12      1.0000 0.92150  0.80290  0.80328  Biso   1.000  C
  C13      1.0000 0.80615  0.71990  0.29720  Biso   1.000  C
  H4       1.0000 0.77680  0.65820  0.27480  Biso   1.000  H
  C14      1.0000 0.92737  0.76600  0.87350  Biso   1.000  C
  H5       1.0000 0.95900  0.79170  0.92150  Biso   1.000  H
  C15      1.0000 0.83996  0.73210  0.37720  Biso   1.000  C
  H6       1.0000 0.83330  0.67850  0.40780  Biso   1.000  H
  C16      1.0000 0.88386  0.82440  0.41169  Biso   1.000  C
  C17      1.0000 0.89558  0.89630  0.36477  Biso   1.000  C
  H7       1.0000 0.92640  0.95440  0.38720  Biso   1.000  H
  C18      1.0000 0.86199  0.88250  0.28516  Biso   1.000  C
  H8       1.0000 0.87080  0.93050  0.25470  Biso   1.000  H
  C19      1.0000 0.83019  0.68560  0.72680  Biso   1.000  C
  H9       1.0000 0.79860  0.65800  0.67930  Biso   1.000  H
  C20      1.0000 0.83686  0.65100  0.79470  Biso   1.000  C
  H10      1.0000 0.80890  0.59850  0.79320  Biso   1.000  H
  C21      1.0000 0.88442  0.69120  0.86740  Biso   1.000  C
  H11      1.0000 0.88650  0.66610  0.91210  Biso   1.000  H
  Cd3      1.0000 0.32489  0.29745  0.54825  Biso   1.000  Cd
  Cd4      1.0000 0.45707  0.47830  0.63539  Biso   1.000  Cd
  O7       1.0000 0.40568  0.29110  0.54060  Biso   1.000  O
  O8       1.0000 0.23838  0.65100  0.04436  Biso   1.000  O
  O9       1.0000 0.20076  0.96540  0.02978  Biso   1.000  O
  N4       1.0000 0.42844  0.38470  0.71203  Biso   1.000  N
  O10      1.0000 0.16450  0.56420  0.93786  Biso   1.000  O
  N5       1.0000 0.45504  0.37800  0.78883  Biso   1.000  N
  O11      1.0000 0.44788  0.45390  0.52036  Biso   1.000  O
  N6       1.0000 0.37910  0.31760  0.67614  Biso   1.000  N
  O12      1.0000 0.13171  0.08120  0.92985  Biso   1.000  O
  C22      1.0000 0.37331  0.26490  0.73193  Biso   1.000  C
  C23      1.0000 0.26169  0.41540  0.12435  Biso   1.000  C
  H12      1.0000 0.28070  0.49070  0.15140  Biso   1.000  H
  C24      1.0000 0.31513  0.29750  0.25007  Biso   1.000  C
  C25      1.0000 0.22126  0.42300  0.04529  Biso   1.000  C
  C26      1.0000 0.41463  0.35660  0.49614  Biso   1.000  C
  C27      1.0000 0.19223  0.31180  0.00395  Biso   1.000  C
  H13      1.0000 0.16440  0.31680  0.95110  Biso   1.000  H
  C28      1.0000 0.27457  0.29840  0.16434  Biso   1.000  C
  C29      1.0000 0.20719  0.55250  0.00559  Biso   1.000  C
  C30      1.0000 0.20505  0.19360  0.04203  Biso   1.000  C
  C31      1.0000 0.24589  0.18700  0.12162  Biso   1.000  C
  H14      1.0000 0.25420  0.10690  0.14670  Biso   1.000  H
  C32      1.0000 0.17616  0.07100  0.99676  Biso   1.000  C
  C33      1.0000 0.42150  0.30290  0.80328  Biso   1.000  C
  C34      1.0000 0.30615  0.21990  0.29720  Biso   1.000  C
  H15      1.0000 0.27680  0.15820  0.27480  Biso   1.000  H
  C35      1.0000 0.42737  0.26600  0.87350  Biso   1.000  C
  H16      1.0000 0.45900  0.29170  0.92150  Biso   1.000  H
  C36      1.0000 0.33996  0.23210  0.37720  Biso   1.000  C
  H17      1.0000 0.33330  0.17850  0.40780  Biso   1.000  H
  C37      1.0000 0.38386  0.32440  0.41169  Biso   1.000  C
  C38      1.0000 0.39558  0.39630  0.36477  Biso   1.000  C
  H18      1.0000 0.42640  0.45440  0.38720  Biso   1.000  H
  C39      1.0000 0.36199  0.38250  0.28516  Biso   1.000  C
  H19      1.0000 0.37080  0.43050  0.25470  Biso   1.000  H
  C40      1.0000 0.33019  0.18560  0.72680  Biso   1.000  C
  H20      1.0000 0.29860  0.15800  0.67930  Biso   1.000  H
  C41      1.0000 0.33686  0.15100  0.79470  Biso   1.000  C
  H21      1.0000 0.30890  0.09850  0.79320  Biso   1.000  H
  C42      1.0000 0.38442  0.19120  0.86740  Biso   1.000  C
  H22      1.0000 0.38650  0.16610  0.91210  Biso   1.000  H
  Cd5      1.0000 0.17511  0.79745  0.95175  Biso   1.000  Cd
  Cd6      1.0000 0.04293  0.97830  0.86461  Biso   1.000  Cd
  O13      1.0000 0.09432  0.79110  0.95940  Biso   1.000  O
  O14      1.0000 0.26162  0.15100  0.45564  Biso   1.000  O
  O15      1.0000 0.29924  0.46540  0.47022  Biso   1.000  O
  N7       1.0000 0.07156  0.88470  0.78797  Biso   1.000  N
  O16      1.0000 0.33550  0.06420  0.56214  Biso   1.000  O
  N8       1.0000 0.04496  0.87800  0.71117  Biso   1.000  N
  O17      1.0000 0.05212  0.95390  0.97964  Biso   1.000  O
  N9       1.0000 0.12090  0.81760  0.82386  Biso   1.000  N
  O18      1.0000 0.36829  0.58120  0.57015  Biso   1.000  O
  C43      1.0000 0.12669  0.76490  0.76807  Biso   1.000  C
  C44      1.0000 0.23831  0.91540  0.37565  Biso   1.000  C
  H23      1.0000 0.21930  0.99070  0.34860  Biso   1.000  H
  C45      1.0000 0.18487  0.79750  0.24993  Biso   1.000  C
  C46      1.0000 0.27874  0.92300  0.45471  Biso   1.000  C
  C47      1.0000 0.08537  0.85660  0.00386  Biso   1.000  C
  C48      1.0000 0.30777  0.81180  0.49605  Biso   1.000  C
  H24      1.0000 0.33560  0.81680  0.54890  Biso   1.000  H
  C49      1.0000 0.22543  0.79840  0.33566  Biso   1.000  C
  C50      1.0000 0.29281  0.05250  0.49441  Biso   1.000  C
  C51      1.0000 0.29495  0.69360  0.45797  Biso   1.000  C
  C52      1.0000 0.25411  0.68700  0.37838  Biso   1.000  C
  H25      1.0000 0.24580  0.60690  0.35330  Biso   1.000  H
  C53      1.0000 0.32384  0.57100  0.50324  Biso   1.000  C
  C54      1.0000 0.07850  0.80290  0.69672  Biso   1.000  C
  C55      1.0000 0.19385  0.71990  0.20280  Biso   1.000  C
  H26      1.0000 0.22320  0.65820  0.22520  Biso   1.000  H
  C56      1.0000 0.07263  0.76600  0.62650  Biso   1.000  C
  H27      1.0000 0.04100  0.79170  0.57850  Biso   1.000  H
  C57      1.0000 0.16004  0.73210  0.12280  Biso   1.000  C
  H28      1.0000 0.16670  0.67850  0.09220  Biso   1.000  H
  C58      1.0000 0.11614  0.82440  0.08831  Biso   1.000  C
  C59      1.0000 0.10442  0.89630  0.13523  Biso   1.000  C
  H29      1.0000 0.07360  0.95440  0.11280  Biso   1.000  H
  C60      1.0000 0.13801  0.88250  0.21484  Biso   1.000  C
  H30      1.0000 0.12920  0.93050  0.24530  Biso   1.000  H
  C61      1.0000 0.16981  0.68560  0.77320  Biso   1.000  C
  H31      1.0000 0.20140  0.65800  0.82070  Biso   1.000  H
  C62      1.0000 0.16314  0.65100  0.70530  Biso   1.000  C
  H32      1.0000 0.19110  0.59850  0.70680  Biso   1.000  H
  C63      1.0000 0.11558  0.69120  0.63260  Biso   1.000  C
  H33      1.0000 0.11350  0.66610  0.58790  Biso   1.000  H
  Cd7      1.0000 0.67511  0.29745  0.95175  Biso   1.000  Cd
  Cd8      1.0000 0.54293  0.47830  0.86461  Biso   1.000  Cd
  O19      1.0000 0.59432  0.29110  0.95940  Biso   1.000  O
  O20      1.0000 0.76162  0.65100  0.45564  Biso   1.000  O
  O21      1.0000 0.79924  0.96540  0.47022  Biso   1.000  O
  N10      1.0000 0.57156  0.38470  0.78797  Biso   1.000  N
  O22      1.0000 0.83550  0.56420  0.56214  Biso   1.000  O
  N11      1.0000 0.54496  0.37800  0.71117  Biso   1.000  N
  O23      1.0000 0.55212  0.45390  0.97964  Biso   1.000  O
  N12      1.0000 0.62090  0.31760  0.82386  Biso   1.000  N
  O24      1.0000 0.86829  0.08120  0.57015  Biso   1.000  O
  C64      1.0000 0.62669  0.26490  0.76807  Biso   1.000  C
  C65      1.0000 0.73831  0.41540  0.37565  Biso   1.000  C
  H34      1.0000 0.71930  0.49070  0.34860  Biso   1.000  H
  C66      1.0000 0.68487  0.29750  0.24993  Biso   1.000  C
  C67      1.0000 0.77874  0.42300  0.45471  Biso   1.000  C
  C68      1.0000 0.58537  0.35660  0.00386  Biso   1.000  C
  C69      1.0000 0.80777  0.31180  0.49605  Biso   1.000  C
  H35      1.0000 0.83560  0.31680  0.54890  Biso   1.000  H
  C70      1.0000 0.72543  0.29840  0.33566  Biso   1.000  C
  C71      1.0000 0.79281  0.55250  0.49441  Biso   1.000  C
  C72      1.0000 0.79495  0.19360  0.45797  Biso   1.000  C
  C73      1.0000 0.75411  0.18700  0.37838  Biso   1.000  C
  H36      1.0000 0.74580  0.10690  0.35330  Biso   1.000  H
  C74      1.0000 0.82384  0.07100  0.50324  Biso   1.000  C
  C75      1.0000 0.57850  0.30290  0.69672  Biso   1.000  C
  C76      1.0000 0.69385  0.21990  0.20280  Biso   1.000  C
  H37      1.0000 0.72320  0.15820  0.22520  Biso   1.000  H
  C77      1.0000 0.57263  0.26600  0.62650  Biso   1.000  C
  H38      1.0000 0.54100  0.29170  0.57850  Biso   1.000  H
  C78      1.0000 0.66004  0.23210  0.12280  Biso   1.000  C
  H39      1.0000 0.66670  0.17850  0.09220  Biso   1.000  H
  C79      1.0000 0.61614  0.32440  0.08831  Biso   1.000  C
  C80      1.0000 0.60442  0.39630  0.13523  Biso   1.000  C
  H40      1.0000 0.57360  0.45440  0.11280  Biso   1.000  H
  C81      1.0000 0.63801  0.38250  0.21484  Biso   1.000  C
  H41      1.0000 0.62920  0.43050  0.24530  Biso   1.000  H
  C82      1.0000 0.66981  0.18560  0.77320  Biso   1.000  C
  H42      1.0000 0.70140  0.15800  0.82070  Biso   1.000  H
  C83      1.0000 0.66314  0.15100  0.70530  Biso   1.000  C
  H43      1.0000 0.69110  0.09850  0.70680  Biso   1.000  H
  C84      1.0000 0.61558  0.19120  0.63260  Biso   1.000  C
  H44      1.0000 0.61350  0.16610  0.58790  Biso   1.000  H
  Cd9      1.0000 0.17511  0.20255  0.45175  Biso   1.000  Cd
  Cd10     1.0000 0.04293  0.02170  0.36461  Biso   1.000  Cd
  O25      1.0000 0.09432  0.20890  0.45940  Biso   1.000  O
  O26      1.0000 0.26162  0.84900  0.95564  Biso   1.000  O
  O27      1.0000 0.29924  0.53460  0.97022  Biso   1.000  O
  N13      1.0000 0.07156  0.11530  0.28797  Biso   1.000  N
  O28      1.0000 0.33550  0.93580  0.06214  Biso   1.000  O
  N14      1.0000 0.04496  0.12200  0.21117  Biso   1.000  N
  O29      1.0000 0.05212  0.04610  0.47964  Biso   1.000  O
  N15      1.0000 0.12090  0.18240  0.32386  Biso   1.000  N
  O30      1.0000 0.36829  0.41880  0.07015  Biso   1.000  O
  C85      1.0000 0.12669  0.23510  0.26807  Biso   1.000  C
  C86      1.0000 0.23831  0.08460  0.87565  Biso   1.000  C
  H45      1.0000 0.21930  0.00930  0.84860  Biso   1.000  H
  C87      1.0000 0.18487  0.20250  0.74993  Biso   1.000  C
  C88      1.0000 0.27874  0.07700  0.95471  Biso   1.000  C
  C89      1.0000 0.08537  0.14340  0.50386  Biso   1.000  C
  C90      1.0000 0.30777  0.18820  0.99605  Biso   1.000  C
  H46      1.0000 0.33560  0.18320  0.04890  Biso   1.000  H
  C91      1.0000 0.22543  0.20160  0.83566  Biso   1.000  C
  C92      1.0000 0.29281  0.94750  0.99441  Biso   1.000  C
  C93      1.0000 0.29495  0.30640  0.95797  Biso   1.000  C
  C94      1.0000 0.25411  0.31300  0.87838  Biso   1.000  C
  H47      1.0000 0.24580  0.39310  0.85330  Biso   1.000  H
  C95      1.0000 0.32384  0.42900  0.00324  Biso   1.000  C
  C96      1.0000 0.07850  0.19710  0.19672  Biso   1.000  C
  C97      1.0000 0.19385  0.28010  0.70280  Biso   1.000  C
  H48      1.0000 0.22320  0.34180  0.72520  Biso   1.000  H
  C98      1.0000 0.07263  0.23400  0.12650  Biso   1.000  C
  H49      1.0000 0.04100  0.20830  0.07850  Biso   1.000  H
  C99      1.0000 0.16004  0.26790  0.62280  Biso   1.000  C
  H50      1.0000 0.16670  0.32150  0.59220  Biso   1.000  H
  C100     1.0000 0.11614  0.17560  0.58831  Biso   1.000  C
  C101     1.0000 0.10442  0.10370  0.63523  Biso   1.000  C
  H51      1.0000 0.07360  0.04560  0.61280  Biso   1.000  H
  C102     1.0000 0.13801  0.11750  0.71484  Biso   1.000  C
  H52      1.0000 0.12920  0.06950  0.74530  Biso   1.000  H
  C103     1.0000 0.16981  0.31440  0.27320  Biso   1.000  C
  H53      1.0000 0.20140  0.34200  0.32070  Biso   1.000  H
  C104     1.0000 0.16314  0.34900  0.20530  Biso   1.000  C
  H54      1.0000 0.19110  0.40150  0.20680  Biso   1.000  H
  C105     1.0000 0.11558  0.30880  0.13260  Biso   1.000  C
  H55      1.0000 0.11350  0.33390  0.08790  Biso   1.000  H
  Cd11     1.0000 0.67511  0.70255  0.45175  Biso   1.000  Cd
  Cd12     1.0000 0.54293  0.52170  0.36461  Biso   1.000  Cd
  O31      1.0000 0.59432  0.70890  0.45940  Biso   1.000  O
  O32      1.0000 0.76162  0.34900  0.95564  Biso   1.000  O
  O33      1.0000 0.79924  0.03460  0.97022  Biso   1.000  O
  N16      1.0000 0.57156  0.61530  0.28797  Biso   1.000  N
  O34      1.0000 0.83550  0.43580  0.06214  Biso   1.000  O
  N17      1.0000 0.54496  0.62200  0.21117  Biso   1.000  N
  O35      1.0000 0.55212  0.54610  0.47964  Biso   1.000  O
  N18      1.0000 0.62090  0.68240  0.32386  Biso   1.000  N
  O36      1.0000 0.86829  0.91880  0.07015  Biso   1.000  O
  C106     1.0000 0.62669  0.73510  0.26807  Biso   1.000  C
  C107     1.0000 0.73831  0.58460  0.87565  Biso   1.000  C
  H56      1.0000 0.71930  0.50930  0.84860  Biso   1.000  H
  C108     1.0000 0.68487  0.70250  0.74993  Biso   1.000  C
  C109     1.0000 0.77874  0.57700  0.95471  Biso   1.000  C
  C110     1.0000 0.58537  0.64340  0.50386  Biso   1.000  C
  C111     1.0000 0.80777  0.68820  0.99605  Biso   1.000  C
  H57      1.0000 0.83560  0.68320  0.04890  Biso   1.000  H
  C112     1.0000 0.72543  0.70160  0.83566  Biso   1.000  C
  C113     1.0000 0.79281  0.44750  0.99441  Biso   1.000  C
  C114     1.0000 0.79495  0.80640  0.95797  Biso   1.000  C
  C115     1.0000 0.75411  0.81300  0.87838  Biso   1.000  C
  H58      1.0000 0.74580  0.89310  0.85330  Biso   1.000  H
  C116     1.0000 0.82384  0.92900  0.00324  Biso   1.000  C
  C117     1.0000 0.57850  0.69710  0.19672  Biso   1.000  C
  C118     1.0000 0.69385  0.78010  0.70280  Biso   1.000  C
  H59      1.0000 0.72320  0.84180  0.72520  Biso   1.000  H
  C119     1.0000 0.57263  0.73400  0.12650  Biso   1.000  C
  H60      1.0000 0.54100  0.70830  0.07850  Biso   1.000  H
  C120     1.0000 0.66004  0.76790  0.62280  Biso   1.000  C
  H61      1.0000 0.66670  0.82150  0.59220  Biso   1.000  H
  C121     1.0000 0.61614  0.67560  0.58831  Biso   1.000  C
  C122     1.0000 0.60442  0.60370  0.63523  Biso   1.000  C
  H62      1.0000 0.57360  0.54560  0.61280  Biso   1.000  H
  C123     1.0000 0.63801  0.61750  0.71484  Biso   1.000  C
  H63      1.0000 0.62920  0.56950  0.74530  Biso   1.000  H
  C124     1.0000 0.66981  0.81440  0.27320  Biso   1.000  C
  H64      1.0000 0.70140  0.84200  0.32070  Biso   1.000  H
  C125     1.0000 0.66314  0.84900  0.20530  Biso   1.000  C
  H65      1.0000 0.69110  0.90150  0.20680  Biso   1.000  H
  C126     1.0000 0.61558  0.80880  0.13260  Biso   1.000  C
  H66      1.0000 0.61350  0.83390  0.08790  Biso   1.000  H
  Cd13     1.0000 0.82489  0.20255  0.04825  Biso   1.000  Cd
  Cd14     1.0000 0.95707  0.02170  0.13539  Biso   1.000  Cd
  O37      1.0000 0.90568  0.20890  0.04060  Biso   1.000  O
  O38      1.0000 0.73838  0.84900  0.54436  Biso   1.000  O
  O39      1.0000 0.70076  0.53460  0.52978  Biso   1.000  O
  N19      1.0000 0.92844  0.11530  0.21203  Biso   1.000  N
  O40      1.0000 0.66450  0.93580  0.43786  Biso   1.000  O
  N20      1.0000 0.95504  0.12200  0.28883  Biso   1.000  N
  O41      1.0000 0.94788  0.04610  0.02036  Biso   1.000  O
  N21      1.0000 0.87910  0.18240  0.17614  Biso   1.000  N
  O42      1.0000 0.63171  0.41880  0.42985  Biso   1.000  O
  C127     1.0000 0.87331  0.23510  0.23193  Biso   1.000  C
  C128     1.0000 0.76169  0.08460  0.62435  Biso   1.000  C
  H67      1.0000 0.78070  0.00930  0.65140  Biso   1.000  H
  C129     1.0000 0.81513  0.20250  0.75007  Biso   1.000  C
  C130     1.0000 0.72126  0.07700  0.54529  Biso   1.000  C
  C131     1.0000 0.91463  0.14340  0.99614  Biso   1.000  C
  C132     1.0000 0.69223  0.18820  0.50395  Biso   1.000  C
  H68      1.0000 0.66440  0.18320  0.45110  Biso   1.000  H
  C133     1.0000 0.77457  0.20160  0.66434  Biso   1.000  C
  C134     1.0000 0.70719  0.94750  0.50559  Biso   1.000  C
  C135     1.0000 0.70505  0.30640  0.54203  Biso   1.000  C
  C136     1.0000 0.74589  0.31300  0.62162  Biso   1.000  C
  H69      1.0000 0.75420  0.39310  0.64670  Biso   1.000  H
  C137     1.0000 0.67616  0.42900  0.49676  Biso   1.000  C
  C138     1.0000 0.92150  0.19710  0.30328  Biso   1.000  C
  C139     1.0000 0.80615  0.28010  0.79720  Biso   1.000  C
  H70      1.0000 0.77680  0.34180  0.77480  Biso   1.000  H
  C140     1.0000 0.92737  0.23400  0.37350  Biso   1.000  C
  H71      1.0000 0.95900  0.20830  0.42150  Biso   1.000  H
  C141     1.0000 0.83996  0.26790  0.87720  Biso   1.000  C
  H72      1.0000 0.83330  0.32150  0.90780  Biso   1.000  H
  C142     1.0000 0.88386  0.17560  0.91169  Biso   1.000  C
  C143     1.0000 0.89558  0.10370  0.86477  Biso   1.000  C
  H73      1.0000 0.92640  0.04560  0.88720  Biso   1.000  H
  C144     1.0000 0.86199  0.11750  0.78516  Biso   1.000  C
  H74      1.0000 0.87080  0.06950  0.75470  Biso   1.000  H
  C145     1.0000 0.83019  0.31440  0.22680  Biso   1.000  C
  H75      1.0000 0.79860  0.34200  0.17930  Biso   1.000  H
  C146     1.0000 0.83686  0.34900  0.29470  Biso   1.000  C
  H76      1.0000 0.80890  0.40150  0.29320  Biso   1.000  H
  C147     1.0000 0.88442  0.30880  0.36740  Biso   1.000  C
  H77      1.0000 0.88650  0.33390  0.41210  Biso   1.000  H
  Cd15     1.0000 0.32489  0.70255  0.04825  Biso   1.000  Cd
  Cd16     1.0000 0.45707  0.52170  0.13539  Biso   1.000  Cd
  O43      1.0000 0.40568  0.70890  0.04060  Biso   1.000  O
  O44      1.0000 0.23838  0.34900  0.54436  Biso   1.000  O
  O45      1.0000 0.20076  0.03460  0.52978  Biso   1.000  O
  N22      1.0000 0.42844  0.61530  0.21203  Biso   1.000  N
  O46      1.0000 0.16450  0.43580  0.43786  Biso   1.000  O
  N23      1.0000 0.45504  0.62200  0.28883  Biso   1.000  N
  O47      1.0000 0.44788  0.54610  0.02036  Biso   1.000  O
  N24      1.0000 0.37910  0.68240  0.17614  Biso   1.000  N
  O48      1.0000 0.13171  0.91880  0.42985  Biso   1.000  O
  C148     1.0000 0.37331  0.73510  0.23193  Biso   1.000  C
  C149     1.0000 0.26169  0.58460  0.62435  Biso   1.000  C
  H78      1.0000 0.28070  0.50930  0.65140  Biso   1.000  H
  C150     1.0000 0.31513  0.70250  0.75007  Biso   1.000  C
  C151     1.0000 0.22126  0.57700  0.54529  Biso   1.000  C
  C152     1.0000 0.41463  0.64340  0.99614  Biso   1.000  C
  C153     1.0000 0.19223  0.68820  0.50395  Biso   1.000  C
  H79      1.0000 0.16440  0.68320  0.45110  Biso   1.000  H
  C154     1.0000 0.27457  0.70160  0.66434  Biso   1.000  C
  C155     1.0000 0.20719  0.44750  0.50559  Biso   1.000  C
  C156     1.0000 0.20505  0.80640  0.54203  Biso   1.000  C
  C157     1.0000 0.24589  0.81300  0.62162  Biso   1.000  C
  H80      1.0000 0.25420  0.89310  0.64670  Biso   1.000  H
  C158     1.0000 0.17616  0.92900  0.49676  Biso   1.000  C
  C159     1.0000 0.42150  0.69710  0.30328  Biso   1.000  C
  C160     1.0000 0.30615  0.78010  0.79720  Biso   1.000  C
  H81      1.0000 0.27680  0.84180  0.77480  Biso   1.000  H
  C161     1.0000 0.42737  0.73400  0.37350  Biso   1.000  C
  H82      1.0000 0.45900  0.70830  0.42150  Biso   1.000  H
  C162     1.0000 0.33996  0.76790  0.87720  Biso   1.000  C
  H83      1.0000 0.33330  0.82150  0.90780  Biso   1.000  H
  C163     1.0000 0.38386  0.67560  0.91169  Biso   1.000  C
  C164     1.0000 0.39558  0.60370  0.86477  Biso   1.000  C
  H84      1.0000 0.42640  0.54560  0.88720  Biso   1.000  H
  C165     1.0000 0.36199  0.61750  0.78516  Biso   1.000  C
  H85      1.0000 0.37080  0.56950  0.75470  Biso   1.000  H
  C166     1.0000 0.33019  0.81440  0.22680  Biso   1.000  C
  H86      1.0000 0.29860  0.84200  0.17930  Biso   1.000  H
  C167     1.0000 0.33686  0.84900  0.29470  Biso   1.000  C
  H87      1.0000 0.30890  0.90150  0.29320  Biso   1.000  H
  C168     1.0000 0.38442  0.80880  0.36740  Biso   1.000  C
  H88      1.0000 0.38650  0.83390  0.41210  Biso   1.000  H
