data_image0
_cell_length_a       12.2821
_cell_length_b       14.426
_cell_length_c       12.5733
_cell_angle_alpha    90
_cell_angle_beta     113.909
_cell_angle_gamma    90

_symmetry_space_group_name_H-M    "P 1"
_symmetry_int_tables_number       1

loop_
  _symmetry_equiv_pos_as_xyz
  'x, y, z'

loop_
  _atom_site_label
  _atom_site_occupancy
  _atom_site_fract_x
  _atom_site_fract_y
  _atom_site_fract_z
  _atom_site_thermal_displace_type
  _atom_site_B_iso_or_equiv
  _atom_site_type_symbol
  C1       1.0000 0.92640  0.25480  0.28690  Biso   1.000  C
  C2       1.0000 0.03310  0.25240  0.27370  Biso   1.000  C
  H1       1.0000 0.09040  0.29740  0.30960  Biso   1.000  H
  C3       1.0000 0.05570  0.18370  0.20780  Biso   1.000  C
  C4       1.0000 0.96890  0.11730  0.15430  Biso   1.000  C
  H2       1.0000 0.98330  0.07060  0.11060  Biso   1.000  H
  C5       1.0000 0.86080  0.11970  0.16510  Biso   1.000  C
  C6       1.0000 0.84030  0.18800  0.23290  Biso   1.000  C
  H3       1.0000 0.76880  0.18890  0.24200  Biso   1.000  H
  C7       1.0000 0.90430  0.33140  0.35670  Biso   1.000  C
  C8       1.0000 0.16890  0.18700  0.18910  Biso   1.000  C
  C9       1.0000 0.76440  0.05120  0.09800  Biso   1.000  C
  C10      1.0000 0.89490  0.50860  0.73290  Biso   1.000  C
  H4       1.0000 0.84210  0.54150  0.66940  Biso   1.000  H
  C11      1.0000 0.91110  0.53440  0.84320  Biso   1.000  C
  H5       1.0000 0.86910  0.58460  0.85390  Biso   1.000  H
  C12      1.0000 0.99000  0.48610  0.93930  Biso   1.000  C
  C13      1.0000 0.04970  0.41090  0.91730  Biso   1.000  C
  H6       1.0000 0.10270  0.37640  0.97900  Biso   1.000  H
  C14      1.0000 0.03050  0.38760  0.80510  Biso   1.000  C
  H7       1.0000 0.07090  0.33760  0.79150  Biso   1.000  H
  Co1      1.0000 0.75977  0.36257  0.50355  Biso   1.000  Co
  N1       1.0000 0.95430  0.43620  0.71570  Biso   1.000  N
  O1       1.0000 0.80830  0.33034  0.36880  Biso   1.000  O
  O2       1.0000 0.98630  0.39114  0.39730  Biso   1.000  O
  O3       1.0000 0.23860  0.25370  0.23370  Biso   1.000  O
  O4       1.0000 0.18430  0.12485  0.12640  Biso   1.000  O
  O5       1.0000 0.78870  0.99878  0.02990  Biso   1.000  O
  O6       1.0000 0.66890  0.05237  0.11100  Biso   1.000  O
  O7       1.0000 0.93460  0.41111  0.60580  Biso   1.000  O
  H8       1.0000 0.98300  0.35500  0.61750  Biso   1.000  H
  C15      1.0000 0.57360  0.75480  0.21310  Biso   1.000  C
  C16      1.0000 0.46690  0.75240  0.22630  Biso   1.000  C
  H9       1.0000 0.40960  0.79740  0.19040  Biso   1.000  H
  C17      1.0000 0.44430  0.68370  0.29220  Biso   1.000  C
  C18      1.0000 0.53110  0.61730  0.34570  Biso   1.000  C
  H10      1.0000 0.51670  0.57060  0.38940  Biso   1.000  H
  C19      1.0000 0.63920  0.61970  0.33490  Biso   1.000  C
  C20      1.0000 0.65970  0.68800  0.26710  Biso   1.000  C
  H11      1.0000 0.73120  0.68890  0.25800  Biso   1.000  H
  C21      1.0000 0.59570  0.83140  0.14330  Biso   1.000  C
  C22      1.0000 0.33110  0.68700  0.31090  Biso   1.000  C
  C23      1.0000 0.73560  0.55120  0.40200  Biso   1.000  C
  C24      1.0000 0.60510  0.00860  0.76710  Biso   1.000  C
  H12      1.0000 0.65790  0.04150  0.83060  Biso   1.000  H
  C25      1.0000 0.58890  0.03440  0.65680  Biso   1.000  C
  H13      1.0000 0.63090  0.08460  0.64610  Biso   1.000  H
  C26      1.0000 0.51000  0.98610  0.56070  Biso   1.000  C
  C27      1.0000 0.45030  0.91090  0.58270  Biso   1.000  C
  H14      1.0000 0.39730  0.87640  0.52100  Biso   1.000  H
  C28      1.0000 0.46950  0.88760  0.69490  Biso   1.000  C
  H15      1.0000 0.42910  0.83760  0.70850  Biso   1.000  H
  Co2      1.0000 0.74023  0.86257  0.99645  Biso   1.000  Co
  N2       1.0000 0.54570  0.93620  0.78430  Biso   1.000  N
  O8       1.0000 0.69170  0.83034  0.13120  Biso   1.000  O
  O9       1.0000 0.51370  0.89114  0.10270  Biso   1.000  O
  O10      1.0000 0.26140  0.75370  0.26630  Biso   1.000  O
  O11      1.0000 0.31570  0.62485  0.37360  Biso   1.000  O
  O12      1.0000 0.71130  0.49878  0.47010  Biso   1.000  O
  O13      1.0000 0.83110  0.55237  0.38900  Biso   1.000  O
  O14      1.0000 0.56540  0.91111  0.89420  Biso   1.000  O
  H16      1.0000 0.51700  0.85500  0.88250  Biso   1.000  H
  C29      1.0000 0.07360  0.74520  0.71310  Biso   1.000  C
  C30      1.0000 0.96690  0.74760  0.72630  Biso   1.000  C
  H17      1.0000 0.90960  0.70260  0.69040  Biso   1.000  H
  C31      1.0000 0.94430  0.81630  0.79220  Biso   1.000  C
  C32      1.0000 0.03110  0.88270  0.84570  Biso   1.000  C
  H18      1.0000 0.01670  0.92940  0.88940  Biso   1.000  H
  C33      1.0000 0.13920  0.88030  0.83490  Biso   1.000  C
  C34      1.0000 0.15970  0.81200  0.76710  Biso   1.000  C
  H19      1.0000 0.23120  0.81110  0.75800  Biso   1.000  H
  C35      1.0000 0.09570  0.66860  0.64330  Biso   1.000  C
  C36      1.0000 0.83110  0.81300  0.81090  Biso   1.000  C
  C37      1.0000 0.23560  0.94880  0.90200  Biso   1.000  C
  C38      1.0000 0.10510  0.49140  0.26710  Biso   1.000  C
  H20      1.0000 0.15790  0.45850  0.33060  Biso   1.000  H
  C39      1.0000 0.08890  0.46560  0.15680  Biso   1.000  C
  H21      1.0000 0.13090  0.41540  0.14610  Biso   1.000  H
  C40      1.0000 0.01000  0.51390  0.06070  Biso   1.000  C
  C41      1.0000 0.95030  0.58910  0.08270  Biso   1.000  C
  H22      1.0000 0.89730  0.62360  0.02100  Biso   1.000  H
  C42      1.0000 0.96950  0.61240  0.19490  Biso   1.000  C
  H23      1.0000 0.92910  0.66240  0.20850  Biso   1.000  H
  Co3      1.0000 0.24023  0.63743  0.49645  Biso   1.000  Co
  N3       1.0000 0.04570  0.56380  0.28430  Biso   1.000  N
  O15      1.0000 0.19170  0.66966  0.63120  Biso   1.000  O
  O16      1.0000 0.01370  0.60886  0.60270  Biso   1.000  O
  O17      1.0000 0.76140  0.74630  0.76630  Biso   1.000  O
  O18      1.0000 0.81570  0.87515  0.87360  Biso   1.000  O
  O19      1.0000 0.21130  0.00122  0.97010  Biso   1.000  O
  O20      1.0000 0.33110  0.94763  0.88900  Biso   1.000  O
  O21      1.0000 0.06540  0.58889  0.39420  Biso   1.000  O
  H24      1.0000 0.01700  0.64500  0.38250  Biso   1.000  H
  C43      1.0000 0.42640  0.24520  0.78690  Biso   1.000  C
  C44      1.0000 0.53310  0.24760  0.77370  Biso   1.000  C
  H25      1.0000 0.59040  0.20260  0.80960  Biso   1.000  H
  C45      1.0000 0.55570  0.31630  0.70780  Biso   1.000  C
  C46      1.0000 0.46890  0.38270  0.65430  Biso   1.000  C
  H26      1.0000 0.48330  0.42940  0.61060  Biso   1.000  H
  C47      1.0000 0.36080  0.38030  0.66510  Biso   1.000  C
  C48      1.0000 0.34030  0.31200  0.73290  Biso   1.000  C
  H27      1.0000 0.26880  0.31110  0.74200  Biso   1.000  H
  C49      1.0000 0.40430  0.16860  0.85670  Biso   1.000  C
  C50      1.0000 0.66890  0.31300  0.68910  Biso   1.000  C
  C51      1.0000 0.26440  0.44880  0.59800  Biso   1.000  C
  C52      1.0000 0.39490  0.99140  0.23290  Biso   1.000  C
  H28      1.0000 0.34210  0.95850  0.16940  Biso   1.000  H
  C53      1.0000 0.41110  0.96560  0.34320  Biso   1.000  C
  H29      1.0000 0.36910  0.91540  0.35390  Biso   1.000  H
  C54      1.0000 0.49000  0.01390  0.43930  Biso   1.000  C
  C55      1.0000 0.54970  0.08910  0.41730  Biso   1.000  C
  H30      1.0000 0.60270  0.12360  0.47900  Biso   1.000  H
  C56      1.0000 0.53050  0.11240  0.30510  Biso   1.000  C
  H31      1.0000 0.57090  0.16240  0.29150  Biso   1.000  H
  Co4      1.0000 0.25977  0.13743  0.00355  Biso   1.000  Co
  N4       1.0000 0.45430  0.06380  0.21570  Biso   1.000  N
  O22      1.0000 0.30830  0.16966  0.86880  Biso   1.000  O
  O23      1.0000 0.48630  0.10886  0.89730  Biso   1.000  O
  O24      1.0000 0.73860  0.24630  0.73370  Biso   1.000  O
  O25      1.0000 0.68430  0.37515  0.62640  Biso   1.000  O
  O26      1.0000 0.28870  0.50122  0.52990  Biso   1.000  O
  O27      1.0000 0.16890  0.44763  0.61100  Biso   1.000  O
  O28      1.0000 0.43460  0.08889  0.10580  Biso   1.000  O
  H32      1.0000 0.48300  0.14500  0.11750  Biso   1.000  H
  Co5      1.0000 0.00000  0.50000  0.50000  Biso   1.000  Co
  Co6      1.0000 0.50000  0.00000  0.00000  Biso   1.000  Co
