data_image0
_cell_length_a       9.0362
_cell_length_b       17.484
_cell_length_c       24.772
_cell_angle_alpha    69.717
_cell_angle_beta     84.873
_cell_angle_gamma    82.904

_symmetry_space_group_name_H-M    "P 1"
_symmetry_int_tables_number       1

loop_
  _symmetry_equiv_pos_as_xyz
  'x, y, z'

loop_
  _atom_site_label
  _atom_site_occupancy
  _atom_site_fract_x
  _atom_site_fract_y
  _atom_site_fract_z
  _atom_site_thermal_displace_type
  _atom_site_B_iso_or_equiv
  _atom_site_type_symbol
  Ba1      1.0000 0.74853  0.81612  0.68982  Biso   1.000  Ba
  Ba2      1.0000 0.24832  0.73573  0.76987  Biso   1.000  Ba
  O1       1.0000 0.54310  0.78310  0.78870  Biso   1.000  O
  O2       1.0000 0.64570  0.71100  0.64020  Biso   1.000  O
  O3       1.0000 0.35100  0.81830  0.83900  Biso   1.000  O
  O4       1.0000 0.45070  0.77260  0.67300  Biso   1.000  O
  O5       1.0000 0.59510  0.01760  0.74010  Biso   1.000  O
  H1       1.0000 0.68010  0.99680  0.73630  Biso   1.000  H
  O6       1.0000 0.09850  0.87440  0.87950  Biso   1.000  O
  H2       1.0000 0.08830  0.86500  0.91430  Biso   1.000  H
  O7       1.0000 0.85100  0.94270  0.71770  Biso   1.000  O
  O8       1.0000 0.39660  0.77500  0.19020  Biso   1.000  O
  O9       1.0000 0.45470  0.60590  0.77880  Biso   1.000  O
  O10      1.0000 0.52760  0.70120  0.12480  Biso   1.000  O
  O11      1.0000 0.54510  0.95090  0.68330  Biso   1.000  O
  O12      1.0000 0.09990  0.07840  0.95700  Biso   1.000  O
  C1       1.0000 0.50700  0.72650  0.64650  Biso   1.000  C
  O13      1.0000 0.89360  0.43700  0.54520  Biso   1.000  O
  O14      1.0000 0.39990  0.49850  0.76000  Biso   1.000  O
  H3       1.0000 0.31600  0.52320  0.75770  Biso   1.000  H
  O15      1.0000 0.40020  0.28720  0.69570  Biso   1.000  O
  C2       1.0000 0.36300  0.59670  0.56990  Biso   1.000  C
  O16      1.0000 0.54480  0.20660  0.63520  Biso   1.000  O
  O17      1.0000 0.96320  0.21160  0.96570  Biso   1.000  O
  C3       1.0000 0.45580  0.45980  0.55870  Biso   1.000  C
  O18      1.0000 0.03360  0.30380  0.53790  Biso   1.000  O
  C4       1.0000 0.63430  0.91290  0.92300  Biso   1.000  C
  C5       1.0000 0.40500  0.68730  0.62110  Biso   1.000  C
  C6       1.0000 0.48720  0.81300  0.82580  Biso   1.000  C
  C7       1.0000 0.78540  0.89810  0.91430  Biso   1.000  C
  H4       1.0000 0.85040  0.91680  0.93290  Biso   1.000  H
  C8       1.0000 0.24500  0.96620  0.71280  Biso   1.000  C
  H5       1.0000 0.28320  0.92220  0.70120  Biso   1.000  H
  C9       1.0000 0.45830  0.63280  0.59380  Biso   1.000  C
  H6       1.0000 0.56080  0.61930  0.59090  Biso   1.000  H
  C10      1.0000 0.02280  0.25010  0.69700  Biso   1.000  C
  C11      1.0000 0.21040  0.61420  0.57630  Biso   1.000  C
  H7       1.0000 0.14520  0.58870  0.56260  Biso   1.000  H
  C12      1.0000 0.59130  0.84170  0.85800  Biso   1.000  C
  C13      1.0000 0.13420  0.10420  0.74080  Biso   1.000  C
  C14      1.0000 0.52550  0.91300  0.02040  Biso   1.000  C
  C15      1.0000 0.42970  0.54640  0.53440  Biso   1.000  C
  C16      1.0000 0.25210  0.70760  0.62510  Biso   1.000  C
  H8       1.0000 0.21460  0.74620  0.64210  Biso   1.000  H
  C17      1.0000 0.95250  0.32530  0.70130  Biso   1.000  C
  C18      1.0000 0.09080  0.98170  0.72160  Biso   1.000  C
  C19      1.0000 0.53840  0.88390  0.89500  Biso   1.000  C
  H9       1.0000 0.43590  0.89310  0.90150  Biso   1.000  H
  C20      1.0000 0.54380  0.04400  0.94170  Biso   1.000  C
  C21      1.0000 0.52760  0.41510  0.52380  Biso   1.000  C
  C22      1.0000 0.98880  0.92510  0.71390  Biso   1.000  C
  C23      1.0000 0.56850  0.95840  0.96330  Biso   1.000  C
  C24      1.0000 0.06810  0.18400  0.74750  Biso   1.000  C
  C25      1.0000 0.75470  0.56890  0.76640  Biso   1.000  C
  H10      1.0000 0.71780  0.61950  0.76930  Biso   1.000  H
  C26      1.0000 0.04140  0.19370  0.80150  Biso   1.000  C
  C27      1.0000 0.74420  0.82770  0.84970  Biso   1.000  C
  H11      1.0000 0.78190  0.79950  0.82500  Biso   1.000  H
  C28      1.0000 0.03770  0.05210  0.73400  Biso   1.000  C
  H12      1.0000 0.93520  0.06490  0.73790  Biso   1.000  H
  C29      1.0000 0.90620  0.54970  0.76200  Biso   1.000  C
  C30      1.0000 0.28530  0.08560  0.73530  Biso   1.000  C
  H13      1.0000 0.35030  0.11930  0.74070  Biso   1.000  H
  C31      1.0000 0.97210  0.26870  0.80610  Biso   1.000  C
  C32      1.0000 0.86150  0.41540  0.76060  Biso   1.000  C
  C33      1.0000 0.92810  0.33430  0.75610  Biso   1.000  C
  C34      1.0000 0.95960  0.47190  0.75970  Biso   1.000  C
  H14      1.0000 0.06210  0.45760  0.75750  Biso   1.000  H
  C35      1.0000 0.15450  0.67070  0.60380  Biso   1.000  C
  C36      1.0000 0.93240  0.38010  0.59740  Biso   1.000  C
  C37      1.0000 0.41050  0.41670  0.61750  Biso   1.000  C
  H15      1.0000 0.36120  0.44570  0.64010  Biso   1.000  H
  C38      1.0000 0.00560  0.30550  0.59310  Biso   1.000  C
  C39      1.0000 0.43490  0.82620  0.13500  Biso   1.000  C
  C40      1.0000 0.43880  0.33440  0.64020  Biso   1.000  C
  C41      1.0000 0.05120  0.24270  0.64160  Biso   1.000  C
  H16      1.0000 0.10140  0.19470  0.63810  Biso   1.000  H
  C42      1.0000 0.55800  0.32680  0.55030  Biso   1.000  C
  H17      1.0000 0.60660  0.29620  0.52870  Biso   1.000  H
  C43      1.0000 0.41110  0.90900  0.11530  Biso   1.000  C
  H18      1.0000 0.36410  0.93560  0.13980  Biso   1.000  H
  C44      1.0000 0.64600  0.16270  0.60700  Biso   1.000  C
  H19      1.0000 0.60090  0.15970  0.57420  Biso   1.000  H
  H20      1.0000 0.67150  0.10830  0.63310  Biso   1.000  H
  H21      1.0000 0.73510  0.19030  0.59430  Biso   1.000  H
  C45      1.0000 0.08590  0.12910  0.85370  Biso   1.000  C
  H22      1.0000 0.13320  0.08010  0.85100  Biso   1.000  H
  C46      1.0000 0.71120  0.43550  0.76420  Biso   1.000  C
  H23      1.0000 0.64560  0.39800  0.76500  Biso   1.000  H
  C47      1.0000 0.54980  0.82590  0.04450  Biso   1.000  C
  H24      1.0000 0.59660  0.79700  0.02140  Biso   1.000  H
  C48      1.0000 0.50380  0.99170  0.71390  Biso   1.000  C
  C49      1.0000 0.33000  0.32840  0.73260  Biso   1.000  C
  H25      1.0000 0.23570  0.35590  0.71790  Biso   1.000  H
  H26      1.0000 0.39260  0.36790  0.73450  Biso   1.000  H
  H27      1.0000 0.31420  0.28950  0.77050  Biso   1.000  H
  C50      1.0000 0.34160  0.01680  0.72160  Biso   1.000  C
  C51      1.0000 0.99000  0.21020  0.91120  Biso   1.000  C
  C52      1.0000 0.06220  0.13640  0.90590  Biso   1.000  C
  C53      1.0000 0.65510  0.51370  0.76670  Biso   1.000  C
  C54      1.0000 0.16460  0.00150  0.95520  Biso   1.000  C
  H28      1.0000 0.10120  0.98090  0.93540  Biso   1.000  H
  H29      1.0000 0.17590  0.96380  0.99370  Biso   1.000  H
  H30      1.0000 0.26070  0.00760  0.93510  Biso   1.000  H
  C55      1.0000 0.50750  0.78410  0.09910  Biso   1.000  C
  C56      1.0000 0.90860  0.38930  0.64910  Biso   1.000  C
  H31      1.0000 0.86220  0.43880  0.65120  Biso   1.000  H
  C57      1.0000 0.84280  0.85470  0.87740  Biso   1.000  C
  C58      1.0000 0.00370  0.83650  0.86410  Biso   1.000  C
  C59      1.0000 0.82560  0.51320  0.54570  Biso   1.000  C
  H32      1.0000 0.80300  0.54760  0.50720  Biso   1.000  H
  H33      1.0000 0.89220  0.53860  0.56080  Biso   1.000  H
  H34      1.0000 0.73500  0.50560  0.56960  Biso   1.000  H
  C60      1.0000 0.32740  0.81430  0.22890  Biso   1.000  C
  H35      1.0000 0.23700  0.84620  0.21330  Biso   1.000  H
  H36      1.0000 0.39410  0.84950  0.23420  Biso   1.000  H
  H37      1.0000 0.30450  0.77360  0.26540  Biso   1.000  H
  C61      1.0000 0.94520  0.27510  0.86230  Biso   1.000  C
  H38      1.0000 0.89720  0.32330  0.86620  Biso   1.000  H
  C62      1.0000 0.51610  0.28850  0.60640  Biso   1.000  C
  C63      1.0000 0.49460  0.54270  0.76930  Biso   1.000  C
  C64      1.0000 0.13300  0.23740  0.53200  Biso   1.000  C
  H39      1.0000 0.15990  0.24740  0.49190  Biso   1.000  H
  H40      1.0000 0.08500  0.18780  0.54760  Biso   1.000  H
  H41      1.0000 0.22110  0.23220  0.55240  Biso   1.000  H
  C65      1.0000 0.62900  0.65820  0.09610  Biso   1.000  C
  H42      1.0000 0.58380  0.65680  0.06280  Biso   1.000  H
  H43      1.0000 0.65240  0.60330  0.12160  Biso   1.000  H
  H44      1.0000 0.71810  0.68540  0.08440  Biso   1.000  H
  O19      1.0000 0.04520  0.86340  0.70260  Biso   1.000  O
  O20      1.0000 0.95370  0.68450  0.75390  Biso   1.000  O
  O21      1.0000 0.90110  0.64250  0.61190  Biso   1.000  O
  H45      1.0000 0.81460  0.65990  0.61730  Biso   1.000  H
  O22      1.0000 0.95030  0.76140  0.61780  Biso   1.000  O
  O23      1.0000 0.14640  0.59110  0.76210  Biso   1.000  O
  O24      1.0000 0.04290  0.79030  0.83860  Biso   1.000  O
  C66      1.0000 0.01040  0.61220  0.75860  Biso   1.000  C
  C67      1.0000 0.99240  0.69680  0.61190  Biso   1.000  C
  C68      1.0000 0.85900  0.26950  0.97640  Biso   1.000  C
  H46      1.0000 0.76550  0.26740  0.96160  Biso   1.000  H
  H47      1.0000 0.89230  0.32290  0.95780  Biso   1.000  H
  H48      1.0000 0.84640  0.25860  0.01720  Biso   1.000  H
  Ba3      1.0000 0.25147  0.18388  0.31018  Biso   1.000  Ba
  Ba4      1.0000 0.75168  0.26427  0.23013  Biso   1.000  Ba
  O25      1.0000 0.45690  0.21690  0.21130  Biso   1.000  O
  O26      1.0000 0.35430  0.28900  0.35980  Biso   1.000  O
  O27      1.0000 0.64900  0.18170  0.16100  Biso   1.000  O
  O28      1.0000 0.54930  0.22740  0.32700  Biso   1.000  O
  O29      1.0000 0.40490  0.98240  0.25990  Biso   1.000  O
  H49      1.0000 0.31990  0.00320  0.26370  Biso   1.000  H
  O30      1.0000 0.90150  0.12560  0.12050  Biso   1.000  O
  H50      1.0000 0.91170  0.13500  0.08570  Biso   1.000  H
  O31      1.0000 0.14900  0.05730  0.28230  Biso   1.000  O
  O32      1.0000 0.60340  0.22500  0.80980  Biso   1.000  O
  O33      1.0000 0.54530  0.39410  0.22120  Biso   1.000  O
  O34      1.0000 0.47240  0.29880  0.87520  Biso   1.000  O
  O35      1.0000 0.45490  0.04910  0.31670  Biso   1.000  O
  O36      1.0000 0.90010  0.92160  0.04300  Biso   1.000  O
  C69      1.0000 0.49300  0.27350  0.35350  Biso   1.000  C
  O37      1.0000 0.10640  0.56300  0.45480  Biso   1.000  O
  O38      1.0000 0.60010  0.50150  0.24000  Biso   1.000  O
  H51      1.0000 0.68400  0.47680  0.24230  Biso   1.000  H
  O39      1.0000 0.59980  0.71280  0.30430  Biso   1.000  O
  C70      1.0000 0.63700  0.40330  0.43010  Biso   1.000  C
  O40      1.0000 0.45520  0.79340  0.36480  Biso   1.000  O
  O41      1.0000 0.03680  0.78840  0.03430  Biso   1.000  O
  C71      1.0000 0.54420  0.54020  0.44130  Biso   1.000  C
  O42      1.0000 0.96640  0.69620  0.46210  Biso   1.000  O
  C72      1.0000 0.36570  0.08710  0.07700  Biso   1.000  C
  C73      1.0000 0.59500  0.31270  0.37890  Biso   1.000  C
  C74      1.0000 0.51280  0.18700  0.17420  Biso   1.000  C
  C75      1.0000 0.21460  0.10190  0.08570  Biso   1.000  C
  H52      1.0000 0.14960  0.08320  0.06710  Biso   1.000  H
  C76      1.0000 0.75500  0.03380  0.28720  Biso   1.000  C
  H53      1.0000 0.71680  0.07780  0.29880  Biso   1.000  H
  C77      1.0000 0.54170  0.36720  0.40620  Biso   1.000  C
  H54      1.0000 0.43920  0.38070  0.40910  Biso   1.000  H
  C78      1.0000 0.97720  0.74990  0.30300  Biso   1.000  C
  C79      1.0000 0.78960  0.38580  0.42370  Biso   1.000  C
  H55      1.0000 0.85480  0.41130  0.43740  Biso   1.000  H
  C80      1.0000 0.40870  0.15830  0.14200  Biso   1.000  C
  C81      1.0000 0.86580  0.89580  0.25920  Biso   1.000  C
  C82      1.0000 0.47450  0.08700  0.97960  Biso   1.000  C
  C83      1.0000 0.57030  0.45360  0.46560  Biso   1.000  C
  C84      1.0000 0.74790  0.29240  0.37490  Biso   1.000  C
  H56      1.0000 0.78540  0.25380  0.35790  Biso   1.000  H
  C85      1.0000 0.04750  0.67470  0.29870  Biso   1.000  C
  C86      1.0000 0.90920  0.01830  0.27840  Biso   1.000  C
  C87      1.0000 0.46160  0.11610  0.10500  Biso   1.000  C
  H57      1.0000 0.56410  0.10690  0.09850  Biso   1.000  H
  C88      1.0000 0.45620  0.95600  0.05830  Biso   1.000  C
  C89      1.0000 0.47240  0.58490  0.47620  Biso   1.000  C
  C90      1.0000 0.01120  0.07490  0.28610  Biso   1.000  C
  C91      1.0000 0.43150  0.04160  0.03670  Biso   1.000  C
  C92      1.0000 0.93190  0.81600  0.25250  Biso   1.000  C
  C93      1.0000 0.24530  0.43110  0.23360  Biso   1.000  C
  H58      1.0000 0.28220  0.38050  0.23070  Biso   1.000  H
  C94      1.0000 0.95860  0.80630  0.19850  Biso   1.000  C
  C95      1.0000 0.25580  0.17230  0.15030  Biso   1.000  C
  H59      1.0000 0.21810  0.20050  0.17500  Biso   1.000  H
  C96      1.0000 0.96230  0.94790  0.26600  Biso   1.000  C
  H60      1.0000 0.06480  0.93510  0.26210  Biso   1.000  H
  C97      1.0000 0.09380  0.45030  0.23800  Biso   1.000  C
  C98      1.0000 0.71470  0.91440  0.26470  Biso   1.000  C
  H61      1.0000 0.64970  0.88070  0.25930  Biso   1.000  H
  C99      1.0000 0.02790  0.73130  0.19390  Biso   1.000  C
  C100     1.0000 0.13850  0.58460  0.23940  Biso   1.000  C
  C101     1.0000 0.07190  0.66570  0.24390  Biso   1.000  C
  C102     1.0000 0.04040  0.52810  0.24030  Biso   1.000  C
  H62      1.0000 0.93790  0.54240  0.24250  Biso   1.000  H
  C103     1.0000 0.84550  0.32930  0.39620  Biso   1.000  C
  C104     1.0000 0.06760  0.61990  0.40260  Biso   1.000  C
  C105     1.0000 0.58950  0.58330  0.38250  Biso   1.000  C
  H63      1.0000 0.63880  0.55430  0.35990  Biso   1.000  H
  C106     1.0000 0.99440  0.69450  0.40690  Biso   1.000  C
  C107     1.0000 0.56510  0.17380  0.86500  Biso   1.000  C
  C108     1.0000 0.56120  0.66560  0.35980  Biso   1.000  C
  C109     1.0000 0.94880  0.75730  0.35840  Biso   1.000  C
  H64      1.0000 0.89860  0.80530  0.36190  Biso   1.000  H
  C110     1.0000 0.44200  0.67320  0.44970  Biso   1.000  C
  H65      1.0000 0.39340  0.70380  0.47130  Biso   1.000  H
  C111     1.0000 0.58890  0.09100  0.88470  Biso   1.000  C
  H66      1.0000 0.63590  0.06440  0.86020  Biso   1.000  H
  C112     1.0000 0.35400  0.83730  0.39300  Biso   1.000  C
  H67      1.0000 0.39910  0.84030  0.42580  Biso   1.000  H
  H68      1.0000 0.32850  0.89170  0.36690  Biso   1.000  H
  H69      1.0000 0.26490  0.80970  0.40570  Biso   1.000  H
  C113     1.0000 0.91410  0.87090  0.14630  Biso   1.000  C
  H70      1.0000 0.86680  0.91990  0.14900  Biso   1.000  H
  C114     1.0000 0.28880  0.56450  0.23580  Biso   1.000  C
  H71      1.0000 0.35440  0.60200  0.23500  Biso   1.000  H
  C115     1.0000 0.45020  0.17410  0.95550  Biso   1.000  C
  H72      1.0000 0.40340  0.20300  0.97860  Biso   1.000  H
  C116     1.0000 0.49620  0.00830  0.28610  Biso   1.000  C
  C117     1.0000 0.67000  0.67160  0.26740  Biso   1.000  C
  H73      1.0000 0.76430  0.64410  0.28210  Biso   1.000  H
  H74      1.0000 0.60740  0.63210  0.26550  Biso   1.000  H
  H75      1.0000 0.68580  0.71050  0.22950  Biso   1.000  H
  C118     1.0000 0.65840  0.98320  0.27840  Biso   1.000  C
  C119     1.0000 0.01000  0.78980  0.08880  Biso   1.000  C
  C120     1.0000 0.93780  0.86360  0.09410  Biso   1.000  C
  C121     1.0000 0.34490  0.48630  0.23330  Biso   1.000  C
  C122     1.0000 0.83540  0.99850  0.04480  Biso   1.000  C
  H76      1.0000 0.89880  0.01910  0.06460  Biso   1.000  H
  H77      1.0000 0.82410  0.03620  0.00630  Biso   1.000  H
  H78      1.0000 0.73930  0.99240  0.06490  Biso   1.000  H
  C123     1.0000 0.49250  0.21590  0.90090  Biso   1.000  C
  C124     1.0000 0.09140  0.61070  0.35090  Biso   1.000  C
  H79      1.0000 0.13780  0.56120  0.34880  Biso   1.000  H
  C125     1.0000 0.15720  0.14530  0.12260  Biso   1.000  C
  C126     1.0000 0.99630  0.16350  0.13590  Biso   1.000  C
  C127     1.0000 0.17440  0.48680  0.45430  Biso   1.000  C
  H80      1.0000 0.19700  0.45240  0.49280  Biso   1.000  H
  H81      1.0000 0.10780  0.46140  0.43920  Biso   1.000  H
  H82      1.0000 0.26500  0.49440  0.43040  Biso   1.000  H
  C128     1.0000 0.67260  0.18570  0.77110  Biso   1.000  C
  H83      1.0000 0.76300  0.15380  0.78670  Biso   1.000  H
  H84      1.0000 0.60590  0.15050  0.76580  Biso   1.000  H
  H85      1.0000 0.69550  0.22640  0.73460  Biso   1.000  H
  C129     1.0000 0.05480  0.72490  0.13770  Biso   1.000  C
  H86      1.0000 0.10280  0.67670  0.13380  Biso   1.000  H
  C130     1.0000 0.48390  0.71150  0.39360  Biso   1.000  C
  C131     1.0000 0.50540  0.45730  0.23070  Biso   1.000  C
  C132     1.0000 0.86700  0.76260  0.46800  Biso   1.000  C
  H87      1.0000 0.84010  0.75260  0.50810  Biso   1.000  H
  H88      1.0000 0.91500  0.81220  0.45240  Biso   1.000  H
  H89      1.0000 0.77890  0.76780  0.44760  Biso   1.000  H
  C133     1.0000 0.37100  0.34180  0.90390  Biso   1.000  C
  H90      1.0000 0.41620  0.34320  0.93720  Biso   1.000  H
  H91      1.0000 0.34760  0.39670  0.87840  Biso   1.000  H
  H92      1.0000 0.28190  0.31460  0.91560  Biso   1.000  H
  O43      1.0000 0.95480  0.13660  0.29740  Biso   1.000  O
  O44      1.0000 0.04630  0.31550  0.24610  Biso   1.000  O
  O45      1.0000 0.09890  0.35750  0.38810  Biso   1.000  O
  H93      1.0000 0.18540  0.34010  0.38270  Biso   1.000  H
  O46      1.0000 0.04970  0.23860  0.38220  Biso   1.000  O
  O47      1.0000 0.85360  0.40890  0.23790  Biso   1.000  O
  O48      1.0000 0.95710  0.20970  0.16140  Biso   1.000  O
  C134     1.0000 0.98960  0.38780  0.24140  Biso   1.000  C
  C135     1.0000 0.00760  0.30320  0.38810  Biso   1.000  C
  C136     1.0000 0.14100  0.73050  0.02360  Biso   1.000  C
  H94      1.0000 0.23450  0.73260  0.03840  Biso   1.000  H
  H95      1.0000 0.10770  0.67710  0.04220  Biso   1.000  H
  H96      1.0000 0.15360  0.74140  0.98280  Biso   1.000  H
