data_image0
_cell_length_a       45.646
_cell_length_b       45.646
_cell_length_c       10.915
_cell_angle_alpha    90
_cell_angle_beta     90
_cell_angle_gamma    120

_symmetry_space_group_name_H-M    "P 1"
_symmetry_int_tables_number       1

loop_
  _symmetry_equiv_pos_as_xyz
  'x, y, z'

loop_
  _atom_site_label
  _atom_site_occupancy
  _atom_site_fract_x
  _atom_site_fract_y
  _atom_site_fract_z
  _atom_site_thermal_displace_type
  _atom_site_B_iso_or_equiv
  _atom_site_type_symbol
  Cu1      1.0000 0.15462  0.30927  0.41905  Biso   1.000  Cu
  O1       1.0000 0.11423  0.28898  0.31600  Biso   1.000  O
  C1       1.0000 0.11196  0.30266  0.21900  Biso   1.000  C
  C2       1.0000 0.07860  0.28483  0.15310  Biso   1.000  C
  C3       1.0000 0.98339  0.23549  0.96840  Biso   1.000  C
  C4       1.0000 0.04364  0.28160  0.98670  Biso   1.000  C
  C5       1.0000 0.01668  0.25182  0.03150  Biso   1.000  C
  C6       1.0000 0.07458  0.29801  0.04550  Biso   1.000  C
  H1       1.0000 0.09240  0.31770  0.01270  Biso   1.000  H
  C7       1.0000 0.05271  0.25486  0.19940  Biso   1.000  C
  H2       1.0000 0.05590  0.24520  0.26950  Biso   1.000  H
  C8       1.0000 0.02178  0.23945  0.13890  Biso   1.000  C
  O2       1.0000 0.06725  0.30686  0.80930  Biso   1.000  O
  O3       1.0000 0.01519  0.29171  0.83520  Biso   1.000  O
  N1       1.0000 0.04221  0.29511  0.87300  Biso   1.000  N
  O4       1.0000 0.13487  0.32952  0.17080  Biso   1.000  O
  C9       1.0000 0.92541  0.22344  0.95510  Biso   1.000  C
  H3       1.0000 0.90760  0.22510  0.98840  Biso   1.000  H
  C10      1.0000 0.92157  0.20638  0.84570  Biso   1.000  C
  C11      1.0000 0.95635  0.23782  0.01300  Biso   1.000  C
  C12      1.0000 0.94739  0.20242  0.80090  Biso   1.000  C
  H4       1.0000 0.94420  0.18950  0.73100  Biso   1.000  H
  C13      1.0000 0.97822  0.21780  0.86050  Biso   1.000  C
  C14      1.0000 0.88809  0.19075  0.78080  Biso   1.000  C
  O5       1.0000 0.88581  0.17484  0.68340  Biso   1.000  O
  O6       1.0000 0.86518  0.19479  0.82900  Biso   1.000  O
  N2       1.0000 0.00118  0.20772  0.81870  Biso   1.000  N
  O7       1.0000 0.02770  0.21595  0.87270  Biso   1.000  O
  O8       1.0000 0.99650  0.19470  0.71750  Biso   1.000  O
  N3       1.0000 0.95792  0.25301  0.12690  Biso   1.000  N
  O9       1.0000 0.93259  0.23937  0.19160  Biso   1.000  O
  N4       1.0000 0.99888  0.20665  0.18290  Biso   1.000  N
  O10      1.0000 0.98484  0.27658  0.16490  Biso   1.000  O
  O11      1.0000 0.97241  0.18817  0.12640  Biso   1.000  O
  O12      1.0000 0.00345  0.19770  0.28100  Biso   1.000  O
  Cu2      1.0000 0.82129  0.64260  0.75238  Biso   1.000  Cu
  O13      1.0000 0.78090  0.62231  0.64933  Biso   1.000  O
  C15      1.0000 0.77863  0.63599  0.55233  Biso   1.000  C
  C16      1.0000 0.74527  0.61816  0.48643  Biso   1.000  C
  C17      1.0000 0.65006  0.56882  0.30173  Biso   1.000  C
  C18      1.0000 0.71031  0.61493  0.32003  Biso   1.000  C
  C19      1.0000 0.68335  0.58515  0.36483  Biso   1.000  C
  C20      1.0000 0.74125  0.63134  0.37883  Biso   1.000  C
  H5       1.0000 0.75907  0.65103  0.34603  Biso   1.000  H
  C21      1.0000 0.71938  0.58819  0.53273  Biso   1.000  C
  H6       1.0000 0.72257  0.57853  0.60283  Biso   1.000  H
  C22      1.0000 0.68845  0.57278  0.47223  Biso   1.000  C
  O14      1.0000 0.73392  0.64019  0.14263  Biso   1.000  O
  O15      1.0000 0.68186  0.62504  0.16853  Biso   1.000  O
  N5       1.0000 0.70888  0.62844  0.20633  Biso   1.000  N
  O16      1.0000 0.80154  0.66285  0.50413  Biso   1.000  O
  C23      1.0000 0.59208  0.55677  0.28843  Biso   1.000  C
  H7       1.0000 0.57427  0.55843  0.32173  Biso   1.000  H
  C24      1.0000 0.58824  0.53971  0.17903  Biso   1.000  C
  C25      1.0000 0.62302  0.57115  0.34633  Biso   1.000  C
  C26      1.0000 0.61406  0.53575  0.13423  Biso   1.000  C
  H8       1.0000 0.61087  0.52283  0.06433  Biso   1.000  H
  C27      1.0000 0.64489  0.55113  0.19383  Biso   1.000  C
  C28      1.0000 0.55476  0.52408  0.11413  Biso   1.000  C
  O17      1.0000 0.55248  0.50817  0.01673  Biso   1.000  O
  O18      1.0000 0.53185  0.52812  0.16233  Biso   1.000  O
  N6       1.0000 0.66785  0.54105  0.15203  Biso   1.000  N
  O19      1.0000 0.69437  0.54928  0.20603  Biso   1.000  O
  O20      1.0000 0.66317  0.52803  0.05083  Biso   1.000  O
  N7       1.0000 0.62459  0.58634  0.46023  Biso   1.000  N
  O21      1.0000 0.59926  0.57270  0.52493  Biso   1.000  O
  N8       1.0000 0.66555  0.53998  0.51623  Biso   1.000  N
  O22      1.0000 0.65151  0.60991  0.49823  Biso   1.000  O
  O23      1.0000 0.63908  0.52150  0.45973  Biso   1.000  O
  O24      1.0000 0.67012  0.53103  0.61433  Biso   1.000  O
  Cu3      1.0000 0.48796  0.97593  0.08572  Biso   1.000  Cu
  O25      1.0000 0.44756  0.95565  0.98267  Biso   1.000  O
  C29      1.0000 0.44529  0.96933  0.88567  Biso   1.000  C
  C30      1.0000 0.41193  0.95150  0.81977  Biso   1.000  C
  C31      1.0000 0.31672  0.90216  0.63507  Biso   1.000  C
  C32      1.0000 0.37697  0.94827  0.65337  Biso   1.000  C
  C33      1.0000 0.35001  0.91849  0.69817  Biso   1.000  C
  C34      1.0000 0.40791  0.96468  0.71217  Biso   1.000  C
  H9       1.0000 0.42573  0.98437  0.67937  Biso   1.000  H
  C35      1.0000 0.38604  0.92153  0.86607  Biso   1.000  C
  H10      1.0000 0.38923  0.91187  0.93617  Biso   1.000  H
  C36      1.0000 0.35511  0.90612  0.80557  Biso   1.000  C
  O26      1.0000 0.40058  0.97353  0.47597  Biso   1.000  O
  O27      1.0000 0.34852  0.95838  0.50187  Biso   1.000  O
  N9       1.0000 0.37554  0.96178  0.53967  Biso   1.000  N
  O28      1.0000 0.46820  0.99619  0.83747  Biso   1.000  O
  C37      1.0000 0.25874  0.89011  0.62177  Biso   1.000  C
  H11      1.0000 0.24093  0.89177  0.65507  Biso   1.000  H
  C38      1.0000 0.25490  0.87305  0.51237  Biso   1.000  C
  C39      1.0000 0.28968  0.90449  0.67967  Biso   1.000  C
  C40      1.0000 0.28072  0.86909  0.46757  Biso   1.000  C
  H12      1.0000 0.27753  0.85617  0.39767  Biso   1.000  H
  C41      1.0000 0.31155  0.88447  0.52717  Biso   1.000  C
  C42      1.0000 0.22142  0.85742  0.44747  Biso   1.000  C
  O29      1.0000 0.21914  0.84151  0.35007  Biso   1.000  O
  O30      1.0000 0.19851  0.86146  0.49567  Biso   1.000  O
  N10      1.0000 0.33451  0.87439  0.48537  Biso   1.000  N
  O31      1.0000 0.36103  0.88262  0.53937  Biso   1.000  O
  O32      1.0000 0.32983  0.86137  0.38417  Biso   1.000  O
  N11      1.0000 0.29125  0.91968  0.79357  Biso   1.000  N
  O33      1.0000 0.26592  0.90604  0.85827  Biso   1.000  O
  N12      1.0000 0.33221  0.87332  0.84957  Biso   1.000  N
  O34      1.0000 0.31817  0.94325  0.83157  Biso   1.000  O
  O35      1.0000 0.30574  0.85484  0.79307  Biso   1.000  O
  O36      1.0000 0.33678  0.86437  0.94767  Biso   1.000  O
  Cu4      1.0000 0.69073  0.84536  0.41905  Biso   1.000  Cu
  O37      1.0000 0.71102  0.82525  0.31600  Biso   1.000  O
  C43      1.0000 0.69734  0.80930  0.21900  Biso   1.000  C
  C44      1.0000 0.71517  0.79377  0.15310  Biso   1.000  C
  C45      1.0000 0.76451  0.74790  0.96840  Biso   1.000  C
  C46      1.0000 0.71840  0.76204  0.98670  Biso   1.000  C
  C47      1.0000 0.74818  0.76486  0.03150  Biso   1.000  C
  C48      1.0000 0.70199  0.77657  0.04550  Biso   1.000  C
  H13      1.0000 0.68230  0.77470  0.01270  Biso   1.000  H
  C49      1.0000 0.74514  0.79785  0.19940  Biso   1.000  C
  H14      1.0000 0.75480  0.81070  0.26950  Biso   1.000  H
  C50      1.0000 0.76055  0.78233  0.13890  Biso   1.000  C
  O38      1.0000 0.69314  0.76039  0.80930  Biso   1.000  O
  O39      1.0000 0.70829  0.72348  0.83520  Biso   1.000  O
  N13      1.0000 0.70489  0.74710  0.87300  Biso   1.000  N
  O40      1.0000 0.67048  0.80535  0.17080  Biso   1.000  O
  C51      1.0000 0.77656  0.70197  0.95510  Biso   1.000  C
  H15      1.0000 0.77490  0.68250  0.98840  Biso   1.000  H
  C52      1.0000 0.79362  0.71519  0.84570  Biso   1.000  C
  C53      1.0000 0.76218  0.71853  0.01300  Biso   1.000  C
  C54      1.0000 0.79758  0.74497  0.80090  Biso   1.000  C
  H16      1.0000 0.81050  0.75470  0.73100  Biso   1.000  H
  C55      1.0000 0.78220  0.76042  0.86050  Biso   1.000  C
  C56      1.0000 0.80925  0.69734  0.78080  Biso   1.000  C
  O41      1.0000 0.82516  0.71097  0.68340  Biso   1.000  O
  O42      1.0000 0.80521  0.67039  0.82900  Biso   1.000  O
  N14      1.0000 0.79228  0.79346  0.81870  Biso   1.000  N
  O43      1.0000 0.78405  0.81175  0.87270  Biso   1.000  O
  O44      1.0000 0.80530  0.80180  0.71750  Biso   1.000  O
  N15      1.0000 0.74699  0.70491  0.12690  Biso   1.000  N
  O45      1.0000 0.76063  0.69322  0.19160  Biso   1.000  O
  N16      1.0000 0.79335  0.79223  0.18290  Biso   1.000  N
  O46      1.0000 0.72342  0.70826  0.16490  Biso   1.000  O
  O47      1.0000 0.81183  0.78424  0.12640  Biso   1.000  O
  O48      1.0000 0.80230  0.80575  0.28100  Biso   1.000  O
  Cu5      1.0000 0.35740  0.17869  0.75238  Biso   1.000  Cu
  O49      1.0000 0.37769  0.15858  0.64933  Biso   1.000  O
  C57      1.0000 0.36401  0.14263  0.55233  Biso   1.000  C
  C58      1.0000 0.38184  0.12710  0.48643  Biso   1.000  C
  C59      1.0000 0.43118  0.08123  0.30173  Biso   1.000  C
  C60      1.0000 0.38507  0.09537  0.32003  Biso   1.000  C
  C61      1.0000 0.41485  0.09819  0.36483  Biso   1.000  C
  C62      1.0000 0.36866  0.10990  0.37883  Biso   1.000  C
  H17      1.0000 0.34897  0.10803  0.34603  Biso   1.000  H
  C63      1.0000 0.41181  0.13118  0.53273  Biso   1.000  C
  H18      1.0000 0.42147  0.14403  0.60283  Biso   1.000  H
  C64      1.0000 0.42722  0.11566  0.47223  Biso   1.000  C
  O50      1.0000 0.35981  0.09372  0.14263  Biso   1.000  O
  O51      1.0000 0.37496  0.05681  0.16853  Biso   1.000  O
  N17      1.0000 0.37156  0.08043  0.20633  Biso   1.000  N
  O52      1.0000 0.33715  0.13868  0.50413  Biso   1.000  O
  C65      1.0000 0.44323  0.03530  0.28843  Biso   1.000  C
  H19      1.0000 0.44157  0.01583  0.32173  Biso   1.000  H
  C66      1.0000 0.46029  0.04852  0.17903  Biso   1.000  C
  C67      1.0000 0.42885  0.05186  0.34633  Biso   1.000  C
  C68      1.0000 0.46425  0.07830  0.13423  Biso   1.000  C
  H20      1.0000 0.47717  0.08803  0.06433  Biso   1.000  H
  C69      1.0000 0.44887  0.09375  0.19383  Biso   1.000  C
  C70      1.0000 0.47592  0.03067  0.11413  Biso   1.000  C
  O53      1.0000 0.49183  0.04430  0.01673  Biso   1.000  O
  O54      1.0000 0.47188  0.00372  0.16233  Biso   1.000  O
  N18      1.0000 0.45895  0.12679  0.15203  Biso   1.000  N
  O55      1.0000 0.45072  0.14508  0.20603  Biso   1.000  O
  O56      1.0000 0.47197  0.13513  0.05083  Biso   1.000  O
  N19      1.0000 0.41366  0.03824  0.46023  Biso   1.000  N
  O57      1.0000 0.42730  0.02655  0.52493  Biso   1.000  O
  N20      1.0000 0.46002  0.12556  0.51623  Biso   1.000  N
  O58      1.0000 0.39009  0.04159  0.49823  Biso   1.000  O
  O59      1.0000 0.47850  0.11757  0.45973  Biso   1.000  O
  O60      1.0000 0.46897  0.13908  0.61433  Biso   1.000  O
  Cu6      1.0000 0.02407  0.51202  0.08572  Biso   1.000  Cu
  O61      1.0000 0.04435  0.49192  0.98267  Biso   1.000  O
  C71      1.0000 0.03067  0.47597  0.88567  Biso   1.000  C
  C72      1.0000 0.04850  0.46044  0.81977  Biso   1.000  C
  C73      1.0000 0.09784  0.41457  0.63507  Biso   1.000  C
  C74      1.0000 0.05173  0.42871  0.65337  Biso   1.000  C
  C75      1.0000 0.08151  0.43153  0.69817  Biso   1.000  C
  C76      1.0000 0.03532  0.44324  0.71217  Biso   1.000  C
  H21      1.0000 0.01563  0.44137  0.67937  Biso   1.000  H
  C77      1.0000 0.07847  0.46452  0.86607  Biso   1.000  C
  H22      1.0000 0.08813  0.47737  0.93617  Biso   1.000  H
  C78      1.0000 0.09388  0.44900  0.80557  Biso   1.000  C
  O62      1.0000 0.02647  0.42706  0.47597  Biso   1.000  O
  O63      1.0000 0.04162  0.39015  0.50187  Biso   1.000  O
  N21      1.0000 0.03822  0.41377  0.53967  Biso   1.000  N
  O64      1.0000 0.00381  0.47202  0.83747  Biso   1.000  O
  C79      1.0000 0.10989  0.36864  0.62177  Biso   1.000  C
  H23      1.0000 0.10823  0.34917  0.65507  Biso   1.000  H
  C80      1.0000 0.12695  0.38186  0.51237  Biso   1.000  C
  C81      1.0000 0.09551  0.38520  0.67967  Biso   1.000  C
  C82      1.0000 0.13091  0.41164  0.46757  Biso   1.000  C
  H24      1.0000 0.14383  0.42137  0.39767  Biso   1.000  H
  C83      1.0000 0.11553  0.42709  0.52717  Biso   1.000  C
  C84      1.0000 0.14258  0.36401  0.44747  Biso   1.000  C
  O65      1.0000 0.15849  0.37764  0.35007  Biso   1.000  O
  O66      1.0000 0.13854  0.33706  0.49567  Biso   1.000  O
  N22      1.0000 0.12561  0.46013  0.48537  Biso   1.000  N
  O67      1.0000 0.11738  0.47842  0.53937  Biso   1.000  O
  O68      1.0000 0.13863  0.46847  0.38417  Biso   1.000  O
  N23      1.0000 0.08032  0.37158  0.79357  Biso   1.000  N
  O69      1.0000 0.09396  0.35989  0.85827  Biso   1.000  O
  N24      1.0000 0.12668  0.45890  0.84957  Biso   1.000  N
  O70      1.0000 0.05675  0.37493  0.83157  Biso   1.000  O
  O71      1.0000 0.14516  0.45091  0.79307  Biso   1.000  O
  O72      1.0000 0.13563  0.47242  0.94767  Biso   1.000  O
  Cu7      1.0000 0.15464  0.84538  0.41905  Biso   1.000  Cu
  O73      1.0000 0.17475  0.88577  0.31600  Biso   1.000  O
  C85      1.0000 0.19070  0.88804  0.21900  Biso   1.000  C
  C86      1.0000 0.20623  0.92140  0.15310  Biso   1.000  C
  C87      1.0000 0.25210  0.01661  0.96840  Biso   1.000  C
  C88      1.0000 0.23796  0.95636  0.98670  Biso   1.000  C
  C89      1.0000 0.23514  0.98332  0.03150  Biso   1.000  C
  C90      1.0000 0.22343  0.92542  0.04550  Biso   1.000  C
  H25      1.0000 0.22530  0.90760  0.01270  Biso   1.000  H
  C91      1.0000 0.20215  0.94729  0.19940  Biso   1.000  C
  H26      1.0000 0.18930  0.94410  0.26950  Biso   1.000  H
  C92      1.0000 0.21767  0.97822  0.13890  Biso   1.000  C
  O74      1.0000 0.23961  0.93275  0.80930  Biso   1.000  O
  O75      1.0000 0.27652  0.98481  0.83520  Biso   1.000  O
  N25      1.0000 0.25290  0.95779  0.87300  Biso   1.000  N
  O76      1.0000 0.19465  0.86513  0.17080  Biso   1.000  O
  C93      1.0000 0.29803  0.07459  0.95510  Biso   1.000  C
  H27      1.0000 0.31750  0.09240  0.98840  Biso   1.000  H
  C94      1.0000 0.28481  0.07843  0.84570  Biso   1.000  C
  C95      1.0000 0.28147  0.04365  0.01300  Biso   1.000  C
  C96      1.0000 0.25503  0.05261  0.80090  Biso   1.000  C
  H28      1.0000 0.24530  0.05580  0.73100  Biso   1.000  H
  C97      1.0000 0.23958  0.02178  0.86050  Biso   1.000  C
  C98      1.0000 0.30266  0.11191  0.78080  Biso   1.000  C
  O77      1.0000 0.28903  0.11419  0.68340  Biso   1.000  O
  O78      1.0000 0.32961  0.13482  0.82900  Biso   1.000  O
  N26      1.0000 0.20654  0.99882  0.81870  Biso   1.000  N
  O79      1.0000 0.18825  0.97230  0.87270  Biso   1.000  O
  O80      1.0000 0.19820  0.00350  0.71750  Biso   1.000  O
  N27      1.0000 0.29509  0.04208  0.12690  Biso   1.000  N
  O81      1.0000 0.30678  0.06741  0.19160  Biso   1.000  O
  N28      1.0000 0.20777  0.00112  0.18290  Biso   1.000  N
  O82      1.0000 0.29174  0.01516  0.16490  Biso   1.000  O
  O83      1.0000 0.21576  0.02759  0.12640  Biso   1.000  O
  O84      1.0000 0.19425  0.99655  0.28100  Biso   1.000  O
  Cu8      1.0000 0.82131  0.17871  0.75238  Biso   1.000  Cu
  O85      1.0000 0.84142  0.21910  0.64933  Biso   1.000  O
  C99      1.0000 0.85737  0.22137  0.55233  Biso   1.000  C
  C100     1.0000 0.87290  0.25473  0.48643  Biso   1.000  C
  C101     1.0000 0.91877  0.34994  0.30173  Biso   1.000  C
  C102     1.0000 0.90463  0.28969  0.32003  Biso   1.000  C
  C103     1.0000 0.90181  0.31665  0.36483  Biso   1.000  C
  C104     1.0000 0.89010  0.25875  0.37883  Biso   1.000  C
  H29      1.0000 0.89197  0.24093  0.34603  Biso   1.000  H
  C105     1.0000 0.86882  0.28062  0.53273  Biso   1.000  C
  H30      1.0000 0.85597  0.27743  0.60283  Biso   1.000  H
  C106     1.0000 0.88434  0.31155  0.47223  Biso   1.000  C
  O86      1.0000 0.90628  0.26608  0.14263  Biso   1.000  O
  O87      1.0000 0.94319  0.31814  0.16853  Biso   1.000  O
  N29      1.0000 0.91957  0.29112  0.20633  Biso   1.000  N
  O88      1.0000 0.86132  0.19846  0.50413  Biso   1.000  O
  C107     1.0000 0.96470  0.40792  0.28843  Biso   1.000  C
  H31      1.0000 0.98417  0.42573  0.32173  Biso   1.000  H
  C108     1.0000 0.95148  0.41176  0.17903  Biso   1.000  C
  C109     1.0000 0.94814  0.37698  0.34633  Biso   1.000  C
  C110     1.0000 0.92170  0.38594  0.13423  Biso   1.000  C
  H32      1.0000 0.91197  0.38913  0.06433  Biso   1.000  H
  C111     1.0000 0.90625  0.35511  0.19383  Biso   1.000  C
  C112     1.0000 0.96933  0.44524  0.11413  Biso   1.000  C
  O89      1.0000 0.95570  0.44752  0.01673  Biso   1.000  O
  O90      1.0000 0.99628  0.46815  0.16233  Biso   1.000  O
  N30      1.0000 0.87321  0.33215  0.15203  Biso   1.000  N
  O91      1.0000 0.85492  0.30563  0.20603  Biso   1.000  O
  O92      1.0000 0.86487  0.33683  0.05083  Biso   1.000  O
  N31      1.0000 0.96176  0.37541  0.46023  Biso   1.000  N
  O93      1.0000 0.97345  0.40074  0.52493  Biso   1.000  O
  N32      1.0000 0.87444  0.33445  0.51623  Biso   1.000  N
  O94      1.0000 0.95841  0.34849  0.49823  Biso   1.000  O
  O95      1.0000 0.88243  0.36092  0.45973  Biso   1.000  O
  O96      1.0000 0.86092  0.32988  0.61433  Biso   1.000  O
  Cu9      1.0000 0.48798  0.51204  0.08572  Biso   1.000  Cu
  O97      1.0000 0.50808  0.55244  0.98267  Biso   1.000  O
  C113     1.0000 0.52403  0.55471  0.88567  Biso   1.000  C
  C114     1.0000 0.53956  0.58807  0.81977  Biso   1.000  C
  C115     1.0000 0.58543  0.68328  0.63507  Biso   1.000  C
  C116     1.0000 0.57129  0.62303  0.65337  Biso   1.000  C
  C117     1.0000 0.56847  0.64999  0.69817  Biso   1.000  C
  C118     1.0000 0.55676  0.59209  0.71217  Biso   1.000  C
  H33      1.0000 0.55863  0.57427  0.67937  Biso   1.000  H
  C119     1.0000 0.53548  0.61396  0.86607  Biso   1.000  C
  H34      1.0000 0.52263  0.61077  0.93617  Biso   1.000  H
  C120     1.0000 0.55100  0.64489  0.80557  Biso   1.000  C
  O98      1.0000 0.57294  0.59942  0.47597  Biso   1.000  O
  O99      1.0000 0.60985  0.65148  0.50187  Biso   1.000  O
  N33      1.0000 0.58623  0.62446  0.53967  Biso   1.000  N
  O100     1.0000 0.52798  0.53180  0.83747  Biso   1.000  O
  C121     1.0000 0.63136  0.74126  0.62177  Biso   1.000  C
  H35      1.0000 0.65083  0.75907  0.65507  Biso   1.000  H
  C122     1.0000 0.61814  0.74510  0.51237  Biso   1.000  C
  C123     1.0000 0.61480  0.71032  0.67967  Biso   1.000  C
  C124     1.0000 0.58836  0.71928  0.46757  Biso   1.000  C
  H36      1.0000 0.57863  0.72247  0.39767  Biso   1.000  H
  C125     1.0000 0.57291  0.68845  0.52717  Biso   1.000  C
  C126     1.0000 0.63599  0.77858  0.44747  Biso   1.000  C
  O101     1.0000 0.62236  0.78086  0.35007  Biso   1.000  O
  O102     1.0000 0.66294  0.80149  0.49567  Biso   1.000  O
  N34      1.0000 0.53987  0.66549  0.48537  Biso   1.000  N
  O103     1.0000 0.52158  0.63897  0.53937  Biso   1.000  O
  O104     1.0000 0.53153  0.67017  0.38417  Biso   1.000  O
  N35      1.0000 0.62842  0.70875  0.79357  Biso   1.000  N
  O105     1.0000 0.64011  0.73408  0.85827  Biso   1.000  O
  N36      1.0000 0.54110  0.66779  0.84957  Biso   1.000  N
  O106     1.0000 0.62507  0.68183  0.83157  Biso   1.000  O
  O107     1.0000 0.54909  0.69426  0.79307  Biso   1.000  O
  O108     1.0000 0.52758  0.66322  0.94767  Biso   1.000  O
  Cu10     1.0000 0.84538  0.69073  0.58095  Biso   1.000  Cu
  O109     1.0000 0.88577  0.71102  0.68400  Biso   1.000  O
  C127     1.0000 0.88804  0.69734  0.78100  Biso   1.000  C
  C128     1.0000 0.92140  0.71517  0.84690  Biso   1.000  C
  C129     1.0000 0.01661  0.76451  0.03160  Biso   1.000  C
  C130     1.0000 0.95636  0.71840  0.01330  Biso   1.000  C
  C131     1.0000 0.98332  0.74818  0.96850  Biso   1.000  C
  C132     1.0000 0.92542  0.70199  0.95450  Biso   1.000  C
  H37      1.0000 0.90760  0.68230  0.98730  Biso   1.000  H
  C133     1.0000 0.94729  0.74514  0.80060  Biso   1.000  C
  H38      1.0000 0.94410  0.75480  0.73050  Biso   1.000  H
  C134     1.0000 0.97822  0.76055  0.86110  Biso   1.000  C
  O110     1.0000 0.93275  0.69314  0.19070  Biso   1.000  O
  O111     1.0000 0.98481  0.70829  0.16480  Biso   1.000  O
  N37      1.0000 0.95779  0.70489  0.12700  Biso   1.000  N
  O112     1.0000 0.86513  0.67048  0.82920  Biso   1.000  O
  C135     1.0000 0.07459  0.77656  0.04490  Biso   1.000  C
  H39      1.0000 0.09240  0.77490  0.01160  Biso   1.000  H
  C136     1.0000 0.07843  0.79362  0.15430  Biso   1.000  C
  C137     1.0000 0.04365  0.76218  0.98700  Biso   1.000  C
  C138     1.0000 0.05261  0.79758  0.19910  Biso   1.000  C
  H40      1.0000 0.05580  0.81050  0.26900  Biso   1.000  H
  C139     1.0000 0.02178  0.78220  0.13950  Biso   1.000  C
  C140     1.0000 0.11191  0.80925  0.21920  Biso   1.000  C
  O113     1.0000 0.11419  0.82516  0.31660  Biso   1.000  O
  O114     1.0000 0.13482  0.80521  0.17100  Biso   1.000  O
  N38      1.0000 0.99882  0.79228  0.18130  Biso   1.000  N
  O115     1.0000 0.97230  0.78405  0.12730  Biso   1.000  O
  O116     1.0000 0.00350  0.80530  0.28250  Biso   1.000  O
  N39      1.0000 0.04208  0.74699  0.87310  Biso   1.000  N
  O117     1.0000 0.06741  0.76063  0.80840  Biso   1.000  O
  N40      1.0000 0.00112  0.79335  0.81710  Biso   1.000  N
  O118     1.0000 0.01516  0.72342  0.83510  Biso   1.000  O
  O119     1.0000 0.02759  0.81183  0.87360  Biso   1.000  O
  O120     1.0000 0.99655  0.80230  0.71900  Biso   1.000  O
  Cu11     1.0000 0.51204  0.02407  0.91428  Biso   1.000  Cu
  O121     1.0000 0.55244  0.04435  0.01733  Biso   1.000  O
  C141     1.0000 0.55471  0.03067  0.11433  Biso   1.000  C
  C142     1.0000 0.58807  0.04850  0.18023  Biso   1.000  C
  C143     1.0000 0.68328  0.09784  0.36493  Biso   1.000  C
  C144     1.0000 0.62303  0.05173  0.34663  Biso   1.000  C
  C145     1.0000 0.64999  0.08151  0.30183  Biso   1.000  C
  C146     1.0000 0.59209  0.03532  0.28783  Biso   1.000  C
  H41      1.0000 0.57427  0.01563  0.32063  Biso   1.000  H
  C147     1.0000 0.61396  0.07847  0.13393  Biso   1.000  C
  H42      1.0000 0.61077  0.08813  0.06383  Biso   1.000  H
  C148     1.0000 0.64489  0.09388  0.19443  Biso   1.000  C
  O122     1.0000 0.59942  0.02647  0.52403  Biso   1.000  O
  O123     1.0000 0.65148  0.04162  0.49813  Biso   1.000  O
  N41      1.0000 0.62446  0.03822  0.46033  Biso   1.000  N
  O124     1.0000 0.53180  0.00381  0.16253  Biso   1.000  O
  C149     1.0000 0.74126  0.10989  0.37823  Biso   1.000  C
  H43      1.0000 0.75907  0.10823  0.34493  Biso   1.000  H
  C150     1.0000 0.74510  0.12695  0.48763  Biso   1.000  C
  C151     1.0000 0.71032  0.09551  0.32033  Biso   1.000  C
  C152     1.0000 0.71928  0.13091  0.53243  Biso   1.000  C
  H44      1.0000 0.72247  0.14383  0.60233  Biso   1.000  H
  C153     1.0000 0.68845  0.11553  0.47283  Biso   1.000  C
  C154     1.0000 0.77858  0.14258  0.55253  Biso   1.000  C
  O125     1.0000 0.78086  0.15849  0.64993  Biso   1.000  O
  O126     1.0000 0.80149  0.13854  0.50433  Biso   1.000  O
  N42      1.0000 0.66549  0.12561  0.51463  Biso   1.000  N
  O127     1.0000 0.63897  0.11738  0.46063  Biso   1.000  O
  O128     1.0000 0.67017  0.13863  0.61583  Biso   1.000  O
  N43      1.0000 0.70875  0.08032  0.20643  Biso   1.000  N
  O129     1.0000 0.73408  0.09396  0.14173  Biso   1.000  O
  N44      1.0000 0.66779  0.12668  0.15043  Biso   1.000  N
  O130     1.0000 0.68183  0.05675  0.16843  Biso   1.000  O
  O131     1.0000 0.69426  0.14516  0.20693  Biso   1.000  O
  O132     1.0000 0.66322  0.13563  0.05233  Biso   1.000  O
  Cu12     1.0000 0.17871  0.35740  0.24762  Biso   1.000  Cu
  O133     1.0000 0.21910  0.37769  0.35067  Biso   1.000  O
  C155     1.0000 0.22137  0.36401  0.44767  Biso   1.000  C
  C156     1.0000 0.25473  0.38184  0.51357  Biso   1.000  C
  C157     1.0000 0.34994  0.43118  0.69827  Biso   1.000  C
  C158     1.0000 0.28969  0.38507  0.67997  Biso   1.000  C
  C159     1.0000 0.31665  0.41485  0.63517  Biso   1.000  C
  C160     1.0000 0.25875  0.36866  0.62117  Biso   1.000  C
  H45      1.0000 0.24093  0.34897  0.65397  Biso   1.000  H
  C161     1.0000 0.28062  0.41181  0.46727  Biso   1.000  C
  H46      1.0000 0.27743  0.42147  0.39717  Biso   1.000  H
  C162     1.0000 0.31155  0.42722  0.52777  Biso   1.000  C
  O134     1.0000 0.26608  0.35981  0.85737  Biso   1.000  O
  O135     1.0000 0.31814  0.37496  0.83147  Biso   1.000  O
  N45      1.0000 0.29112  0.37156  0.79367  Biso   1.000  N
  O136     1.0000 0.19846  0.33715  0.49587  Biso   1.000  O
  C163     1.0000 0.40792  0.44323  0.71157  Biso   1.000  C
  H47      1.0000 0.42573  0.44157  0.67827  Biso   1.000  H
  C164     1.0000 0.41176  0.46029  0.82097  Biso   1.000  C
  C165     1.0000 0.37698  0.42885  0.65367  Biso   1.000  C
  C166     1.0000 0.38594  0.46425  0.86577  Biso   1.000  C
  H48      1.0000 0.38913  0.47717  0.93567  Biso   1.000  H
  C167     1.0000 0.35511  0.44887  0.80617  Biso   1.000  C
  C168     1.0000 0.44524  0.47592  0.88587  Biso   1.000  C
  O137     1.0000 0.44752  0.49183  0.98327  Biso   1.000  O
  O138     1.0000 0.46815  0.47188  0.83767  Biso   1.000  O
  N46      1.0000 0.33215  0.45895  0.84797  Biso   1.000  N
  O139     1.0000 0.30563  0.45072  0.79397  Biso   1.000  O
  O140     1.0000 0.33683  0.47197  0.94917  Biso   1.000  O
  N47      1.0000 0.37541  0.41366  0.53977  Biso   1.000  N
  O141     1.0000 0.40074  0.42730  0.47507  Biso   1.000  O
  N48      1.0000 0.33445  0.46002  0.48377  Biso   1.000  N
  O142     1.0000 0.34849  0.39009  0.50177  Biso   1.000  O
  O143     1.0000 0.36092  0.47850  0.54027  Biso   1.000  O
  O144     1.0000 0.32988  0.46897  0.38567  Biso   1.000  O
  Cu13     1.0000 0.30927  0.15464  0.58095  Biso   1.000  Cu
  O145     1.0000 0.28898  0.17475  0.68400  Biso   1.000  O
  C169     1.0000 0.30266  0.19070  0.78100  Biso   1.000  C
  C170     1.0000 0.28483  0.20623  0.84690  Biso   1.000  C
  C171     1.0000 0.23549  0.25210  0.03160  Biso   1.000  C
  C172     1.0000 0.28160  0.23796  0.01330  Biso   1.000  C
  C173     1.0000 0.25182  0.23514  0.96850  Biso   1.000  C
  C174     1.0000 0.29801  0.22343  0.95450  Biso   1.000  C
  H49      1.0000 0.31770  0.22530  0.98730  Biso   1.000  H
  C175     1.0000 0.25486  0.20215  0.80060  Biso   1.000  C
  H50      1.0000 0.24520  0.18930  0.73050  Biso   1.000  H
  C176     1.0000 0.23945  0.21767  0.86110  Biso   1.000  C
  O146     1.0000 0.30686  0.23961  0.19070  Biso   1.000  O
  O147     1.0000 0.29171  0.27652  0.16480  Biso   1.000  O
  N49      1.0000 0.29511  0.25290  0.12700  Biso   1.000  N
  O148     1.0000 0.32952  0.19465  0.82920  Biso   1.000  O
  C177     1.0000 0.22344  0.29803  0.04490  Biso   1.000  C
  H51      1.0000 0.22510  0.31750  0.01160  Biso   1.000  H
  C178     1.0000 0.20638  0.28481  0.15430  Biso   1.000  C
  C179     1.0000 0.23782  0.28147  0.98700  Biso   1.000  C
  C180     1.0000 0.20242  0.25503  0.19910  Biso   1.000  C
  H52      1.0000 0.18950  0.24530  0.26900  Biso   1.000  H
  C181     1.0000 0.21780  0.23958  0.13950  Biso   1.000  C
  C182     1.0000 0.19075  0.30266  0.21920  Biso   1.000  C
  O149     1.0000 0.17484  0.28903  0.31660  Biso   1.000  O
  O150     1.0000 0.19479  0.32961  0.17100  Biso   1.000  O
  N50      1.0000 0.20772  0.20654  0.18130  Biso   1.000  N
  O151     1.0000 0.21595  0.18825  0.12730  Biso   1.000  O
  O152     1.0000 0.19470  0.19820  0.28250  Biso   1.000  O
  N51      1.0000 0.25301  0.29509  0.87310  Biso   1.000  N
  O153     1.0000 0.23937  0.30678  0.80840  Biso   1.000  O
  N52      1.0000 0.20665  0.20777  0.81710  Biso   1.000  N
  O154     1.0000 0.27658  0.29174  0.83510  Biso   1.000  O
  O155     1.0000 0.18817  0.21576  0.87360  Biso   1.000  O
  O156     1.0000 0.19770  0.19425  0.71900  Biso   1.000  O
  Cu14     1.0000 0.97593  0.48798  0.91428  Biso   1.000  Cu
  O157     1.0000 0.95565  0.50808  0.01733  Biso   1.000  O
  C183     1.0000 0.96933  0.52403  0.11433  Biso   1.000  C
  C184     1.0000 0.95150  0.53956  0.18023  Biso   1.000  C
  C185     1.0000 0.90216  0.58543  0.36493  Biso   1.000  C
  C186     1.0000 0.94827  0.57129  0.34663  Biso   1.000  C
  C187     1.0000 0.91849  0.56847  0.30183  Biso   1.000  C
  C188     1.0000 0.96468  0.55676  0.28783  Biso   1.000  C
  H53      1.0000 0.98437  0.55863  0.32063  Biso   1.000  H
  C189     1.0000 0.92153  0.53548  0.13393  Biso   1.000  C
  H54      1.0000 0.91187  0.52263  0.06383  Biso   1.000  H
  C190     1.0000 0.90612  0.55100  0.19443  Biso   1.000  C
  O158     1.0000 0.97353  0.57294  0.52403  Biso   1.000  O
  O159     1.0000 0.95838  0.60985  0.49813  Biso   1.000  O
  N53      1.0000 0.96178  0.58623  0.46033  Biso   1.000  N
  O160     1.0000 0.99619  0.52798  0.16253  Biso   1.000  O
  C191     1.0000 0.89011  0.63136  0.37823  Biso   1.000  C
  H55      1.0000 0.89177  0.65083  0.34493  Biso   1.000  H
  C192     1.0000 0.87305  0.61814  0.48763  Biso   1.000  C
  C193     1.0000 0.90449  0.61480  0.32033  Biso   1.000  C
  C194     1.0000 0.86909  0.58836  0.53243  Biso   1.000  C
  H56      1.0000 0.85617  0.57863  0.60233  Biso   1.000  H
  C195     1.0000 0.88447  0.57291  0.47283  Biso   1.000  C
  C196     1.0000 0.85742  0.63599  0.55253  Biso   1.000  C
  O161     1.0000 0.84151  0.62236  0.64993  Biso   1.000  O
  O162     1.0000 0.86146  0.66294  0.50433  Biso   1.000  O
  N54      1.0000 0.87439  0.53987  0.51463  Biso   1.000  N
  O163     1.0000 0.88262  0.52158  0.46063  Biso   1.000  O
  O164     1.0000 0.86137  0.53153  0.61583  Biso   1.000  O
  N55      1.0000 0.91968  0.62842  0.20643  Biso   1.000  N
  O165     1.0000 0.90604  0.64011  0.14173  Biso   1.000  O
  N56      1.0000 0.87332  0.54110  0.15043  Biso   1.000  N
  O166     1.0000 0.94325  0.62507  0.16843  Biso   1.000  O
  O167     1.0000 0.85484  0.54909  0.20693  Biso   1.000  O
  O168     1.0000 0.86437  0.52758  0.05233  Biso   1.000  O
  Cu15     1.0000 0.64260  0.82131  0.24762  Biso   1.000  Cu
  O169     1.0000 0.62231  0.84142  0.35067  Biso   1.000  O
  C197     1.0000 0.63599  0.85737  0.44767  Biso   1.000  C
  C198     1.0000 0.61816  0.87290  0.51357  Biso   1.000  C
  C199     1.0000 0.56882  0.91877  0.69827  Biso   1.000  C
  C200     1.0000 0.61493  0.90463  0.67997  Biso   1.000  C
  C201     1.0000 0.58515  0.90181  0.63517  Biso   1.000  C
  C202     1.0000 0.63134  0.89010  0.62117  Biso   1.000  C
  H57      1.0000 0.65103  0.89197  0.65397  Biso   1.000  H
  C203     1.0000 0.58819  0.86882  0.46727  Biso   1.000  C
  H58      1.0000 0.57853  0.85597  0.39717  Biso   1.000  H
  C204     1.0000 0.57278  0.88434  0.52777  Biso   1.000  C
  O170     1.0000 0.64019  0.90628  0.85737  Biso   1.000  O
  O171     1.0000 0.62504  0.94319  0.83147  Biso   1.000  O
  N57      1.0000 0.62844  0.91957  0.79367  Biso   1.000  N
  O172     1.0000 0.66285  0.86132  0.49587  Biso   1.000  O
  C205     1.0000 0.55677  0.96470  0.71157  Biso   1.000  C
  H59      1.0000 0.55843  0.98417  0.67827  Biso   1.000  H
  C206     1.0000 0.53971  0.95148  0.82097  Biso   1.000  C
  C207     1.0000 0.57115  0.94814  0.65367  Biso   1.000  C
  C208     1.0000 0.53575  0.92170  0.86577  Biso   1.000  C
  H60      1.0000 0.52283  0.91197  0.93567  Biso   1.000  H
  C209     1.0000 0.55113  0.90625  0.80617  Biso   1.000  C
  C210     1.0000 0.52408  0.96933  0.88587  Biso   1.000  C
  O173     1.0000 0.50817  0.95570  0.98327  Biso   1.000  O
  O174     1.0000 0.52812  0.99628  0.83767  Biso   1.000  O
  N58      1.0000 0.54105  0.87321  0.84797  Biso   1.000  N
  O175     1.0000 0.54928  0.85492  0.79397  Biso   1.000  O
  O176     1.0000 0.52803  0.86487  0.94917  Biso   1.000  O
  N59      1.0000 0.58634  0.96176  0.53977  Biso   1.000  N
  O177     1.0000 0.57270  0.97345  0.47507  Biso   1.000  O
  N60      1.0000 0.53998  0.87444  0.48377  Biso   1.000  N
  O178     1.0000 0.60991  0.95841  0.50177  Biso   1.000  O
  O179     1.0000 0.52150  0.88243  0.54027  Biso   1.000  O
  O180     1.0000 0.53103  0.86092  0.38567  Biso   1.000  O
  Cu16     1.0000 0.84536  0.15462  0.58095  Biso   1.000  Cu
  O181     1.0000 0.82525  0.11423  0.68400  Biso   1.000  O
  C211     1.0000 0.80930  0.11196  0.78100  Biso   1.000  C
  C212     1.0000 0.79377  0.07860  0.84690  Biso   1.000  C
  C213     1.0000 0.74790  0.98339  0.03160  Biso   1.000  C
  C214     1.0000 0.76204  0.04364  0.01330  Biso   1.000  C
  C215     1.0000 0.76486  0.01668  0.96850  Biso   1.000  C
  C216     1.0000 0.77657  0.07458  0.95450  Biso   1.000  C
  H61      1.0000 0.77470  0.09240  0.98730  Biso   1.000  H
  C217     1.0000 0.79785  0.05271  0.80060  Biso   1.000  C
  H62      1.0000 0.81070  0.05590  0.73050  Biso   1.000  H
  C218     1.0000 0.78233  0.02178  0.86110  Biso   1.000  C
  O182     1.0000 0.76039  0.06725  0.19070  Biso   1.000  O
  O183     1.0000 0.72348  0.01519  0.16480  Biso   1.000  O
  N61      1.0000 0.74710  0.04221  0.12700  Biso   1.000  N
  O184     1.0000 0.80535  0.13487  0.82920  Biso   1.000  O
  C219     1.0000 0.70197  0.92541  0.04490  Biso   1.000  C
  H63      1.0000 0.68250  0.90760  0.01160  Biso   1.000  H
  C220     1.0000 0.71519  0.92157  0.15430  Biso   1.000  C
  C221     1.0000 0.71853  0.95635  0.98700  Biso   1.000  C
  C222     1.0000 0.74497  0.94739  0.19910  Biso   1.000  C
  H64      1.0000 0.75470  0.94420  0.26900  Biso   1.000  H
  C223     1.0000 0.76042  0.97822  0.13950  Biso   1.000  C
  C224     1.0000 0.69734  0.88809  0.21920  Biso   1.000  C
  O185     1.0000 0.71097  0.88581  0.31660  Biso   1.000  O
  O186     1.0000 0.67039  0.86518  0.17100  Biso   1.000  O
  N62      1.0000 0.79346  0.00118  0.18130  Biso   1.000  N
  O187     1.0000 0.81175  0.02770  0.12730  Biso   1.000  O
  O188     1.0000 0.80180  0.99650  0.28250  Biso   1.000  O
  N63      1.0000 0.70491  0.95792  0.87310  Biso   1.000  N
  O189     1.0000 0.69322  0.93259  0.80840  Biso   1.000  O
  N64      1.0000 0.79223  0.99888  0.81710  Biso   1.000  N
  O190     1.0000 0.70826  0.98484  0.83510  Biso   1.000  O
  O191     1.0000 0.78424  0.97241  0.87360  Biso   1.000  O
  O192     1.0000 0.80575  0.00345  0.71900  Biso   1.000  O
  Cu17     1.0000 0.51202  0.48796  0.91428  Biso   1.000  Cu
  O193     1.0000 0.49192  0.44756  0.01733  Biso   1.000  O
  C225     1.0000 0.47597  0.44529  0.11433  Biso   1.000  C
  C226     1.0000 0.46044  0.41193  0.18023  Biso   1.000  C
  C227     1.0000 0.41457  0.31672  0.36493  Biso   1.000  C
  C228     1.0000 0.42871  0.37697  0.34663  Biso   1.000  C
  C229     1.0000 0.43153  0.35001  0.30183  Biso   1.000  C
  C230     1.0000 0.44324  0.40791  0.28783  Biso   1.000  C
  H65      1.0000 0.44137  0.42573  0.32063  Biso   1.000  H
  C231     1.0000 0.46452  0.38604  0.13393  Biso   1.000  C
  H66      1.0000 0.47737  0.38923  0.06383  Biso   1.000  H
  C232     1.0000 0.44900  0.35511  0.19443  Biso   1.000  C
  O194     1.0000 0.42706  0.40058  0.52403  Biso   1.000  O
  O195     1.0000 0.39015  0.34852  0.49813  Biso   1.000  O
  N65      1.0000 0.41377  0.37554  0.46033  Biso   1.000  N
  O196     1.0000 0.47202  0.46820  0.16253  Biso   1.000  O
  C233     1.0000 0.36864  0.25874  0.37823  Biso   1.000  C
  H67      1.0000 0.34917  0.24093  0.34493  Biso   1.000  H
  C234     1.0000 0.38186  0.25490  0.48763  Biso   1.000  C
  C235     1.0000 0.38520  0.28968  0.32033  Biso   1.000  C
  C236     1.0000 0.41164  0.28072  0.53243  Biso   1.000  C
  H68      1.0000 0.42137  0.27753  0.60233  Biso   1.000  H
  C237     1.0000 0.42709  0.31155  0.47283  Biso   1.000  C
  C238     1.0000 0.36401  0.22142  0.55253  Biso   1.000  C
  O197     1.0000 0.37764  0.21914  0.64993  Biso   1.000  O
  O198     1.0000 0.33706  0.19851  0.50433  Biso   1.000  O
  N66      1.0000 0.46013  0.33451  0.51463  Biso   1.000  N
  O199     1.0000 0.47842  0.36103  0.46063  Biso   1.000  O
  O200     1.0000 0.46847  0.32983  0.61583  Biso   1.000  O
  N67      1.0000 0.37158  0.29125  0.20643  Biso   1.000  N
  O201     1.0000 0.35989  0.26592  0.14173  Biso   1.000  O
  N68      1.0000 0.45890  0.33221  0.15043  Biso   1.000  N
  O202     1.0000 0.37493  0.31817  0.16843  Biso   1.000  O
  O203     1.0000 0.45091  0.30574  0.20693  Biso   1.000  O
  O204     1.0000 0.47242  0.33678  0.05233  Biso   1.000  O
  Cu18     1.0000 0.17869  0.82129  0.24762  Biso   1.000  Cu
  O205     1.0000 0.15858  0.78090  0.35067  Biso   1.000  O
  C239     1.0000 0.14263  0.77863  0.44767  Biso   1.000  C
  C240     1.0000 0.12710  0.74527  0.51357  Biso   1.000  C
  C241     1.0000 0.08123  0.65006  0.69827  Biso   1.000  C
  C242     1.0000 0.09537  0.71031  0.67997  Biso   1.000  C
  C243     1.0000 0.09819  0.68335  0.63517  Biso   1.000  C
  C244     1.0000 0.10990  0.74125  0.62117  Biso   1.000  C
  H69      1.0000 0.10803  0.75907  0.65397  Biso   1.000  H
  C245     1.0000 0.13118  0.71938  0.46727  Biso   1.000  C
  H70      1.0000 0.14403  0.72257  0.39717  Biso   1.000  H
  C246     1.0000 0.11566  0.68845  0.52777  Biso   1.000  C
  O206     1.0000 0.09372  0.73392  0.85737  Biso   1.000  O
  O207     1.0000 0.05681  0.68186  0.83147  Biso   1.000  O
  N69      1.0000 0.08043  0.70888  0.79367  Biso   1.000  N
  O208     1.0000 0.13868  0.80154  0.49587  Biso   1.000  O
  C247     1.0000 0.03530  0.59208  0.71157  Biso   1.000  C
  H71      1.0000 0.01583  0.57427  0.67827  Biso   1.000  H
  C248     1.0000 0.04852  0.58824  0.82097  Biso   1.000  C
  C249     1.0000 0.05186  0.62302  0.65367  Biso   1.000  C
  C250     1.0000 0.07830  0.61406  0.86577  Biso   1.000  C
  H72      1.0000 0.08803  0.61087  0.93567  Biso   1.000  H
  C251     1.0000 0.09375  0.64489  0.80617  Biso   1.000  C
  C252     1.0000 0.03067  0.55476  0.88587  Biso   1.000  C
  O209     1.0000 0.04430  0.55248  0.98327  Biso   1.000  O
  O210     1.0000 0.00372  0.53185  0.83767  Biso   1.000  O
  N70      1.0000 0.12679  0.66785  0.84797  Biso   1.000  N
  O211     1.0000 0.14508  0.69437  0.79397  Biso   1.000  O
  O212     1.0000 0.13513  0.66317  0.94917  Biso   1.000  O
  N71      1.0000 0.03824  0.62459  0.53977  Biso   1.000  N
  O213     1.0000 0.02655  0.59926  0.47507  Biso   1.000  O
  N72      1.0000 0.12556  0.66555  0.48377  Biso   1.000  N
  O214     1.0000 0.04159  0.65151  0.50177  Biso   1.000  O
  O215     1.0000 0.11757  0.63908  0.54027  Biso   1.000  O
  O216     1.0000 0.13908  0.67012  0.38567  Biso   1.000  O
