data_image0
_cell_length_a       7.116
_cell_length_b       13.987
_cell_length_c       14.916
_cell_angle_alpha    90
_cell_angle_beta     101.599
_cell_angle_gamma    90

_symmetry_space_group_name_H-M    "P 1"
_symmetry_int_tables_number       1

loop_
  _symmetry_equiv_pos_as_xyz
  'x, y, z'

loop_
  _atom_site_label
  _atom_site_occupancy
  _atom_site_fract_x
  _atom_site_fract_y
  _atom_site_fract_z
  _atom_site_thermal_displace_type
  _atom_site_B_iso_or_equiv
  _atom_site_type_symbol
  Mn1      1.0000 0.23350  0.56536  0.03251  Biso   1.000  Mn
  O1       1.0000 0.79120  0.95547  0.37491  Biso   1.000  O
  O2       1.0000 0.78200  0.53735  0.07534  Biso   1.000  O
  O3       1.0000 0.03150  0.85750  0.43840  Biso   1.000  O
  O4       1.0000 0.51060  0.61846  0.02513  Biso   1.000  O
  C1       1.0000 0.74180  0.78140  0.12910  Biso   1.000  C
  C2       1.0000 0.74010  0.68250  0.14940  Biso   1.000  C
  C3       1.0000 0.84570  0.81580  0.29370  Biso   1.000  C
  C4       1.0000 0.85440  0.71910  0.30990  Biso   1.000  C
  H1       1.0000 0.89640  0.69720  0.36940  Biso   1.000  H
  C5       1.0000 0.67230  0.60760  0.07770  Biso   1.000  C
  C6       1.0000 0.79290  0.84930  0.20140  Biso   1.000  C
  C7       1.0000 0.70110  0.81490  0.03700  Biso   1.000  C
  H2       1.0000 0.66930  0.77140  0.98920  Biso   1.000  H
  C8       1.0000 0.80150  0.65230  0.23880  Biso   1.000  C
  H3       1.0000 0.80790  0.58730  0.25200  Biso   1.000  H
  C9       1.0000 0.79900  0.94800  0.17850  Biso   1.000  C
  H4       1.0000 0.83100  0.99340  0.22460  Biso   1.000  H
  C10      1.0000 0.89320  0.88250  0.37490  Biso   1.000  C
  C11      1.0000 0.70830  0.90980  0.01820  Biso   1.000  C
  H5       1.0000 0.67970  0.93040  0.95770  Biso   1.000  H
  C12      1.0000 0.75770  0.97630  0.08810  Biso   1.000  C
  H6       1.0000 0.76290  0.04090  0.07370  Biso   1.000  H
  Mn2      1.0000 0.76650  0.06536  0.46749  Biso   1.000  Mn
  O5       1.0000 0.20880  0.45547  0.12509  Biso   1.000  O
  O6       1.0000 0.21800  0.03735  0.42466  Biso   1.000  O
  O7       1.0000 0.96850  0.35750  0.06160  Biso   1.000  O
  O8       1.0000 0.48940  0.11846  0.47487  Biso   1.000  O
  C13      1.0000 0.25820  0.28140  0.37090  Biso   1.000  C
  C14      1.0000 0.25990  0.18250  0.35060  Biso   1.000  C
  C15      1.0000 0.15430  0.31580  0.20630  Biso   1.000  C
  C16      1.0000 0.14560  0.21910  0.19010  Biso   1.000  C
  H7       1.0000 0.10360  0.19720  0.13060  Biso   1.000  H
  C17      1.0000 0.32770  0.10760  0.42230  Biso   1.000  C
  C18      1.0000 0.20710  0.34930  0.29860  Biso   1.000  C
  C19      1.0000 0.29890  0.31490  0.46300  Biso   1.000  C
  H8       1.0000 0.33070  0.27140  0.51080  Biso   1.000  H
  C20      1.0000 0.19850  0.15230  0.26120  Biso   1.000  C
  H9       1.0000 0.19210  0.08730  0.24800  Biso   1.000  H
  C21      1.0000 0.20100  0.44800  0.32150  Biso   1.000  C
  H10      1.0000 0.16900  0.49340  0.27540  Biso   1.000  H
  C22      1.0000 0.10680  0.38250  0.12510  Biso   1.000  C
  C23      1.0000 0.29170  0.40980  0.48180  Biso   1.000  C
  H11      1.0000 0.32030  0.43040  0.54230  Biso   1.000  H
  C24      1.0000 0.24230  0.47630  0.41190  Biso   1.000  C
  H12      1.0000 0.23710  0.54090  0.42630  Biso   1.000  H
  Mn3      1.0000 0.76650  0.43464  0.96749  Biso   1.000  Mn
  O9       1.0000 0.20880  0.04453  0.62509  Biso   1.000  O
  O10      1.0000 0.21800  0.46265  0.92466  Biso   1.000  O
  O11      1.0000 0.96850  0.14250  0.56160  Biso   1.000  O
  O12      1.0000 0.48940  0.38154  0.97487  Biso   1.000  O
  C25      1.0000 0.25820  0.21860  0.87090  Biso   1.000  C
  C26      1.0000 0.25990  0.31750  0.85060  Biso   1.000  C
  C27      1.0000 0.15430  0.18420  0.70630  Biso   1.000  C
  C28      1.0000 0.14560  0.28090  0.69010  Biso   1.000  C
  H13      1.0000 0.10360  0.30280  0.63060  Biso   1.000  H
  C29      1.0000 0.32770  0.39240  0.92230  Biso   1.000  C
  C30      1.0000 0.20710  0.15070  0.79860  Biso   1.000  C
  C31      1.0000 0.29890  0.18510  0.96300  Biso   1.000  C
  H14      1.0000 0.33070  0.22860  0.01080  Biso   1.000  H
  C32      1.0000 0.19850  0.34770  0.76120  Biso   1.000  C
  H15      1.0000 0.19210  0.41270  0.74800  Biso   1.000  H
  C33      1.0000 0.20100  0.05200  0.82150  Biso   1.000  C
  H16      1.0000 0.16900  0.00660  0.77540  Biso   1.000  H
  C34      1.0000 0.10680  0.11750  0.62510  Biso   1.000  C
  C35      1.0000 0.29170  0.09020  0.98180  Biso   1.000  C
  H17      1.0000 0.32030  0.06960  0.04230  Biso   1.000  H
  C36      1.0000 0.24230  0.02370  0.91190  Biso   1.000  C
  H18      1.0000 0.23710  0.95910  0.92630  Biso   1.000  H
  Mn4      1.0000 0.23350  0.93464  0.53251  Biso   1.000  Mn
  O13      1.0000 0.79120  0.54453  0.87491  Biso   1.000  O
  O14      1.0000 0.78200  0.96265  0.57534  Biso   1.000  O
  O15      1.0000 0.03150  0.64250  0.93840  Biso   1.000  O
  O16      1.0000 0.51060  0.88154  0.52513  Biso   1.000  O
  C37      1.0000 0.74180  0.71860  0.62910  Biso   1.000  C
  C38      1.0000 0.74010  0.81750  0.64940  Biso   1.000  C
  C39      1.0000 0.84570  0.68420  0.79370  Biso   1.000  C
  C40      1.0000 0.85440  0.78090  0.80990  Biso   1.000  C
  H19      1.0000 0.89640  0.80280  0.86940  Biso   1.000  H
  C41      1.0000 0.67230  0.89240  0.57770  Biso   1.000  C
  C42      1.0000 0.79290  0.65070  0.70140  Biso   1.000  C
  C43      1.0000 0.70110  0.68510  0.53700  Biso   1.000  C
  H20      1.0000 0.66930  0.72860  0.48920  Biso   1.000  H
  C44      1.0000 0.80150  0.84770  0.73880  Biso   1.000  C
  H21      1.0000 0.80790  0.91270  0.75200  Biso   1.000  H
  C45      1.0000 0.79900  0.55200  0.67850  Biso   1.000  C
  H22      1.0000 0.83100  0.50660  0.72460  Biso   1.000  H
  C46      1.0000 0.89320  0.61750  0.87490  Biso   1.000  C
  C47      1.0000 0.70830  0.59020  0.51820  Biso   1.000  C
  H23      1.0000 0.67970  0.56960  0.45770  Biso   1.000  H
  C48      1.0000 0.75770  0.52370  0.58810  Biso   1.000  C
  H24      1.0000 0.76290  0.45910  0.57370  Biso   1.000  H
