data_image0
_cell_length_a       8.9147
_cell_length_b       9.7297
_cell_length_c       9.5179
_cell_angle_alpha    90
_cell_angle_beta     115.745
_cell_angle_gamma    90

_symmetry_space_group_name_H-M    "P 1"
_symmetry_int_tables_number       1

loop_
  _symmetry_equiv_pos_as_xyz
  'x, y, z'

loop_
  _atom_site_label
  _atom_site_occupancy
  _atom_site_fract_x
  _atom_site_fract_y
  _atom_site_fract_z
  _atom_site_thermal_displace_type
  _atom_site_B_iso_or_equiv
  _atom_site_type_symbol
  Zn1      1.0000 0.82463  0.05862  0.06330  Biso   1.000  Zn
  O1       1.0000 0.67450  0.97140  0.17310  Biso   1.000  O
  O2       1.0000 0.40940  0.92270  0.10860  Biso   1.000  O
  N1       1.0000 0.89830  0.21200  0.22330  Biso   1.000  N
  N2       1.0000 0.02740  0.39200  0.36430  Biso   1.000  N
  N3       1.0000 0.90690  0.35310  0.40840  Biso   1.000  N
  C1       1.0000 0.52410  0.96870  0.08160  Biso   1.000  C
  C2       1.0000 0.01770  0.30560  0.25390  Biso   1.000  C
  H1       1.0000 0.08620  0.30950  0.20310  Biso   1.000  H
  C3       1.0000 0.83470  0.24490  0.32370  Biso   1.000  C
  H2       1.0000 0.74920  0.19640  0.33220  Biso   1.000  H
  Zn2      1.0000 0.17537  0.55862  0.43670  Biso   1.000  Zn
  O3       1.0000 0.32550  0.47140  0.32690  Biso   1.000  O
  O4       1.0000 0.59060  0.42270  0.39140  Biso   1.000  O
  N4       1.0000 0.10170  0.71200  0.27670  Biso   1.000  N
  N5       1.0000 0.97260  0.89200  0.13570  Biso   1.000  N
  N6       1.0000 0.09310  0.85310  0.09160  Biso   1.000  N
  C4       1.0000 0.47590  0.46870  0.41840  Biso   1.000  C
  C5       1.0000 0.98230  0.80560  0.24610  Biso   1.000  C
  H3       1.0000 0.91380  0.80950  0.29690  Biso   1.000  H
  C6       1.0000 0.16530  0.74490  0.17630  Biso   1.000  C
  H4       1.0000 0.25080  0.69640  0.16780  Biso   1.000  H
  Zn3      1.0000 0.17537  0.94138  0.93670  Biso   1.000  Zn
  O5       1.0000 0.32550  0.02860  0.82690  Biso   1.000  O
  O6       1.0000 0.59060  0.07730  0.89140  Biso   1.000  O
  N7       1.0000 0.10170  0.78800  0.77670  Biso   1.000  N
  N8       1.0000 0.97260  0.60800  0.63570  Biso   1.000  N
  N9       1.0000 0.09310  0.64690  0.59160  Biso   1.000  N
  C7       1.0000 0.47590  0.03130  0.91840  Biso   1.000  C
  C8       1.0000 0.98230  0.69440  0.74610  Biso   1.000  C
  H5       1.0000 0.91380  0.69050  0.79690  Biso   1.000  H
  C9       1.0000 0.16530  0.75510  0.67630  Biso   1.000  C
  H6       1.0000 0.25080  0.80360  0.66780  Biso   1.000  H
  Zn4      1.0000 0.82463  0.44138  0.56330  Biso   1.000  Zn
  O7       1.0000 0.67450  0.52860  0.67310  Biso   1.000  O
  O8       1.0000 0.40940  0.57730  0.60860  Biso   1.000  O
  N10      1.0000 0.89830  0.28800  0.72330  Biso   1.000  N
  N11      1.0000 0.02740  0.10800  0.86430  Biso   1.000  N
  N12      1.0000 0.90690  0.14690  0.90840  Biso   1.000  N
  C10      1.0000 0.52410  0.53130  0.58160  Biso   1.000  C
  C11      1.0000 0.01770  0.19440  0.75390  Biso   1.000  C
  H7       1.0000 0.08620  0.19050  0.70310  Biso   1.000  H
  C12      1.0000 0.83470  0.25510  0.82370  Biso   1.000  C
  H8       1.0000 0.74920  0.30360  0.83220  Biso   1.000  H
