data_image0
_cell_length_a       16.6052
_cell_length_b       16.0739
_cell_length_c       10.2819
_cell_angle_alpha    90
_cell_angle_beta     94.4
_cell_angle_gamma    90

_symmetry_space_group_name_H-M    "P 1"
_symmetry_int_tables_number       1

loop_
  _symmetry_equiv_pos_as_xyz
  'x, y, z'

loop_
  _atom_site_label
  _atom_site_occupancy
  _atom_site_fract_x
  _atom_site_fract_y
  _atom_site_fract_z
  _atom_site_thermal_displace_type
  _atom_site_B_iso_or_equiv
  _atom_site_type_symbol
  Tb1      1.0000 0.03811  0.62257  0.54304  Biso   1.000  Tb
  O1       1.0000 0.35713  0.32015  0.44561  Biso   1.000  O
  H1       1.0000 0.34800  0.34300  0.40100  Biso   1.000  H
  C1       1.0000 0.30887  0.33277  0.54370  Biso   1.000  C
  C2       1.0000 0.32135  0.28826  0.66130  Biso   1.000  C
  C3       1.0000 0.26866  0.30206  0.75850  Biso   1.000  C
  H2       1.0000 0.27590  0.27110  0.83730  Biso   1.000  H
  C4       1.0000 0.20596  0.35938  0.74440  Biso   1.000  C
  C5       1.0000 0.19688  0.40606  0.62850  Biso   1.000  C
  C6       1.0000 0.24726  0.39183  0.52990  Biso   1.000  C
  H3       1.0000 0.23980  0.42290  0.45130  Biso   1.000  H
  C7       1.0000 0.38902  0.22786  0.68930  Biso   1.000  C
  O2       1.0000 0.42014  0.19291  0.59651  Biso   1.000  O
  O3       1.0000 0.41002  0.21506  0.80829  Biso   1.000  O
  C8       1.0000 0.15015  0.36828  0.85010  Biso   1.000  C
  O4       1.0000 0.15708  0.32078  0.94732  Biso   1.000  O
  O5       1.0000 0.09438  0.42327  0.84079  Biso   1.000  O
  C9       1.0000 0.13658  0.47433  0.60650  Biso   1.000  C
  O6       1.0000 0.06771  0.46091  0.54841  Biso   1.000  O
  O7       1.0000 0.15686  0.54701  0.64085  Biso   1.000  O
  H4       1.0000 0.96700  0.52400  0.72300  Biso   1.000  H
  Tb2      1.0000 0.53810  0.12257  0.54304  Biso   1.000  Tb
  O8       1.0000 0.85713  0.82015  0.44561  Biso   1.000  O
  H5       1.0000 0.84800  0.84300  0.40100  Biso   1.000  H
  C10      1.0000 0.80887  0.83277  0.54370  Biso   1.000  C
  C11      1.0000 0.82135  0.78826  0.66130  Biso   1.000  C
  C12      1.0000 0.76866  0.80206  0.75850  Biso   1.000  C
  H6       1.0000 0.77590  0.77110  0.83730  Biso   1.000  H
  C13      1.0000 0.70596  0.85938  0.74440  Biso   1.000  C
  C14      1.0000 0.69688  0.90606  0.62850  Biso   1.000  C
  C15      1.0000 0.74726  0.89183  0.52990  Biso   1.000  C
  H7       1.0000 0.73980  0.92290  0.45130  Biso   1.000  H
  C16      1.0000 0.88902  0.72786  0.68930  Biso   1.000  C
  O9       1.0000 0.92014  0.69291  0.59651  Biso   1.000  O
  O10      1.0000 0.91002  0.71506  0.80829  Biso   1.000  O
  C17      1.0000 0.65015  0.86828  0.85010  Biso   1.000  C
  O11      1.0000 0.65708  0.82078  0.94732  Biso   1.000  O
  O12      1.0000 0.59438  0.92327  0.84079  Biso   1.000  O
  C18      1.0000 0.63658  0.97433  0.60650  Biso   1.000  C
  O13      1.0000 0.56771  0.96091  0.54841  Biso   1.000  O
  O14      1.0000 0.65686  0.04701  0.64085  Biso   1.000  O
  H8       1.0000 0.46700  0.02400  0.72300  Biso   1.000  H
  Tb3      1.0000 0.96189  0.62257  0.95696  Biso   1.000  Tb
  O15      1.0000 0.64287  0.32015  0.05439  Biso   1.000  O
  H9       1.0000 0.65200  0.34300  0.09900  Biso   1.000  H
  C19      1.0000 0.69113  0.33277  0.95630  Biso   1.000  C
  C20      1.0000 0.67865  0.28826  0.83870  Biso   1.000  C
  C21      1.0000 0.73134  0.30206  0.74150  Biso   1.000  C
  H10      1.0000 0.72410  0.27110  0.66270  Biso   1.000  H
  C22      1.0000 0.79404  0.35938  0.75560  Biso   1.000  C
  C23      1.0000 0.80312  0.40606  0.87150  Biso   1.000  C
  C24      1.0000 0.75274  0.39183  0.97010  Biso   1.000  C
  H11      1.0000 0.76020  0.42290  0.04870  Biso   1.000  H
  C25      1.0000 0.61098  0.22786  0.81070  Biso   1.000  C
  O16      1.0000 0.57986  0.19291  0.90349  Biso   1.000  O
  O17      1.0000 0.58998  0.21506  0.69171  Biso   1.000  O
  C26      1.0000 0.84985  0.36828  0.64990  Biso   1.000  C
  O18      1.0000 0.84292  0.32078  0.55268  Biso   1.000  O
  O19      1.0000 0.90562  0.42327  0.65921  Biso   1.000  O
  C27      1.0000 0.86342  0.47433  0.89350  Biso   1.000  C
  O20      1.0000 0.93229  0.46091  0.95159  Biso   1.000  O
  O21      1.0000 0.84314  0.54701  0.85915  Biso   1.000  O
  H12      1.0000 0.03300  0.52400  0.77700  Biso   1.000  H
  Tb4      1.0000 0.46189  0.12257  0.95696  Biso   1.000  Tb
  O22      1.0000 0.14287  0.82015  0.05439  Biso   1.000  O
  H13      1.0000 0.15200  0.84300  0.09900  Biso   1.000  H
  C28      1.0000 0.19113  0.83277  0.95630  Biso   1.000  C
  C29      1.0000 0.17865  0.78826  0.83870  Biso   1.000  C
  C30      1.0000 0.23134  0.80206  0.74150  Biso   1.000  C
  H14      1.0000 0.22410  0.77110  0.66270  Biso   1.000  H
  C31      1.0000 0.29404  0.85938  0.75560  Biso   1.000  C
  C32      1.0000 0.30312  0.90606  0.87150  Biso   1.000  C
  C33      1.0000 0.25274  0.89183  0.97010  Biso   1.000  C
  H15      1.0000 0.26020  0.92290  0.04870  Biso   1.000  H
  C34      1.0000 0.11098  0.72786  0.81070  Biso   1.000  C
  O23      1.0000 0.07986  0.69291  0.90349  Biso   1.000  O
  O24      1.0000 0.08998  0.71506  0.69171  Biso   1.000  O
  C35      1.0000 0.34985  0.86828  0.64990  Biso   1.000  C
  O25      1.0000 0.34292  0.82078  0.55268  Biso   1.000  O
  O26      1.0000 0.40562  0.92327  0.65921  Biso   1.000  O
  C36      1.0000 0.36342  0.97433  0.89350  Biso   1.000  C
  O27      1.0000 0.43229  0.96091  0.95159  Biso   1.000  O
  O28      1.0000 0.34314  0.04701  0.85915  Biso   1.000  O
  H16      1.0000 0.53300  0.02400  0.77700  Biso   1.000  H
  Tb5      1.0000 0.96189  0.37743  0.45696  Biso   1.000  Tb
  O29      1.0000 0.64287  0.67985  0.55439  Biso   1.000  O
  H17      1.0000 0.65200  0.65700  0.59900  Biso   1.000  H
  C37      1.0000 0.69113  0.66723  0.45630  Biso   1.000  C
  C38      1.0000 0.67865  0.71174  0.33870  Biso   1.000  C
  C39      1.0000 0.73134  0.69794  0.24150  Biso   1.000  C
  H18      1.0000 0.72410  0.72890  0.16270  Biso   1.000  H
  C40      1.0000 0.79404  0.64062  0.25560  Biso   1.000  C
  C41      1.0000 0.80312  0.59394  0.37150  Biso   1.000  C
  C42      1.0000 0.75274  0.60817  0.47010  Biso   1.000  C
  H19      1.0000 0.76020  0.57710  0.54870  Biso   1.000  H
  C43      1.0000 0.61098  0.77214  0.31070  Biso   1.000  C
  O30      1.0000 0.57986  0.80709  0.40349  Biso   1.000  O
  O31      1.0000 0.58998  0.78494  0.19171  Biso   1.000  O
  C44      1.0000 0.84985  0.63172  0.14990  Biso   1.000  C
  O32      1.0000 0.84292  0.67922  0.05268  Biso   1.000  O
  O33      1.0000 0.90562  0.57673  0.15921  Biso   1.000  O
  C45      1.0000 0.86342  0.52567  0.39350  Biso   1.000  C
  O34      1.0000 0.93229  0.53909  0.45159  Biso   1.000  O
  O35      1.0000 0.84314  0.45299  0.35915  Biso   1.000  O
  H20      1.0000 0.03300  0.47600  0.27700  Biso   1.000  H
  Tb6      1.0000 0.46189  0.87743  0.45696  Biso   1.000  Tb
  O36      1.0000 0.14287  0.17985  0.55439  Biso   1.000  O
  H21      1.0000 0.15200  0.15700  0.59900  Biso   1.000  H
  C46      1.0000 0.19113  0.16723  0.45630  Biso   1.000  C
  C47      1.0000 0.17865  0.21174  0.33870  Biso   1.000  C
  C48      1.0000 0.23134  0.19794  0.24150  Biso   1.000  C
  H22      1.0000 0.22410  0.22890  0.16270  Biso   1.000  H
  C49      1.0000 0.29404  0.14062  0.25560  Biso   1.000  C
  C50      1.0000 0.30312  0.09394  0.37150  Biso   1.000  C
  C51      1.0000 0.25274  0.10817  0.47010  Biso   1.000  C
  H23      1.0000 0.26020  0.07710  0.54870  Biso   1.000  H
  C52      1.0000 0.11098  0.27214  0.31070  Biso   1.000  C
  O37      1.0000 0.07986  0.30709  0.40349  Biso   1.000  O
  O38      1.0000 0.08998  0.28494  0.19171  Biso   1.000  O
  C53      1.0000 0.34985  0.13172  0.14990  Biso   1.000  C
  O39      1.0000 0.34292  0.17922  0.05268  Biso   1.000  O
  O40      1.0000 0.40562  0.07673  0.15921  Biso   1.000  O
  C54      1.0000 0.36342  0.02567  0.39350  Biso   1.000  C
  O41      1.0000 0.43229  0.03909  0.45159  Biso   1.000  O
  O42      1.0000 0.34314  0.95299  0.35915  Biso   1.000  O
  H24      1.0000 0.53300  0.97600  0.27700  Biso   1.000  H
  Tb7      1.0000 0.03811  0.37743  0.04304  Biso   1.000  Tb
  O43      1.0000 0.35713  0.67985  0.94561  Biso   1.000  O
  H25      1.0000 0.34800  0.65700  0.90100  Biso   1.000  H
  C55      1.0000 0.30887  0.66723  0.04370  Biso   1.000  C
  C56      1.0000 0.32135  0.71174  0.16130  Biso   1.000  C
  C57      1.0000 0.26866  0.69794  0.25850  Biso   1.000  C
  H26      1.0000 0.27590  0.72890  0.33730  Biso   1.000  H
  C58      1.0000 0.20596  0.64062  0.24440  Biso   1.000  C
  C59      1.0000 0.19688  0.59394  0.12850  Biso   1.000  C
  C60      1.0000 0.24726  0.60817  0.02990  Biso   1.000  C
  H27      1.0000 0.23980  0.57710  0.95130  Biso   1.000  H
  C61      1.0000 0.38902  0.77214  0.18930  Biso   1.000  C
  O44      1.0000 0.42014  0.80709  0.09651  Biso   1.000  O
  O45      1.0000 0.41002  0.78494  0.30829  Biso   1.000  O
  C62      1.0000 0.15015  0.63172  0.35010  Biso   1.000  C
  O46      1.0000 0.15708  0.67922  0.44732  Biso   1.000  O
  O47      1.0000 0.09438  0.57673  0.34079  Biso   1.000  O
  C63      1.0000 0.13658  0.52567  0.10650  Biso   1.000  C
  O48      1.0000 0.06771  0.53909  0.04841  Biso   1.000  O
  O49      1.0000 0.15686  0.45299  0.14085  Biso   1.000  O
  H28      1.0000 0.96700  0.47600  0.22300  Biso   1.000  H
  Tb8      1.0000 0.53810  0.87743  0.04304  Biso   1.000  Tb
  O50      1.0000 0.85713  0.17985  0.94561  Biso   1.000  O
  H29      1.0000 0.84800  0.15700  0.90100  Biso   1.000  H
  C64      1.0000 0.80887  0.16723  0.04370  Biso   1.000  C
  C65      1.0000 0.82135  0.21174  0.16130  Biso   1.000  C
  C66      1.0000 0.76866  0.19794  0.25850  Biso   1.000  C
  H30      1.0000 0.77590  0.22890  0.33730  Biso   1.000  H
  C67      1.0000 0.70596  0.14062  0.24440  Biso   1.000  C
  C68      1.0000 0.69688  0.09394  0.12850  Biso   1.000  C
  C69      1.0000 0.74726  0.10817  0.02990  Biso   1.000  C
  H31      1.0000 0.73980  0.07710  0.95130  Biso   1.000  H
  C70      1.0000 0.88902  0.27214  0.18930  Biso   1.000  C
  O51      1.0000 0.92014  0.30709  0.09651  Biso   1.000  O
  O52      1.0000 0.91002  0.28494  0.30829  Biso   1.000  O
  C71      1.0000 0.65015  0.13172  0.35010  Biso   1.000  C
  O53      1.0000 0.65708  0.17922  0.44732  Biso   1.000  O
  O54      1.0000 0.59438  0.07673  0.34079  Biso   1.000  O
  C72      1.0000 0.63658  0.02567  0.10650  Biso   1.000  C
  O55      1.0000 0.56771  0.03909  0.04841  Biso   1.000  O
  O56      1.0000 0.65686  0.95299  0.14085  Biso   1.000  O
  H32      1.0000 0.46700  0.97600  0.22300  Biso   1.000  H
  O57      1.0000 0.00000  0.55200  0.75000  Biso   1.000  O
  O58      1.0000 0.50000  0.05200  0.75000  Biso   1.000  O
  O59      1.0000 0.00000  0.44800  0.25000  Biso   1.000  O
  O60      1.0000 0.50000  0.94800  0.25000  Biso   1.000  O
