data_image0
_cell_length_a       14.7776
_cell_length_b       12.4094
_cell_length_c       29.9554
_cell_angle_alpha    90
_cell_angle_beta     115.572
_cell_angle_gamma    90

_symmetry_space_group_name_H-M    "P 1"
_symmetry_int_tables_number       1

loop_
  _symmetry_equiv_pos_as_xyz
  'x, y, z'

loop_
  _atom_site_label
  _atom_site_occupancy
  _atom_site_fract_x
  _atom_site_fract_y
  _atom_site_fract_z
  _atom_site_thermal_displace_type
  _atom_site_B_iso_or_equiv
  _atom_site_type_symbol
  Zn1      1.0000 0.74719  0.00315  0.76000  Biso   1.000  Zn
  Zn2      1.0000 0.37716  0.68318  0.82478  Biso   1.000  Zn
  O1       1.0000 0.83860  0.86010  0.73245  Biso   1.000  O
  O2       1.0000 0.83671  0.89330  0.80465  Biso   1.000  O
  O3       1.0000 0.38260  0.80210  0.25697  Biso   1.000  O
  O4       1.0000 0.09350  0.60250  0.72688  Biso   1.000  O
  O5       1.0000 0.61180  0.56160  0.22593  Biso   1.000  O
  O6       1.0000 0.54570  0.46060  0.15705  Biso   1.000  O
  O7       1.0000 0.23938  0.59420  0.79309  Biso   1.000  O
  O8       1.0000 0.27264  0.89620  0.19324  Biso   1.000  O
  C1       1.0000 0.87370  0.84870  0.77793  Biso   1.000  C
  C2       1.0000 0.96680  0.78220  0.80446  Biso   1.000  C
  C3       1.0000 0.01180  0.77660  0.85498  Biso   1.000  C
  H1       1.0000 0.98190  0.81030  0.87290  Biso   1.000  H
  C4       1.0000 0.33610  0.82290  0.21169  Biso   1.000  C
  C5       1.0000 0.35710  0.75290  0.17642  Biso   1.000  C
  C6       1.0000 0.43790  0.68120  0.19481  Biso   1.000  C
  H2       1.0000 0.47880  0.67870  0.22860  Biso   1.000  H
  C7       1.0000 0.29810  0.75830  0.12571  Biso   1.000  C
  H3       1.0000 0.24470  0.80650  0.11360  Biso   1.000  H
  C8       1.0000 0.31640  0.69430  0.09274  Biso   1.000  C
  C9       1.0000 0.25620  0.70350  0.03847  Biso   1.000  C
  C10      1.0000 0.26500  0.79670  0.01399  Biso   1.000  C
  C11      1.0000 0.19290  0.61970  0.01175  Biso   1.000  C
  C12      1.0000 0.54490  0.53840  0.18370  Biso   1.000  C
  C13      1.0000 0.45770  0.61430  0.16335  Biso   1.000  C
  C14      1.0000 0.39680  0.61930  0.11237  Biso   1.000  C
  H4       1.0000 0.40910  0.57320  0.09110  Biso   1.000  H
  C15      1.0000 0.14400  0.62140  0.77086  Biso   1.000  C
  C16      1.0000 0.10020  0.67640  0.80140  Biso   1.000  C
  C17      1.0000 0.01090  0.73130  0.77716  Biso   1.000  C
  H5       1.0000 0.98020  0.73440  0.74280  Biso   1.000  H
  C18      1.0000 0.14680  0.67320  0.85263  Biso   1.000  C
  H6       1.0000 0.20840  0.63890  0.86880  Biso   1.000  H
  C19      1.0000 0.10170  0.72130  0.88000  Biso   1.000  C
  C20      1.0000 0.15260  0.71710  0.93579  Biso   1.000  C
  C21      1.0000 0.14100  0.62610  0.96025  Biso   1.000  C
  C22      1.0000 0.21330  0.80350  0.96255  Biso   1.000  C
  C23      1.0000 0.22130  0.90330  0.93583  Biso   1.000  C
  H7       1.0000 0.22460  0.96570  0.95540  Biso   1.000  H
  H8       1.0000 0.16350  0.90850  0.90450  Biso   1.000  H
  H9       1.0000 0.28080  0.89940  0.93050  Biso   1.000  H
  C24      1.0000 0.06970  0.53770  0.93015  Biso   1.000  C
  H10      1.0000 0.00550  0.54810  0.93030  Biso   1.000  H
  H11      1.0000 0.09620  0.46880  0.94440  Biso   1.000  H
  H12      1.0000 0.06230  0.54020  0.89670  Biso   1.000  H
  C25      1.0000 0.32870  0.89100  0.04281  Biso   1.000  C
  H13      1.0000 0.33060  0.94460  0.02010  Biso   1.000  H
  H14      1.0000 0.39560  0.86650  0.06320  Biso   1.000  H
  H15      1.0000 0.30020  0.92160  0.06330  Biso   1.000  H
  C26      1.0000 0.17720  0.52240  0.03892  Biso   1.000  C
  H16      1.0000 0.19960  0.53960  0.07330  Biso   1.000  H
  H17      1.0000 0.21490  0.46220  0.03570  Biso   1.000  H
  H18      1.0000 0.10720  0.50410  0.02480  Biso   1.000  H
  Zn3      1.0000 0.25281  0.50315  0.74000  Biso   1.000  Zn
  Zn4      1.0000 0.62284  0.18318  0.67522  Biso   1.000  Zn
  O9       1.0000 0.16140  0.36010  0.76755  Biso   1.000  O
  O10      1.0000 0.16329  0.39330  0.69535  Biso   1.000  O
  O11      1.0000 0.61740  0.30210  0.24303  Biso   1.000  O
  O12      1.0000 0.90650  0.10250  0.77312  Biso   1.000  O
  O13      1.0000 0.38820  0.06160  0.27407  Biso   1.000  O
  O14      1.0000 0.45430  0.96060  0.34295  Biso   1.000  O
  O15      1.0000 0.76062  0.09420  0.70691  Biso   1.000  O
  O16      1.0000 0.72736  0.39620  0.30676  Biso   1.000  O
  C27      1.0000 0.12630  0.34870  0.72207  Biso   1.000  C
  C28      1.0000 0.03320  0.28220  0.69554  Biso   1.000  C
  C29      1.0000 0.98820  0.27660  0.64502  Biso   1.000  C
  H19      1.0000 0.01810  0.31030  0.62710  Biso   1.000  H
  C30      1.0000 0.66390  0.32290  0.28831  Biso   1.000  C
  C31      1.0000 0.64290  0.25290  0.32358  Biso   1.000  C
  C32      1.0000 0.56210  0.18120  0.30519  Biso   1.000  C
  H20      1.0000 0.52120  0.17870  0.27140  Biso   1.000  H
  C33      1.0000 0.70190  0.25830  0.37429  Biso   1.000  C
  H21      1.0000 0.75530  0.30650  0.38640  Biso   1.000  H
  C34      1.0000 0.68360  0.19430  0.40726  Biso   1.000  C
  C35      1.0000 0.74380  0.20350  0.46153  Biso   1.000  C
  C36      1.0000 0.73500  0.29670  0.48601  Biso   1.000  C
  C37      1.0000 0.80710  0.11970  0.48825  Biso   1.000  C
  C38      1.0000 0.45510  0.03840  0.31630  Biso   1.000  C
  C39      1.0000 0.54230  0.11430  0.33665  Biso   1.000  C
  C40      1.0000 0.60320  0.11930  0.38763  Biso   1.000  C
  H22      1.0000 0.59090  0.07320  0.40890  Biso   1.000  H
  C41      1.0000 0.85600  0.12140  0.72914  Biso   1.000  C
  C42      1.0000 0.89980  0.17640  0.69860  Biso   1.000  C
  C43      1.0000 0.98910  0.23130  0.72284  Biso   1.000  C
  H23      1.0000 0.01980  0.23440  0.75720  Biso   1.000  H
  C44      1.0000 0.85320  0.17320  0.64737  Biso   1.000  C
  H24      1.0000 0.79160  0.13890  0.63120  Biso   1.000  H
  C45      1.0000 0.89830  0.22130  0.62000  Biso   1.000  C
  C46      1.0000 0.84740  0.21710  0.56421  Biso   1.000  C
  C47      1.0000 0.85900  0.12610  0.53975  Biso   1.000  C
  C48      1.0000 0.78670  0.30350  0.53745  Biso   1.000  C
  C49      1.0000 0.77870  0.40330  0.56417  Biso   1.000  C
  H25      1.0000 0.77540  0.46570  0.54460  Biso   1.000  H
  H26      1.0000 0.83650  0.40850  0.59550  Biso   1.000  H
  H27      1.0000 0.71920  0.39940  0.56950  Biso   1.000  H
  C50      1.0000 0.93030  0.03770  0.56985  Biso   1.000  C
  H28      1.0000 0.99450  0.04810  0.56970  Biso   1.000  H
  H29      1.0000 0.90380  0.96880  0.55560  Biso   1.000  H
  H30      1.0000 0.93770  0.04020  0.60330  Biso   1.000  H
  C51      1.0000 0.67130  0.39100  0.45719  Biso   1.000  C
  H31      1.0000 0.66940  0.44460  0.47990  Biso   1.000  H
  H32      1.0000 0.60440  0.36650  0.43680  Biso   1.000  H
  H33      1.0000 0.69980  0.42160  0.43670  Biso   1.000  H
  C52      1.0000 0.82280  0.02240  0.46108  Biso   1.000  C
  H34      1.0000 0.80040  0.03960  0.42670  Biso   1.000  H
  H35      1.0000 0.78510  0.96220  0.46430  Biso   1.000  H
  H36      1.0000 0.89280  0.00410  0.47520  Biso   1.000  H
  Zn5      1.0000 0.25281  0.99685  0.24000  Biso   1.000  Zn
  Zn6      1.0000 0.62284  0.31682  0.17522  Biso   1.000  Zn
  O17      1.0000 0.16140  0.13990  0.26755  Biso   1.000  O
  O18      1.0000 0.16329  0.10670  0.19535  Biso   1.000  O
  O19      1.0000 0.61740  0.19790  0.74303  Biso   1.000  O
  O20      1.0000 0.90650  0.39750  0.27312  Biso   1.000  O
  O21      1.0000 0.38820  0.43840  0.77407  Biso   1.000  O
  O22      1.0000 0.45430  0.53940  0.84295  Biso   1.000  O
  O23      1.0000 0.76062  0.40580  0.20691  Biso   1.000  O
  O24      1.0000 0.72736  0.10380  0.80676  Biso   1.000  O
  C53      1.0000 0.12630  0.15130  0.22207  Biso   1.000  C
  C54      1.0000 0.03320  0.21780  0.19554  Biso   1.000  C
  C55      1.0000 0.98820  0.22340  0.14502  Biso   1.000  C
  H37      1.0000 0.01810  0.18970  0.12710  Biso   1.000  H
  C56      1.0000 0.66390  0.17710  0.78831  Biso   1.000  C
  C57      1.0000 0.64290  0.24710  0.82358  Biso   1.000  C
  C58      1.0000 0.56210  0.31880  0.80519  Biso   1.000  C
  H38      1.0000 0.52120  0.32130  0.77140  Biso   1.000  H
  C59      1.0000 0.70190  0.24170  0.87429  Biso   1.000  C
  H39      1.0000 0.75530  0.19350  0.88640  Biso   1.000  H
  C60      1.0000 0.68360  0.30570  0.90726  Biso   1.000  C
  C61      1.0000 0.74380  0.29650  0.96153  Biso   1.000  C
  C62      1.0000 0.73500  0.20330  0.98601  Biso   1.000  C
  C63      1.0000 0.80710  0.38030  0.98825  Biso   1.000  C
  C64      1.0000 0.45510  0.46160  0.81630  Biso   1.000  C
  C65      1.0000 0.54230  0.38570  0.83665  Biso   1.000  C
  C66      1.0000 0.60320  0.38070  0.88763  Biso   1.000  C
  H40      1.0000 0.59090  0.42680  0.90890  Biso   1.000  H
  C67      1.0000 0.85600  0.37860  0.22914  Biso   1.000  C
  C68      1.0000 0.89980  0.32360  0.19860  Biso   1.000  C
  C69      1.0000 0.98910  0.26870  0.22284  Biso   1.000  C
  H41      1.0000 0.01980  0.26560  0.25720  Biso   1.000  H
  C70      1.0000 0.85320  0.32680  0.14737  Biso   1.000  C
  H42      1.0000 0.79160  0.36110  0.13120  Biso   1.000  H
  C71      1.0000 0.89830  0.27870  0.12000  Biso   1.000  C
  C72      1.0000 0.84740  0.28290  0.06421  Biso   1.000  C
  C73      1.0000 0.85900  0.37390  0.03975  Biso   1.000  C
  C74      1.0000 0.78670  0.19650  0.03745  Biso   1.000  C
  C75      1.0000 0.77870  0.09670  0.06417  Biso   1.000  C
  H43      1.0000 0.77540  0.03430  0.04460  Biso   1.000  H
  H44      1.0000 0.83650  0.09150  0.09550  Biso   1.000  H
  H45      1.0000 0.71920  0.10060  0.06950  Biso   1.000  H
  C76      1.0000 0.93030  0.46230  0.06985  Biso   1.000  C
  H46      1.0000 0.99450  0.45190  0.06970  Biso   1.000  H
  H47      1.0000 0.90380  0.53120  0.05560  Biso   1.000  H
  H48      1.0000 0.93770  0.45980  0.10330  Biso   1.000  H
  C77      1.0000 0.67130  0.10900  0.95719  Biso   1.000  C
  H49      1.0000 0.66940  0.05540  0.97990  Biso   1.000  H
  H50      1.0000 0.60440  0.13350  0.93680  Biso   1.000  H
  H51      1.0000 0.69980  0.07840  0.93670  Biso   1.000  H
  C78      1.0000 0.82280  0.47760  0.96108  Biso   1.000  C
  H52      1.0000 0.80040  0.46040  0.92670  Biso   1.000  H
  H53      1.0000 0.78510  0.53780  0.96430  Biso   1.000  H
  H54      1.0000 0.89280  0.49590  0.97520  Biso   1.000  H
  Zn7      1.0000 0.74719  0.49685  0.26000  Biso   1.000  Zn
  Zn8      1.0000 0.37716  0.81682  0.32478  Biso   1.000  Zn
  O25      1.0000 0.83860  0.63990  0.23245  Biso   1.000  O
  O26      1.0000 0.83671  0.60670  0.30465  Biso   1.000  O
  O27      1.0000 0.38260  0.69790  0.75697  Biso   1.000  O
  O28      1.0000 0.09350  0.89750  0.22688  Biso   1.000  O
  O29      1.0000 0.61180  0.93840  0.72593  Biso   1.000  O
  O30      1.0000 0.54570  0.03940  0.65705  Biso   1.000  O
  O31      1.0000 0.23938  0.90580  0.29309  Biso   1.000  O
  O32      1.0000 0.27264  0.60380  0.69324  Biso   1.000  O
  C79      1.0000 0.87370  0.65130  0.27793  Biso   1.000  C
  C80      1.0000 0.96680  0.71780  0.30446  Biso   1.000  C
  C81      1.0000 0.01180  0.72340  0.35498  Biso   1.000  C
  H55      1.0000 0.98190  0.68970  0.37290  Biso   1.000  H
  C82      1.0000 0.33610  0.67710  0.71169  Biso   1.000  C
  C83      1.0000 0.35710  0.74710  0.67642  Biso   1.000  C
  C84      1.0000 0.43790  0.81880  0.69481  Biso   1.000  C
  H56      1.0000 0.47880  0.82130  0.72860  Biso   1.000  H
  C85      1.0000 0.29810  0.74170  0.62571  Biso   1.000  C
  H57      1.0000 0.24470  0.69350  0.61360  Biso   1.000  H
  C86      1.0000 0.31640  0.80570  0.59274  Biso   1.000  C
  C87      1.0000 0.25620  0.79650  0.53847  Biso   1.000  C
  C88      1.0000 0.26500  0.70330  0.51399  Biso   1.000  C
  C89      1.0000 0.19290  0.88030  0.51175  Biso   1.000  C
  C90      1.0000 0.54490  0.96160  0.68370  Biso   1.000  C
  C91      1.0000 0.45770  0.88570  0.66335  Biso   1.000  C
  C92      1.0000 0.39680  0.88070  0.61237  Biso   1.000  C
  H58      1.0000 0.40910  0.92680  0.59110  Biso   1.000  H
  C93      1.0000 0.14400  0.87860  0.27086  Biso   1.000  C
  C94      1.0000 0.10020  0.82360  0.30140  Biso   1.000  C
  C95      1.0000 0.01090  0.76870  0.27716  Biso   1.000  C
  H59      1.0000 0.98020  0.76560  0.24280  Biso   1.000  H
  C96      1.0000 0.14680  0.82680  0.35263  Biso   1.000  C
  H60      1.0000 0.20840  0.86110  0.36880  Biso   1.000  H
  C97      1.0000 0.10170  0.77870  0.38000  Biso   1.000  C
  C98      1.0000 0.15260  0.78290  0.43579  Biso   1.000  C
  C99      1.0000 0.14100  0.87390  0.46025  Biso   1.000  C
  C100     1.0000 0.21330  0.69650  0.46255  Biso   1.000  C
  C101     1.0000 0.22130  0.59670  0.43583  Biso   1.000  C
  H61      1.0000 0.22460  0.53430  0.45540  Biso   1.000  H
  H62      1.0000 0.16350  0.59150  0.40450  Biso   1.000  H
  H63      1.0000 0.28080  0.60060  0.43050  Biso   1.000  H
  C102     1.0000 0.06970  0.96230  0.43015  Biso   1.000  C
  H64      1.0000 0.00550  0.95190  0.43030  Biso   1.000  H
  H65      1.0000 0.09620  0.03120  0.44440  Biso   1.000  H
  H66      1.0000 0.06230  0.95980  0.39670  Biso   1.000  H
  C103     1.0000 0.32870  0.60900  0.54281  Biso   1.000  C
  H67      1.0000 0.33060  0.55540  0.52010  Biso   1.000  H
  H68      1.0000 0.39560  0.63350  0.56320  Biso   1.000  H
  H69      1.0000 0.30020  0.57840  0.56330  Biso   1.000  H
  C104     1.0000 0.17720  0.97760  0.53892  Biso   1.000  C
  H70      1.0000 0.19960  0.96040  0.57330  Biso   1.000  H
  H71      1.0000 0.21490  0.03780  0.53570  Biso   1.000  H
  H72      1.0000 0.10720  0.99590  0.52480  Biso   1.000  H
