data_jz4002345_si_006_clean
_audit_creation_date              2015-08-19
_audit_creation_method            'Materials Studio'
_symmetry_space_group_name_H-M    'P1'
_symmetry_Int_Tables_number       1
_symmetry_cell_setting            triclinic
loop_
_symmetry_equiv_pos_as_xyz
  x,y,z
_cell_length_a                    14.8775
_cell_length_b                    14.8775
_cell_length_c                    14.8775
_cell_angle_alpha                 60.0000
_cell_angle_beta                  60.0000
_cell_angle_gamma                 60.0000
loop_
_atom_site_label
_atom_site_type_symbol
_atom_site_fract_x
_atom_site_fract_y
_atom_site_fract_z
_atom_site_U_iso_or_equiv
_atom_site_adp_type
_atom_site_occupancy
Hf1    Hf    0.12089   0.87911   0.12089   0.01267  Uiso   1.00
Hf2    Hf    0.12089   0.87911   0.87911   0.01267  Uiso   1.00
Hf3    Hf    0.87911   0.87911   0.12089   0.01267  Uiso   1.00
Hf4    Hf    0.87911   0.12089   0.12089   0.01267  Uiso   1.00
Hf5    Hf    0.87911   0.12089   0.87911   0.01267  Uiso   1.00
Hf6    Hf    0.12089   0.12089   0.87911   0.01267  Uiso   1.00
H1     H     0.86270   0.57744   0.15148   0.01267  Uiso   1.00
H2     H     0.40838   0.57744   0.86270   0.01267  Uiso   1.00
H3     H     0.57744   0.40838   0.15148   0.01267  Uiso   1.00
H4     H     0.15148   0.57744   0.86270   0.01267  Uiso   1.00
H5     H     0.15148   0.40838   0.57744   0.01267  Uiso   1.00
H6     H     0.40838   0.86270   0.15148   0.01267  Uiso   1.00
H7     H     0.86270   0.15148   0.40838   0.01267  Uiso   1.00
H8     H     0.57744   0.40838   0.86270   0.01267  Uiso   1.00
H9     H     0.40838   0.86270   0.57744   0.01267  Uiso   1.00
H10    H     0.28560   0.90480   0.90480   0.01267  Uiso   1.00
H11    H     0.57744   0.15148   0.40838   0.01267  Uiso   1.00
H12    H     0.86270   0.15148   0.57744   0.01267  Uiso   1.00
H13    H     0.57744   0.86270   0.15148   0.01267  Uiso   1.00
H14    H     0.90480   0.28560   0.90480   0.01267  Uiso   1.00
H15    H     0.86270   0.40838   0.15148   0.01267  Uiso   1.00
H16    H     0.15148   0.86270   0.40838   0.01267  Uiso   1.00
H17    H     0.90480   0.90480   0.90480   0.01267  Uiso   1.00
H18    H     0.57744   0.15148   0.86270   0.01267  Uiso   1.00
H19    H     0.90480   0.90480   0.28560   0.01267  Uiso   1.00
H20    H     0.15148   0.57744   0.40838   0.01267  Uiso   1.00
H21    H     0.86270   0.57744   0.40838   0.01267  Uiso   1.00
H22    H     0.40838   0.15148   0.86270   0.01267  Uiso   1.00
H23    H     0.86270   0.40838   0.57744   0.01267  Uiso   1.00
H24    H     0.57744   0.86270   0.40838   0.01267  Uiso   1.00
H25    H     0.40838   0.57744   0.15148   0.01267  Uiso   1.00
H26    H     0.15148   0.86270   0.57744   0.01267  Uiso   1.00
H27    H     0.15148   0.40838   0.86270   0.01267  Uiso   1.00
H28    H     0.40838   0.15148   0.57744   0.01267  Uiso   1.00
C1     C     0.44609   0.53949   0.92557   0.01267  Uiso   1.00
C2     C     0.00434   0.30142   0.00434   0.01267  Uiso   1.00
C3     C     0.92557   0.53949   0.44609   0.01267  Uiso   1.00
C4     C     0.08885   0.92557   0.44609   0.01267  Uiso   1.00
C5     C     0.00675   0.00675   0.39939   0.01267  Uiso   1.00
C6     C     0.92557   0.08885   0.44609   0.01267  Uiso   1.00
C7     C     0.53949   0.92557   0.44609   0.01267  Uiso   1.00
C8     C     0.44609   0.08885   0.92557   0.01267  Uiso   1.00
C9     C     0.53949   0.44609   0.08885   0.01267  Uiso   1.00
C10    C     0.08885   0.53949   0.92557   0.01267  Uiso   1.00
C11    C     0.58711   0.00675   0.39939   0.01267  Uiso   1.00
C12    C     0.53949   0.08885   0.44609   0.01267  Uiso   1.00
C13    C     0.58711   0.39939   0.00675   0.01267  Uiso   1.00
C14    C     0.68990   0.00434   0.00434   0.01267  Uiso   1.00
C15    C     0.00434   0.68990   0.00434   0.01267  Uiso   1.00
C16    C     0.00434   0.00434   0.68990   0.01267  Uiso   1.00
C17    C     0.30142   0.00434   0.68990   0.01267  Uiso   1.00
C18    C     0.53949   0.92557   0.08885   0.01267  Uiso   1.00
C19    C     0.68990   0.30142   0.00434   0.01267  Uiso   1.00
C20    C     0.08885   0.44609   0.92557   0.01267  Uiso   1.00
C21    C     0.92557   0.53949   0.08885   0.01267  Uiso   1.00
C22    C     0.92557   0.08885   0.53949   0.01267  Uiso   1.00
C23    C     0.39939   0.00675   0.00675   0.01267  Uiso   1.00
C24    C     0.00675   0.39939   0.58711   0.01267  Uiso   1.00
C25    C     0.00675   0.39939   0.00675   0.01267  Uiso   1.00
C26    C     0.39939   0.00675   0.58711   0.01267  Uiso   1.00
C27    C     0.08885   0.44609   0.53949   0.01267  Uiso   1.00
C28    C     0.39939   0.58711   0.00675   0.01267  Uiso   1.00
C29    C     0.53949   0.44609   0.92557   0.01267  Uiso   1.00
C30    C     0.58711   0.00675   0.00675   0.01267  Uiso   1.00
C31    C     0.00675   0.58711   0.39939   0.01267  Uiso   1.00
C32    C     0.00675   0.00675   0.58711   0.01267  Uiso   1.00
C33    C     0.08885   0.53949   0.44609   0.01267  Uiso   1.00
C34    C     0.00675   0.58711   0.00675   0.01267  Uiso   1.00
C35    C     0.92557   0.44609   0.08885   0.01267  Uiso   1.00
C36    C     0.08885   0.92557   0.53949   0.01267  Uiso   1.00
C37    C     0.44609   0.92557   0.53949   0.01267  Uiso   1.00
C38    C     0.30142   0.68990   0.00434   0.01267  Uiso   1.00
C39    C     0.44609   0.92557   0.08885   0.01267  Uiso   1.00
C40    C     0.53949   0.08885   0.92557   0.01267  Uiso   1.00
C41    C     0.00434   0.30142   0.68990   0.01267  Uiso   1.00
C42    C     0.44609   0.08885   0.53949   0.01267  Uiso   1.00
C43    C     0.44609   0.53949   0.08885   0.01267  Uiso   1.00
C44    C     0.30142   0.00434   0.00434   0.01267  Uiso   1.00
C45    C     0.68990   0.00434   0.30142   0.01267  Uiso   1.00
C46    C     0.92557   0.44609   0.53949   0.01267  Uiso   1.00
C47    C     0.00434   0.00434   0.30142   0.01267  Uiso   1.00
C48    C     0.00434   0.68990   0.30142   0.01267  Uiso   1.00
O1     O     0.72998   0.26446   0.07968   0.01267  Uiso   1.00
O2     O     0.84550   0.05150   0.05150   0.01267  Uiso   1.00
O3     O     0.26446   0.92588   0.07968   0.01267  Uiso   1.00
O4     O     0.07968   0.26446   0.72998   0.01267  Uiso   1.00
O5     O     0.72998   0.07968   0.92588   0.01267  Uiso   1.00
O6     O     0.26446   0.92588   0.72998   0.01267  Uiso   1.00
O7     O     0.26446   0.07968   0.72998   0.01267  Uiso   1.00
O8     O     0.92588   0.07968   0.26446   0.01267  Uiso   1.00
O9     O     0.05150   0.05150   0.05150   0.01267  Uiso   1.00
O10    O     0.72998   0.07968   0.26446   0.01267  Uiso   1.00
O11    O     0.92588   0.07968   0.72998   0.01267  Uiso   1.00
O12    O     0.72998   0.26446   0.92588   0.01267  Uiso   1.00
O13    O     0.93147   0.20559   0.93147   0.01267  Uiso   1.00
O14    O     0.92588   0.26446   0.72998   0.01267  Uiso   1.00
O15    O     0.26446   0.72998   0.92588   0.01267  Uiso   1.00
O16    O     0.07968   0.72998   0.92588   0.01267  Uiso   1.00
O17    O     0.07968   0.26446   0.92588   0.01267  Uiso   1.00
O18    O     0.26446   0.07968   0.92588   0.01267  Uiso   1.00
O19    O     0.05150   0.84550   0.05150   0.01267  Uiso   1.00
O20    O     0.92588   0.72998   0.26446   0.01267  Uiso   1.00
O21    O     0.72998   0.92588   0.07968   0.01267  Uiso   1.00
O22    O     0.07968   0.92588   0.72998   0.01267  Uiso   1.00
O23    O     0.20559   0.93147   0.93147   0.01267  Uiso   1.00
O24    O     0.92588   0.72998   0.07968   0.01267  Uiso   1.00
O25    O     0.72998   0.92588   0.26446   0.01267  Uiso   1.00
O26    O     0.26446   0.72998   0.07968   0.01267  Uiso   1.00
O27    O     0.05150   0.05150   0.84550   0.01267  Uiso   1.00
O28    O     0.07968   0.72998   0.26446   0.01267  Uiso   1.00
O29    O     0.93147   0.93147   0.93147   0.01267  Uiso   1.00
O30    O     0.93147   0.93147   0.20559   0.01267  Uiso   1.00
O31    O     0.07968   0.92588   0.26446   0.01267  Uiso   1.00
O32    O     0.92588   0.26446   0.07968   0.01267  Uiso   1.00
