data_jz4002345_si_005_clean
_audit_creation_date              2015-08-19
_audit_creation_method            'Materials Studio'
_symmetry_space_group_name_H-M    'P1'
_symmetry_Int_Tables_number       1
_symmetry_cell_setting            triclinic
loop_
_symmetry_equiv_pos_as_xyz
  x,y,z
_cell_length_a                    14.3391
_cell_length_b                    14.3391
_cell_length_c                    14.3391
_cell_angle_alpha                 60.0000
_cell_angle_beta                  60.0000
_cell_angle_gamma                 60.0000
loop_
_atom_site_label
_atom_site_type_symbol
_atom_site_fract_x
_atom_site_fract_y
_atom_site_fract_z
_atom_site_U_iso_or_equiv
_atom_site_adp_type
_atom_site_occupancy
Ti1    Ti    0.11693   0.88307   0.11693   0.01267  Uiso   1.00
Ti2    Ti    0.88307   0.11693   0.88307   0.01267  Uiso   1.00
Ti3    Ti    0.11693   0.11693   0.88307   0.01267  Uiso   1.00
Ti4    Ti    0.88307   0.88307   0.11693   0.01267  Uiso   1.00
Ti5    Ti    0.88307   0.11693   0.11693   0.01267  Uiso   1.00
Ti6    Ti    0.11693   0.88307   0.88307   0.01267  Uiso   1.00
H1     H     0.59485   0.84315   0.41917   0.01267  Uiso   1.00
H2     H     0.09304   0.72088   0.09304   0.01267  Uiso   1.00
H3     H     0.84315   0.41917   0.59485   0.01267  Uiso   1.00
H4     H     0.09304   0.09304   0.72088   0.01267  Uiso   1.00
H5     H     0.59485   0.14283   0.41917   0.01267  Uiso   1.00
H6     H     0.84315   0.14283   0.59485   0.01267  Uiso   1.00
H7     H     0.84315   0.41917   0.14283   0.01267  Uiso   1.00
H8     H     0.41917   0.14283   0.59485   0.01267  Uiso   1.00
H9     H     0.14283   0.41917   0.84315   0.01267  Uiso   1.00
H10    H     0.41917   0.84315   0.59485   0.01267  Uiso   1.00
H11    H     0.84315   0.59485   0.41917   0.01267  Uiso   1.00
H12    H     0.14283   0.84315   0.41917   0.01267  Uiso   1.00
H13    H     0.41917   0.84315   0.14283   0.01267  Uiso   1.00
H14    H     0.59485   0.41917   0.14283   0.01267  Uiso   1.00
H15    H     0.59485   0.14283   0.84315   0.01267  Uiso   1.00
H16    H     0.59485   0.41917   0.84315   0.01267  Uiso   1.00
H17    H     0.14283   0.59485   0.84315   0.01267  Uiso   1.00
H18    H     0.14283   0.84315   0.59485   0.01267  Uiso   1.00
H19    H     0.41917   0.14283   0.84315   0.01267  Uiso   1.00
H20    H     0.72088   0.09304   0.09304   0.01267  Uiso   1.00
H21    H     0.59485   0.84315   0.14283   0.01267  Uiso   1.00
H22    H     0.14283   0.41917   0.59485   0.01267  Uiso   1.00
H23    H     0.14283   0.59485   0.41917   0.01267  Uiso   1.00
H24    H     0.84315   0.14283   0.41917   0.01267  Uiso   1.00
H25    H     0.84315   0.59485   0.14283   0.01267  Uiso   1.00
H26    H     0.41917   0.59485   0.14283   0.01267  Uiso   1.00
H27    H     0.09304   0.09304   0.09304   0.01267  Uiso   1.00
H28    H     0.41917   0.59485   0.84315   0.01267  Uiso   1.00
C1     C     0.55561   0.45873   0.07765   0.01267  Uiso   1.00
C2     C     0.70546   0.99588   0.30278   0.01267  Uiso   1.00
C3     C     0.07765   0.55561   0.45873   0.01267  Uiso   1.00
C4     C     0.45873   0.55561   0.90801   0.01267  Uiso   1.00
C5     C     0.07765   0.45873   0.90801   0.01267  Uiso   1.00
C6     C     0.45873   0.07765   0.90801   0.01267  Uiso   1.00
C7     C     0.99332   0.60390   0.99332   0.01267  Uiso   1.00
C8     C     0.99332   0.99332   0.60390   0.01267  Uiso   1.00
C9     C     0.60390   0.99332   0.40946   0.01267  Uiso   1.00
C10    C     0.99588   0.30278   0.70546   0.01267  Uiso   1.00
C11    C     0.45873   0.90801   0.55561   0.01267  Uiso   1.00
C12    C     0.90801   0.07765   0.55561   0.01267  Uiso   1.00
C13    C     0.07765   0.90801   0.45873   0.01267  Uiso   1.00
C14    C     0.99332   0.60390   0.40946   0.01267  Uiso   1.00
C15    C     0.55561   0.07765   0.45873   0.01267  Uiso   1.00
C16    C     0.30278   0.99588   0.70546   0.01267  Uiso   1.00
C17    C     0.70546   0.30278   0.99588   0.01267  Uiso   1.00
C18    C     0.07765   0.55561   0.90801   0.01267  Uiso   1.00
C19    C     0.40946   0.99332   0.60390   0.01267  Uiso   1.00
C20    C     0.45873   0.90801   0.07765   0.01267  Uiso   1.00
C21    C     0.07765   0.45873   0.55561   0.01267  Uiso   1.00
C22    C     0.90801   0.55561   0.45873   0.01267  Uiso   1.00
C23    C     0.45873   0.07765   0.55561   0.01267  Uiso   1.00
C24    C     0.99332   0.40946   0.60390   0.01267  Uiso   1.00
C25    C     0.30278   0.99588   0.99588   0.01267  Uiso   1.00
C26    C     0.40946   0.99332   0.99332   0.01267  Uiso   1.00
C27    C     0.55561   0.45873   0.90801   0.01267  Uiso   1.00
C28    C     0.55561   0.07765   0.90801   0.01267  Uiso   1.00
C29    C     0.30278   0.70546   0.99588   0.01267  Uiso   1.00
C30    C     0.99588   0.70546   0.99588   0.01267  Uiso   1.00
C31    C     0.90801   0.55561   0.07765   0.01267  Uiso   1.00
C32    C     0.07765   0.90801   0.55561   0.01267  Uiso   1.00
C33    C     0.99332   0.40946   0.99332   0.01267  Uiso   1.00
C34    C     0.60390   0.40946   0.99332   0.01267  Uiso   1.00
C35    C     0.55561   0.90801   0.07765   0.01267  Uiso   1.00
C36    C     0.99588   0.99588   0.30278   0.01267  Uiso   1.00
C37    C     0.90801   0.07765   0.45873   0.01267  Uiso   1.00
C38    C     0.45873   0.55561   0.07765   0.01267  Uiso   1.00
C39    C     0.99588   0.30278   0.99588   0.01267  Uiso   1.00
C40    C     0.55561   0.90801   0.45873   0.01267  Uiso   1.00
C41    C     0.90801   0.45873   0.55561   0.01267  Uiso   1.00
C42    C     0.99588   0.70546   0.30278   0.01267  Uiso   1.00
C43    C     0.90801   0.45873   0.07765   0.01267  Uiso   1.00
C44    C     0.40946   0.60390   0.99332   0.01267  Uiso   1.00
C45    C     0.70546   0.99588   0.99588   0.01267  Uiso   1.00
C46    C     0.99588   0.99588   0.70546   0.01267  Uiso   1.00
C47    C     0.99332   0.99332   0.40946   0.01267  Uiso   1.00
C48    C     0.60390   0.99332   0.99332   0.01267  Uiso   1.00
O1     O     0.07720   0.26112   0.74370   0.01267  Uiso   1.00
O2     O     0.91798   0.07720   0.26112   0.01267  Uiso   1.00
O3     O     0.74370   0.91798   0.26112   0.01267  Uiso   1.00
O4     O     0.07720   0.74370   0.26112   0.01267  Uiso   1.00
O5     O     0.07720   0.91798   0.74370   0.01267  Uiso   1.00
O6     O     0.91798   0.26112   0.07720   0.01267  Uiso   1.00
O7     O     0.95107   0.14679   0.95107   0.01267  Uiso   1.00
O8     O     0.91798   0.74370   0.26112   0.01267  Uiso   1.00
O9     O     0.26112   0.91798   0.74370   0.01267  Uiso   1.00
O10    O     0.14679   0.95107   0.95107   0.01267  Uiso   1.00
O11    O     0.91798   0.74370   0.07720   0.01267  Uiso   1.00
O12    O     0.26112   0.74370   0.91798   0.01267  Uiso   1.00
O13    O     0.74370   0.07720   0.26112   0.01267  Uiso   1.00
O14    O     0.80407   0.06531   0.06531   0.01267  Uiso   1.00
O15    O     0.26112   0.74370   0.07720   0.01267  Uiso   1.00
O16    O     0.07720   0.74370   0.91798   0.01267  Uiso   1.00
O17    O     0.91798   0.26112   0.74370   0.01267  Uiso   1.00
O18    O     0.26112   0.07720   0.74370   0.01267  Uiso   1.00
O19    O     0.26112   0.07720   0.91798   0.01267  Uiso   1.00
O20    O     0.26112   0.91798   0.07720   0.01267  Uiso   1.00
O21    O     0.91798   0.07720   0.74370   0.01267  Uiso   1.00
O22    O     0.74370   0.07720   0.91798   0.01267  Uiso   1.00
O23    O     0.07720   0.26112   0.91798   0.01267  Uiso   1.00
O24    O     0.06531   0.80407   0.06531   0.01267  Uiso   1.00
O25    O     0.95107   0.95107   0.14679   0.01267  Uiso   1.00
O26    O     0.06531   0.06531   0.80407   0.01267  Uiso   1.00
O27    O     0.06531   0.06531   0.06531   0.01267  Uiso   1.00
O28    O     0.07720   0.91798   0.26112   0.01267  Uiso   1.00
O29    O     0.74370   0.26112   0.07720   0.01267  Uiso   1.00
O30    O     0.74370   0.91798   0.07720   0.01267  Uiso   1.00
O31    O     0.95107   0.95107   0.95107   0.01267  Uiso   1.00
O32    O     0.74370   0.26112   0.91798   0.01267  Uiso   1.00
