data_image0
_cell_length_a       7.9973
_cell_length_b       9.7743
_cell_length_c       10.8627
_cell_angle_alpha    87.194
_cell_angle_beta     84.679
_cell_angle_gamma    74.744

_symmetry_space_group_name_H-M    "P 1"
_symmetry_int_tables_number       1

loop_
  _symmetry_equiv_pos_as_xyz
  'x, y, z'

loop_
  _atom_site_label
  _atom_site_occupancy
  _atom_site_fract_x
  _atom_site_fract_y
  _atom_site_fract_z
  _atom_site_thermal_displace_type
  _atom_site_B_iso_or_equiv
  _atom_site_type_symbol
  Cu1      1.0000 0.87713  0.92944  0.01304  Biso   1.000  Cu
  C1       1.0000 0.01440  0.98760  0.62790  Biso   1.000  C
  C2       1.0000 0.11630  0.88200  0.54990  Biso   1.000  C
  C3       1.0000 0.89960  0.10380  0.57730  Biso   1.000  C
  C4       1.0000 0.02090  0.98400  0.76660  Biso   1.000  C
  C5       1.0000 0.24860  0.75490  0.59720  Biso   1.000  C
  C6       1.0000 0.37520  0.63080  0.00860  Biso   1.000  C
  C7       1.0000 0.54870  0.62190  0.02810  Biso   1.000  C
  C8       1.0000 0.32860  0.50860  0.98180  Biso   1.000  C
  C9       1.0000 0.23770  0.77010  0.01030  Biso   1.000  C
  C10      1.0000 0.60840  0.74470  0.07160  Biso   1.000  C
  O1       1.0000 0.91090  0.93300  0.82990  Biso   1.000  O
  O2       1.0000 0.12580  0.04410  0.80750  Biso   1.000  O
  O3       1.0000 0.35510  0.68990  0.51300  Biso   1.000  O
  O4       1.0000 0.24860  0.72700  0.70970  Biso   1.000  O
  O5       1.0000 0.08180  0.76550  0.02340  Biso   1.000  O
  O6       1.0000 0.28960  0.88190  0.99560  Biso   1.000  O
  O7       1.0000 0.56680  0.77830  0.18100  Biso   1.000  O
  O8       1.0000 0.70300  0.79890  0.99480  Biso   1.000  O
  H1       1.0000 0.82240  0.18200  0.62860  Biso   1.000  H
  H2       1.0000 0.21590  0.51280  0.96610  Biso   1.000  H
  Cu2      1.0000 0.12287  0.07056  0.98696  Biso   1.000  Cu
  C11      1.0000 0.98560  0.01240  0.37210  Biso   1.000  C
  C12      1.0000 0.88370  0.11800  0.45010  Biso   1.000  C
  C13      1.0000 0.10040  0.89620  0.42270  Biso   1.000  C
  C14      1.0000 0.97910  0.01600  0.23340  Biso   1.000  C
  C15      1.0000 0.75140  0.24510  0.40280  Biso   1.000  C
  C16      1.0000 0.62480  0.36920  0.99140  Biso   1.000  C
  C17      1.0000 0.45130  0.37810  0.97190  Biso   1.000  C
  C18      1.0000 0.67140  0.49140  0.01820  Biso   1.000  C
  C19      1.0000 0.76230  0.22990  0.98970  Biso   1.000  C
  C20      1.0000 0.39160  0.25530  0.92840  Biso   1.000  C
  O9       1.0000 0.08910  0.06700  0.17010  Biso   1.000  O
  O10      1.0000 0.87420  0.95590  0.19250  Biso   1.000  O
  O11      1.0000 0.64490  0.31010  0.48700  Biso   1.000  O
  O12      1.0000 0.75140  0.27300  0.29030  Biso   1.000  O
  O13      1.0000 0.91820  0.23450  0.97660  Biso   1.000  O
  O14      1.0000 0.71040  0.11810  0.00440  Biso   1.000  O
  O15      1.0000 0.43320  0.22170  0.81900  Biso   1.000  O
  O16      1.0000 0.29700  0.20110  0.00520  Biso   1.000  O
  H3       1.0000 0.17760  0.81800  0.37140  Biso   1.000  H
  H4       1.0000 0.78410  0.48720  0.03390  Biso   1.000  H
  Cu3      1.0000 0.50000  0.50000  0.50000  Biso   1.000  Cu
