data_KABXES_clean
_audit_creation_date              2014-07-02
_audit_creation_method            'Materials Studio'
_symmetry_space_group_name_H-M    'P1'
_symmetry_Int_Tables_number       1
_symmetry_cell_setting            triclinic
loop_
_symmetry_equiv_pos_as_xyz
  x,y,z
_cell_length_a                    13.7217
_cell_length_b                    13.7217
_cell_length_c                    16.4199
_cell_angle_alpha                 67.0804
_cell_angle_beta                  67.0804
_cell_angle_gamma                 75.6502
loop_
_atom_site_label
_atom_site_type_symbol
_atom_site_fract_x
_atom_site_fract_y
_atom_site_fract_z
_atom_site_U_iso_or_equiv
_atom_site_adp_type
_atom_site_occupancy
Sm1    Sm    0.16744   0.45402   0.99825   0.01267  Uiso   1.00
Sm2    Sm    0.54598   0.83256   0.50175   0.01267  Uiso   1.00
Sm3    Sm    0.83256   0.54598   0.00175   0.01267  Uiso   1.00
Sm4    Sm    0.45402   0.16744   0.49825   0.01267  Uiso   1.00
H1     H     0.33690   0.22150   0.24600   0.01267  Uiso   1.00
H2     H     0.45360   0.91720   0.28320   0.01267  Uiso   1.00
H3     H     0.34390   0.08010   0.07020   0.01267  Uiso   1.00
H4     H     0.07230   0.12450   0.15610   0.01267  Uiso   1.00
H5     H     0.77850   0.66310   0.25400   0.01267  Uiso   1.00
H6     H     0.08280   0.54640   0.21680   0.01267  Uiso   1.00
H7     H     0.91990   0.65610   0.42980   0.01267  Uiso   1.00
H8     H     0.87550   0.92770   0.34390   0.01267  Uiso   1.00
H9     H     0.66310   0.77850   0.75400   0.01267  Uiso   1.00
H10    H     0.54640   0.08280   0.71680   0.01267  Uiso   1.00
H11    H     0.65610   0.91990   0.92980   0.01267  Uiso   1.00
H12    H     0.92770   0.87550   0.84390   0.01267  Uiso   1.00
H13    H     0.22150   0.33690   0.74600   0.01267  Uiso   1.00
H14    H     0.91720   0.45360   0.78320   0.01267  Uiso   1.00
H15    H     0.08010   0.34390   0.57020   0.01267  Uiso   1.00
H16    H     0.12450   0.07230   0.65610   0.01267  Uiso   1.00
H17    H     0.77020   0.22980   0.25000   0.01267  Uiso   1.00
H18    H     0.22980   0.77020   0.75000   0.01267  Uiso   1.00
C1     C     0.42707   0.06371   0.35894   0.01267  Uiso   1.00
C2     C     0.40134   0.06856   0.27614   0.01267  Uiso   1.00
C3     C     0.33345   0.16839   0.14715   0.01267  Uiso   1.00
C4     C     0.28130   0.26906   0.09214   0.01267  Uiso   1.00
C5     C     0.35811   0.07853   0.12004   0.01267  Uiso   1.00
C6     C     0.92674   0.19704   0.18991   0.01267  Uiso   1.00
C7     C     0.95022   0.30776   0.12307   0.01267  Uiso   1.00
C8     C     0.00971   0.11491   0.19103   0.01267  Uiso   1.00
C9     C     0.35500   0.16262   0.22498   0.01267  Uiso   1.00
C10    C     0.42348   0.97806   0.25064   0.01267  Uiso   1.00
C11    C     0.40121   0.98581   0.17291   0.01267  Uiso   1.00
C12    C     0.93629   0.57293   0.14106   0.01267  Uiso   1.00
C13    C     0.93144   0.59866   0.22386   0.01267  Uiso   1.00
C14    C     0.83161   0.66655   0.35285   0.01267  Uiso   1.00
C15    C     0.73094   0.71870   0.40786   0.01267  Uiso   1.00
C16    C     0.92147   0.64189   0.37996   0.01267  Uiso   1.00
C17    C     0.80296   0.07326   0.31009   0.01267  Uiso   1.00
C18    C     0.69224   0.04978   0.37693   0.01267  Uiso   1.00
C19    C     0.88509   0.99029   0.30897   0.01267  Uiso   1.00
C20    C     0.83738   0.64500   0.27502   0.01267  Uiso   1.00
C21    C     0.02194   0.57652   0.24936   0.01267  Uiso   1.00
C22    C     0.01419   0.59879   0.32709   0.01267  Uiso   1.00
C23    C     0.57293   0.93629   0.64106   0.01267  Uiso   1.00
C24    C     0.59866   0.93144   0.72386   0.01267  Uiso   1.00
C25    C     0.66655   0.83161   0.85285   0.01267  Uiso   1.00
C26    C     0.71870   0.73094   0.90786   0.01267  Uiso   1.00
C27    C     0.64189   0.92147   0.87996   0.01267  Uiso   1.00
C28    C     0.07326   0.80296   0.81009   0.01267  Uiso   1.00
C29    C     0.04978   0.69224   0.87693   0.01267  Uiso   1.00
C30    C     0.99029   0.88509   0.80897   0.01267  Uiso   1.00
C31    C     0.64500   0.83738   0.77502   0.01267  Uiso   1.00
C32    C     0.57652   0.02194   0.74936   0.01267  Uiso   1.00
C33    C     0.59879   0.01419   0.82709   0.01267  Uiso   1.00
C34    C     0.06371   0.42707   0.85894   0.01267  Uiso   1.00
C35    C     0.06856   0.40134   0.77614   0.01267  Uiso   1.00
C36    C     0.16839   0.33345   0.64715   0.01267  Uiso   1.00
C37    C     0.26906   0.28130   0.59214   0.01267  Uiso   1.00
C38    C     0.07853   0.35811   0.62004   0.01267  Uiso   1.00
C39    C     0.19704   0.92674   0.68991   0.01267  Uiso   1.00
C40    C     0.30776   0.95022   0.62307   0.01267  Uiso   1.00
C41    C     0.11491   0.00971   0.69103   0.01267  Uiso   1.00
C42    C     0.16262   0.35500   0.72498   0.01267  Uiso   1.00
C43    C     0.97806   0.42348   0.75064   0.01267  Uiso   1.00
C44    C     0.98581   0.40121   0.67291   0.01267  Uiso   1.00
C45    C     0.82408   0.17592   0.25000   0.01267  Uiso   1.00
C46    C     0.98656   0.01344   0.25000   0.01267  Uiso   1.00
C47    C     0.17592   0.82408   0.75000   0.01267  Uiso   1.00
C48    C     0.01344   0.98656   0.75000   0.01267  Uiso   1.00
N1     N     0.42351   0.88981   0.14563   0.01267  Uiso   1.00
N2     N     0.11019   0.57649   0.35437   0.01267  Uiso   1.00
N3     N     0.57649   0.11019   0.85437   0.01267  Uiso   1.00
N4     N     0.88981   0.42351   0.64563   0.01267  Uiso   1.00
N5     N     0.07394   0.92606   0.25000   0.01267  Uiso   1.00
N6     N     0.92606   0.07394   0.75000   0.01267  Uiso   1.00
O1     O     0.04634   0.32388   0.08672   0.01267  Uiso   1.00
O2     O     0.40670   0.14802   0.37879   0.01267  Uiso   1.00
O3     O     0.27290   0.27152   0.01779   0.01267  Uiso   1.00
O4     O     0.87253   0.37467   0.10943   0.01267  Uiso   1.00
O5     O     0.46806   0.97628   0.40228   0.01267  Uiso   1.00
O6     O     0.24678   0.34664   0.12286   0.01267  Uiso   1.00
O7     O     0.44207   0.80387   0.20143   0.01267  Uiso   1.00
O8     O     0.42199   0.90149   0.06874   0.01267  Uiso   1.00
O9     O     0.16520   0.94862   0.20880   0.01267  Uiso   1.00
O10    O     0.67612   0.95366   0.41328   0.01267  Uiso   1.00
O11    O     0.85198   0.59330   0.12121   0.01267  Uiso   1.00
O12    O     0.72848   0.72710   0.48221   0.01267  Uiso   1.00
O13    O     0.62533   0.12747   0.39057   0.01267  Uiso   1.00
O14    O     0.02372   0.53194   0.09772   0.01267  Uiso   1.00
O15    O     0.65336   0.75322   0.37714   0.01267  Uiso   1.00
O16    O     0.19613   0.55793   0.29857   0.01267  Uiso   1.00
O17    O     0.09851   0.57801   0.43126   0.01267  Uiso   1.00
O18    O     0.05138   0.83480   0.29120   0.01267  Uiso   1.00
O19    O     0.95366   0.67612   0.91328   0.01267  Uiso   1.00
O20    O     0.59330   0.85198   0.62121   0.01267  Uiso   1.00
O21    O     0.72710   0.72848   0.98221   0.01267  Uiso   1.00
O22    O     0.12747   0.62533   0.89057   0.01267  Uiso   1.00
O23    O     0.53194   0.02372   0.59772   0.01267  Uiso   1.00
O24    O     0.75322   0.65336   0.87714   0.01267  Uiso   1.00
O25    O     0.55793   0.19613   0.79857   0.01267  Uiso   1.00
O26    O     0.57801   0.09851   0.93126   0.01267  Uiso   1.00
O27    O     0.83480   0.05138   0.79120   0.01267  Uiso   1.00
O28    O     0.32388   0.04634   0.58672   0.01267  Uiso   1.00
O29    O     0.14802   0.40670   0.87879   0.01267  Uiso   1.00
O30    O     0.27152   0.27290   0.51779   0.01267  Uiso   1.00
O31    O     0.37467   0.87253   0.60943   0.01267  Uiso   1.00
O32    O     0.97628   0.46806   0.90228   0.01267  Uiso   1.00
O33    O     0.34664   0.24678   0.62286   0.01267  Uiso   1.00
O34    O     0.80387   0.44207   0.70143   0.01267  Uiso   1.00
O35    O     0.90149   0.42199   0.56874   0.01267  Uiso   1.00
O36    O     0.94862   0.16520   0.70880   0.01267  Uiso   1.00
