data_image0
_cell_length_a       12.7137
_cell_length_b       13.3301
_cell_length_c       13.4034
_cell_angle_alpha    64.676
_cell_angle_beta     61.81
_cell_angle_gamma    84.079

_symmetry_space_group_name_H-M    "P 1"
_symmetry_int_tables_number       1

loop_
  _symmetry_equiv_pos_as_xyz
  'x, y, z'

loop_
  _atom_site_label
  _atom_site_occupancy
  _atom_site_fract_x
  _atom_site_fract_y
  _atom_site_fract_z
  _atom_site_thermal_displace_type
  _atom_site_B_iso_or_equiv
  _atom_site_type_symbol
  W1       1.0000 0.85169  0.26308  0.54495  Biso   1.000  W
  W2       1.0000 0.97449  0.74266  0.76313  Biso   1.000  W
  W3       1.0000 0.82595  0.96526  0.75227  Biso   1.000  W
  W4       1.0000 0.00382  0.20566  0.70131  Biso   1.000  W
  W5       1.0000 0.85080  0.01618  0.29184  Biso   1.000  W
  W6       1.0000 0.82791  0.82173  0.59619  Biso   1.000  W
  O1       1.0000 0.90800  0.40770  0.48310  Biso   1.000  O
  O2       1.0000 0.82650  0.08810  0.62030  Biso   1.000  O
  O3       1.0000 0.86390  0.69940  0.73180  Biso   1.000  O
  O4       1.0000 0.83520  0.95850  0.47250  Biso   1.000  O
  O5       1.0000 0.73930  0.87180  0.72890  Biso   1.000  O
  O6       1.0000 0.86290  0.81440  0.85650  Biso   1.000  O
  O7       1.0000 0.03600  0.21970  0.51540  Biso   1.000  O
  O8       1.0000 0.09990  0.84200  0.73560  Biso   1.000  O
  O9       1.0000 0.84660  0.85510  0.34090  Biso   1.000  O
  O10      1.0000 0.96070  0.02630  0.74270  Biso   1.000  O
  O11      1.0000 0.96060  0.90170  0.61600  Biso   1.000  O
  O12      1.0000 0.85210  0.22520  0.70350  Biso   1.000  O
  O13      1.0000 0.89570  0.26440  0.38830  Biso   1.000  O
  O14      1.0000 0.89920  0.04490  0.13120  Biso   1.000  O
  N1       1.0000 0.85560  0.49010  0.65840  Biso   1.000  N
  C1       1.0000 0.86050  0.47010  0.76090  Biso   1.000  C
  H1       1.0000 0.93320  0.45650  0.76220  Biso   1.000  H
  O15      1.0000 0.45060  0.53770  0.87360  Biso   1.000  O
  N2       1.0000 0.65440  0.48970  0.86760  Biso   1.000  N
  C2       1.0000 0.74680  0.50650  0.66060  Biso   1.000  C
  H2       1.0000 0.73930  0.51750  0.59100  Biso   1.000  H
  O16      1.0000 0.51450  0.55000  0.68090  Biso   1.000  O
  C3       1.0000 0.64730  0.50660  0.76720  Biso   1.000  C
  C4       1.0000 0.75960  0.46900  0.86770  Biso   1.000  C
  H3       1.0000 0.76550  0.45370  0.93920  Biso   1.000  H
  C5       1.0000 0.53060  0.52930  0.77370  Biso   1.000  C
  Cu1      1.0000 0.98900  0.99700  0.00900  Biso   1.000  Cu
  O17      1.0000 0.85880  0.91000  0.03770  Biso   1.000  O
  W7       1.0000 0.14831  0.73692  0.45505  Biso   1.000  W
  W8       1.0000 0.02551  0.25734  0.23687  Biso   1.000  W
  W9       1.0000 0.17405  0.03474  0.24773  Biso   1.000  W
  W10      1.0000 0.99618  0.79434  0.29869  Biso   1.000  W
  W11      1.0000 0.14920  0.98382  0.70816  Biso   1.000  W
  W12      1.0000 0.17209  0.17827  0.40381  Biso   1.000  W
  O18      1.0000 0.09200  0.59230  0.51690  Biso   1.000  O
  O19      1.0000 0.17350  0.91190  0.37970  Biso   1.000  O
  O20      1.0000 0.13610  0.30060  0.26820  Biso   1.000  O
  O21      1.0000 0.16480  0.04150  0.52750  Biso   1.000  O
  O22      1.0000 0.26070  0.12820  0.27110  Biso   1.000  O
  O23      1.0000 0.13710  0.18560  0.14350  Biso   1.000  O
  O24      1.0000 0.96400  0.78030  0.48460  Biso   1.000  O
  O25      1.0000 0.90010  0.15800  0.26440  Biso   1.000  O
  O26      1.0000 0.15340  0.14490  0.65910  Biso   1.000  O
  O27      1.0000 0.03930  0.97370  0.25730  Biso   1.000  O
  O28      1.0000 0.03940  0.09830  0.38400  Biso   1.000  O
  O29      1.0000 0.14790  0.77480  0.29650  Biso   1.000  O
  O30      1.0000 0.10430  0.73560  0.61170  Biso   1.000  O
  O31      1.0000 0.10080  0.95510  0.86880  Biso   1.000  O
  N3       1.0000 0.14440  0.50990  0.34160  Biso   1.000  N
  C6       1.0000 0.13950  0.52990  0.23910  Biso   1.000  C
  H4       1.0000 0.06680  0.54350  0.23780  Biso   1.000  H
  O32      1.0000 0.54940  0.46230  0.12640  Biso   1.000  O
  N4       1.0000 0.34560  0.51030  0.13240  Biso   1.000  N
  C7       1.0000 0.25320  0.49350  0.33940  Biso   1.000  C
  H5       1.0000 0.26070  0.48250  0.40900  Biso   1.000  H
  O33      1.0000 0.48550  0.45000  0.31910  Biso   1.000  O
  C8       1.0000 0.35270  0.49340  0.23280  Biso   1.000  C
  C9       1.0000 0.24040  0.53100  0.13230  Biso   1.000  C
  H6       1.0000 0.23450  0.54630  0.06080  Biso   1.000  H
  C10      1.0000 0.46940  0.47070  0.22630  Biso   1.000  C
  Cu2      1.0000 0.01100  0.00300  0.99100  Biso   1.000  Cu
  O34      1.0000 0.14120  0.09000  0.96230  Biso   1.000  O
  Cu3      1.0000 0.00000  0.50000  0.50000  Biso   1.000  Cu
  Cu4      1.0000 0.50000  0.50000  0.00000  Biso   1.000  Cu
