data_KABXOC_clean
_audit_creation_date              2014-07-02
_audit_creation_method            'Materials Studio'
_symmetry_space_group_name_H-M    'P1'
_symmetry_Int_Tables_number       1
_symmetry_cell_setting            triclinic
loop_
_symmetry_equiv_pos_as_xyz
  x,y,z
_cell_length_a                    13.6861
_cell_length_b                    13.6861
_cell_length_c                    16.3830
_cell_angle_alpha                 67.0707
_cell_angle_beta                  67.0707
_cell_angle_gamma                 75.6497
loop_
_atom_site_label
_atom_site_type_symbol
_atom_site_fract_x
_atom_site_fract_y
_atom_site_fract_z
_atom_site_U_iso_or_equiv
_atom_site_adp_type
_atom_site_occupancy
Eu1    Eu    0.83237   0.54586   0.50184   0.01267  Uiso   1.00
Eu2    Eu    0.45414   0.16763   0.99816   0.01267  Uiso   1.00
Eu3    Eu    0.16763   0.45414   0.49816   0.01267  Uiso   1.00
Eu4    Eu    0.54586   0.83237   0.00184   0.01267  Uiso   1.00
H1     H     0.22350   0.33850   0.24300   0.01267  Uiso   1.00
H2     H     0.08170   0.34590   0.06690   0.01267  Uiso   1.00
H3     H     0.91350   0.45330   0.28470   0.01267  Uiso   1.00
H4     H     0.08000   0.12800   0.65280   0.01267  Uiso   1.00
H5     H     0.66150   0.77650   0.25700   0.01267  Uiso   1.00
H6     H     0.65410   0.91830   0.43310   0.01267  Uiso   1.00
H7     H     0.54670   0.08650   0.21530   0.01267  Uiso   1.00
H8     H     0.87200   0.92000   0.84720   0.01267  Uiso   1.00
H9     H     0.77650   0.66150   0.75700   0.01267  Uiso   1.00
H10    H     0.91830   0.65410   0.93310   0.01267  Uiso   1.00
H11    H     0.08650   0.54670   0.71530   0.01267  Uiso   1.00
H12    H     0.92000   0.87200   0.34720   0.01267  Uiso   1.00
H13    H     0.33850   0.22350   0.74300   0.01267  Uiso   1.00
H14    H     0.34590   0.08170   0.56690   0.01267  Uiso   1.00
H15    H     0.45330   0.91350   0.78470   0.01267  Uiso   1.00
H16    H     0.12800   0.08000   0.15280   0.01267  Uiso   1.00
H17    H     0.76900   0.23100   0.75000   0.01267  Uiso   1.00
H18    H     0.23100   0.76900   0.25000   0.01267  Uiso   1.00
C1     C     0.06373   0.42751   0.35930   0.01267  Uiso   1.00
C2     C     0.26928   0.28090   0.09210   0.01267  Uiso   1.00
C3     C     0.06842   0.40130   0.27650   0.01267  Uiso   1.00
C4     C     0.16325   0.35505   0.22490   0.01267  Uiso   1.00
C5     C     0.16875   0.33339   0.14690   0.01267  Uiso   1.00
C6     C     0.07880   0.35820   0.11980   0.01267  Uiso   1.00
C7     C     0.98533   0.40135   0.17270   0.01267  Uiso   1.00
C8     C     0.97774   0.42380   0.25060   0.01267  Uiso   1.00
C9     C     0.95061   0.30825   0.62260   0.01267  Uiso   1.00
C10    C     0.01033   0.11485   0.69080   0.01267  Uiso   1.00
C11    C     0.92711   0.19677   0.68960   0.01267  Uiso   1.00
C12    C     0.57249   0.93627   0.14070   0.01267  Uiso   1.00
C13    C     0.71910   0.73072   0.40790   0.01267  Uiso   1.00
C14    C     0.59870   0.93158   0.22350   0.01267  Uiso   1.00
C15    C     0.64495   0.83675   0.27510   0.01267  Uiso   1.00
C16    C     0.66661   0.83125   0.35310   0.01267  Uiso   1.00
C17    C     0.64180   0.92120   0.38020   0.01267  Uiso   1.00
C18    C     0.59865   0.01467   0.32730   0.01267  Uiso   1.00
C19    C     0.57620   0.02226   0.24940   0.01267  Uiso   1.00
C20    C     0.69175   0.04939   0.87740   0.01267  Uiso   1.00
C21    C     0.88515   0.98967   0.80920   0.01267  Uiso   1.00
C22    C     0.80323   0.07289   0.81040   0.01267  Uiso   1.00
C23    C     0.93627   0.57249   0.64070   0.01267  Uiso   1.00
C24    C     0.73072   0.71910   0.90790   0.01267  Uiso   1.00
C25    C     0.93158   0.59870   0.72350   0.01267  Uiso   1.00
C26    C     0.83675   0.64495   0.77510   0.01267  Uiso   1.00
C27    C     0.83125   0.66661   0.85310   0.01267  Uiso   1.00
C28    C     0.92120   0.64180   0.88020   0.01267  Uiso   1.00
C29    C     0.01467   0.59865   0.82730   0.01267  Uiso   1.00
C30    C     0.02226   0.57620   0.74940   0.01267  Uiso   1.00
C31    C     0.04939   0.69175   0.37740   0.01267  Uiso   1.00
C32    C     0.98967   0.88515   0.30920   0.01267  Uiso   1.00
C33    C     0.07289   0.80323   0.31040   0.01267  Uiso   1.00
C34    C     0.42751   0.06373   0.85930   0.01267  Uiso   1.00
C35    C     0.28090   0.26928   0.59210   0.01267  Uiso   1.00
C36    C     0.40130   0.06842   0.77650   0.01267  Uiso   1.00
C37    C     0.35505   0.16325   0.72490   0.01267  Uiso   1.00
C38    C     0.33339   0.16875   0.64690   0.01267  Uiso   1.00
C39    C     0.35820   0.07880   0.61980   0.01267  Uiso   1.00
C40    C     0.40135   0.98533   0.67270   0.01267  Uiso   1.00
C41    C     0.42380   0.97774   0.75060   0.01267  Uiso   1.00
C42    C     0.30825   0.95061   0.12260   0.01267  Uiso   1.00
C43    C     0.11485   0.01033   0.19080   0.01267  Uiso   1.00
C44    C     0.19677   0.92711   0.18960   0.01267  Uiso   1.00
C45    C     0.98670   0.01330   0.75000   0.01267  Uiso   1.00
C46    C     0.82440   0.17560   0.75000   0.01267  Uiso   1.00
C47    C     0.01330   0.98670   0.25000   0.01267  Uiso   1.00
C48    C     0.17560   0.82440   0.25000   0.01267  Uiso   1.00
N1     N     0.88936   0.42320   0.14550   0.01267  Uiso   1.00
N2     N     0.57680   0.11064   0.35450   0.01267  Uiso   1.00
N3     N     0.11064   0.57680   0.85450   0.01267  Uiso   1.00
N4     N     0.42320   0.88936   0.64550   0.01267  Uiso   1.00
N5     N     0.07470   0.92530   0.75000   0.01267  Uiso   1.00
N6     N     0.92530   0.07470   0.25000   0.01267  Uiso   1.00
O1     O     0.34734   0.24616   0.12254   0.01267  Uiso   1.00
O2     O     0.04717   0.32429   0.58599   0.01267  Uiso   1.00
O3     O     0.97576   0.46862   0.40228   0.01267  Uiso   1.00
O4     O     0.14792   0.40730   0.37908   0.01267  Uiso   1.00
O5     O     0.87268   0.37512   0.60892   0.01267  Uiso   1.00
O6     O     0.90103   0.42233   0.06816   0.01267  Uiso   1.00
O7     O     0.27198   0.27314   0.01724   0.01267  Uiso   1.00
O8     O     0.80298   0.44176   0.20150   0.01267  Uiso   1.00
O9     O     0.05173   0.83385   0.79075   0.01267  Uiso   1.00
O10    O     0.75384   0.65266   0.37746   0.01267  Uiso   1.00
O11    O     0.67571   0.95283   0.91401   0.01267  Uiso   1.00
O12    O     0.53138   0.02424   0.09772   0.01267  Uiso   1.00
O13    O     0.59270   0.85208   0.12092   0.01267  Uiso   1.00
O14    O     0.62488   0.12732   0.89108   0.01267  Uiso   1.00
O15    O     0.57767   0.09897   0.43184   0.01267  Uiso   1.00
O16    O     0.72686   0.72802   0.48276   0.01267  Uiso   1.00
O17    O     0.55824   0.19702   0.29850   0.01267  Uiso   1.00
O18    O     0.16615   0.94827   0.70925   0.01267  Uiso   1.00
O19    O     0.65266   0.75384   0.87746   0.01267  Uiso   1.00
O20    O     0.95283   0.67571   0.41401   0.01267  Uiso   1.00
O21    O     0.02424   0.53138   0.59772   0.01267  Uiso   1.00
O22    O     0.85208   0.59270   0.62092   0.01267  Uiso   1.00
O23    O     0.12732   0.62488   0.39108   0.01267  Uiso   1.00
O24    O     0.09897   0.57767   0.93184   0.01267  Uiso   1.00
O25    O     0.72802   0.72686   0.98276   0.01267  Uiso   1.00
O26    O     0.19702   0.55824   0.79850   0.01267  Uiso   1.00
O27    O     0.94827   0.16615   0.20925   0.01267  Uiso   1.00
O28    O     0.24616   0.34734   0.62254   0.01267  Uiso   1.00
O29    O     0.32429   0.04717   0.08599   0.01267  Uiso   1.00
O30    O     0.46862   0.97576   0.90228   0.01267  Uiso   1.00
O31    O     0.40730   0.14792   0.87908   0.01267  Uiso   1.00
O32    O     0.37512   0.87268   0.10892   0.01267  Uiso   1.00
O33    O     0.42233   0.90103   0.56816   0.01267  Uiso   1.00
O34    O     0.27314   0.27198   0.51724   0.01267  Uiso   1.00
O35    O     0.44176   0.80298   0.70150   0.01267  Uiso   1.00
O36    O     0.83385   0.05173   0.29075   0.01267  Uiso   1.00
