data_image0
_cell_length_a       9.4586
_cell_length_b       26.769
_cell_length_c       32.377
_cell_angle_alpha    90
_cell_angle_beta     90
_cell_angle_gamma    90

_symmetry_space_group_name_H-M    "P 1"
_symmetry_int_tables_number       1

loop_
  _symmetry_equiv_pos_as_xyz
  'x, y, z'

loop_
  _atom_site_label
  _atom_site_occupancy
  _atom_site_fract_x
  _atom_site_fract_y
  _atom_site_fract_z
  _atom_site_thermal_displace_type
  _atom_site_B_iso_or_equiv
  _atom_site_type_symbol
  U1       1.0000 0.23852  0.72561  0.85142  Biso   1.000  U
  U2       1.0000 0.73679  0.60866  0.90215  Biso   1.000  U
  U3       1.0000 0.72399  0.94587  0.65460  Biso   1.000  U
  U4       1.0000 0.75430  0.80358  0.54572  Biso   1.000  U
  U5       1.0000 0.77411  0.76195  0.70847  Biso   1.000  U
  S1       1.0000 0.47460  0.71278  0.76708  Biso   1.000  S
  S2       1.0000 0.01410  0.71523  0.76107  Biso   1.000  S
  S3       1.0000 0.95740  0.84024  0.63385  Biso   1.000  S
  S4       1.0000 0.54060  0.82888  0.64097  Biso   1.000  S
  S5       1.0000 0.01360  0.70195  0.91923  Biso   1.000  S
  S6       1.0000 0.51220  0.52631  0.84142  Biso   1.000  S
  S7       1.0000 0.51120  0.68911  0.92531  Biso   1.000  S
  S8       1.0000 0.95750  0.77665  0.47441  Biso   1.000  S
  S9       1.0000 0.97440  0.53172  0.84389  Biso   1.000  S
  O1       1.0000 0.09510  0.74030  0.79460  Biso   1.000  O
  O2       1.0000 0.41680  0.73850  0.80410  Biso   1.000  O
  O3       1.0000 0.59160  0.54320  0.87830  Biso   1.000  O
  O4       1.0000 0.48800  0.63610  0.91500  Biso   1.000  O
  O5       1.0000 0.90370  0.88590  0.65730  Biso   1.000  O
  O6       1.0000 0.99090  0.72130  0.87650  Biso   1.000  O
  O7       1.0000 0.38890  0.82750  0.63660  Biso   1.000  O
  O8       1.0000 0.92110  0.84330  0.59020  Biso   1.000  O
  O9       1.0000 0.58410  0.87390  0.66300  Biso   1.000  O
  O10      1.0000 0.89510  0.79410  0.65160  Biso   1.000  O
  O11      1.0000 0.45860  0.70290  0.96520  Biso   1.000  O
  O12      1.0000 0.17280  0.69740  0.92220  Biso   1.000  O
  O13      1.0000 0.59170  0.78430  0.66450  Biso   1.000  O
  O14      1.0000 0.45220  0.72200  0.89270  Biso   1.000  O
  O15      1.0000 0.80470  0.76480  0.47890  Biso   1.000  O
  O16      1.0000 0.85780  0.71870  0.77090  Biso   1.000  O
  O17      1.0000 0.35830  0.53380  0.84910  Biso   1.000  O
  O18      1.0000 0.05880  0.66300  0.75620  Biso   1.000  O
  O19      1.0000 0.07850  0.49530  0.85940  Biso   1.000  O
  O20      1.0000 0.02640  0.74470  0.72190  Biso   1.000  O
  O21      1.0000 0.66750  0.69420  0.92400  Biso   1.000  O
  O22      1.0000 0.98970  0.80450  0.51210  Biso   1.000  O
  O23      1.0000 0.96180  0.73440  0.95140  Biso   1.000  O
  O24      1.0000 0.57910  0.74880  0.75020  Biso   1.000  O
  O25      1.0000 0.36280  0.70430  0.73750  Biso   1.000  O
  O26      1.0000 0.91210  0.55490  0.88310  Biso   1.000  O
  O27      1.0000 0.61130  0.82920  0.60030  Biso   1.000  O
  O28      1.0000 0.55460  0.55270  0.80470  Biso   1.000  O
  O29      1.0000 0.03610  0.72820  0.47530  Biso   1.000  O
  O30      1.0000 0.94920  0.65100  0.92360  Biso   1.000  O
  O31      1.0000 0.85970  0.50600  0.82190  Biso   1.000  O
  O32      1.0000 0.04490  0.56980  0.82020  Biso   1.000  O
  O33      1.0000 0.99220  0.80480  0.43840  Biso   1.000  O
  O34      1.0000 0.54200  0.66770  0.77890  Biso   1.000  O
  O35      1.0000 0.52730  0.47130  0.83880  Biso   1.000  O
  O36      1.0000 0.10910  0.83810  0.63760  Biso   1.000  O
  U6       1.0000 0.26148  0.27439  0.35142  Biso   1.000  U
  U7       1.0000 0.76321  0.39134  0.40215  Biso   1.000  U
  U8       1.0000 0.77601  0.05413  0.15460  Biso   1.000  U
  U9       1.0000 0.74570  0.19642  0.04572  Biso   1.000  U
  U10      1.0000 0.72589  0.23805  0.20847  Biso   1.000  U
  S10      1.0000 0.02540  0.28722  0.26708  Biso   1.000  S
  S11      1.0000 0.48590  0.28477  0.26107  Biso   1.000  S
  S12      1.0000 0.54260  0.15976  0.13385  Biso   1.000  S
  S13      1.0000 0.95940  0.17112  0.14097  Biso   1.000  S
  S14      1.0000 0.48640  0.29805  0.41923  Biso   1.000  S
  S15      1.0000 0.98780  0.47369  0.34142  Biso   1.000  S
  S16      1.0000 0.98880  0.31089  0.42531  Biso   1.000  S
  S17      1.0000 0.54250  0.22335  0.97441  Biso   1.000  S
  S18      1.0000 0.52560  0.46828  0.34389  Biso   1.000  S
  O37      1.0000 0.40490  0.25970  0.29460  Biso   1.000  O
  O38      1.0000 0.08320  0.26150  0.30410  Biso   1.000  O
  O39      1.0000 0.90840  0.45680  0.37830  Biso   1.000  O
  O40      1.0000 0.01200  0.36390  0.41500  Biso   1.000  O
  O41      1.0000 0.59630  0.11410  0.15730  Biso   1.000  O
  O42      1.0000 0.50910  0.27870  0.37650  Biso   1.000  O
  O43      1.0000 0.11110  0.17250  0.13660  Biso   1.000  O
  O44      1.0000 0.57890  0.15670  0.09020  Biso   1.000  O
  O45      1.0000 0.91590  0.12610  0.16300  Biso   1.000  O
  O46      1.0000 0.60490  0.20590  0.15160  Biso   1.000  O
  O47      1.0000 0.04140  0.29710  0.46520  Biso   1.000  O
  O48      1.0000 0.32720  0.30260  0.42220  Biso   1.000  O
  O49      1.0000 0.90830  0.21570  0.16450  Biso   1.000  O
  O50      1.0000 0.04780  0.27800  0.39270  Biso   1.000  O
  O51      1.0000 0.69530  0.23520  0.97890  Biso   1.000  O
  O52      1.0000 0.64220  0.28130  0.27090  Biso   1.000  O
  O53      1.0000 0.14170  0.46620  0.34910  Biso   1.000  O
  O54      1.0000 0.44120  0.33700  0.25620  Biso   1.000  O
  O55      1.0000 0.42150  0.50470  0.35940  Biso   1.000  O
  O56      1.0000 0.47360  0.25530  0.22190  Biso   1.000  O
  O57      1.0000 0.83250  0.30580  0.42400  Biso   1.000  O
  O58      1.0000 0.51030  0.19550  0.01210  Biso   1.000  O
  O59      1.0000 0.53820  0.26560  0.45140  Biso   1.000  O
  O60      1.0000 0.92090  0.25120  0.25020  Biso   1.000  O
  O61      1.0000 0.13720  0.29570  0.23750  Biso   1.000  O
  O62      1.0000 0.58790  0.44510  0.38310  Biso   1.000  O
  O63      1.0000 0.88870  0.17080  0.10030  Biso   1.000  O
  O64      1.0000 0.94540  0.44730  0.30470  Biso   1.000  O
  O65      1.0000 0.46390  0.27180  0.97530  Biso   1.000  O
  O66      1.0000 0.55080  0.34900  0.42360  Biso   1.000  O
  O67      1.0000 0.64030  0.49400  0.32190  Biso   1.000  O
  O68      1.0000 0.45510  0.43020  0.32020  Biso   1.000  O
  O69      1.0000 0.50780  0.19520  0.93840  Biso   1.000  O
  O70      1.0000 0.95800  0.33230  0.27890  Biso   1.000  O
  O71      1.0000 0.97270  0.52870  0.33880  Biso   1.000  O
  O72      1.0000 0.39090  0.16190  0.13760  Biso   1.000  O
  U11      1.0000 0.76148  0.22561  0.64858  Biso   1.000  U
  U12      1.0000 0.26321  0.10866  0.59785  Biso   1.000  U
  U13      1.0000 0.27601  0.44587  0.84540  Biso   1.000  U
  U14      1.0000 0.24570  0.30358  0.95428  Biso   1.000  U
  U15      1.0000 0.22589  0.26195  0.79153  Biso   1.000  U
  S19      1.0000 0.52540  0.21278  0.73292  Biso   1.000  S
  S20      1.0000 0.98590  0.21523  0.73893  Biso   1.000  S
  S21      1.0000 0.04260  0.34024  0.86615  Biso   1.000  S
  S22      1.0000 0.45940  0.32888  0.85903  Biso   1.000  S
  S23      1.0000 0.98640  0.20195  0.58077  Biso   1.000  S
  S24      1.0000 0.48780  0.02631  0.65858  Biso   1.000  S
  S25      1.0000 0.48880  0.18911  0.57469  Biso   1.000  S
  S26      1.0000 0.04250  0.27665  0.02559  Biso   1.000  S
  S27      1.0000 0.02560  0.03172  0.65611  Biso   1.000  S
  O73      1.0000 0.90490  0.24030  0.70540  Biso   1.000  O
  O74      1.0000 0.58320  0.23850  0.69590  Biso   1.000  O
  O75      1.0000 0.40840  0.04320  0.62170  Biso   1.000  O
  O76      1.0000 0.51200  0.13610  0.58500  Biso   1.000  O
  O77      1.0000 0.09630  0.38590  0.84270  Biso   1.000  O
  O78      1.0000 0.00910  0.22130  0.62350  Biso   1.000  O
  O79      1.0000 0.61110  0.32750  0.86340  Biso   1.000  O
  O80      1.0000 0.07890  0.34330  0.90980  Biso   1.000  O
  O81      1.0000 0.41590  0.37390  0.83700  Biso   1.000  O
  O82      1.0000 0.10490  0.29410  0.84840  Biso   1.000  O
  O83      1.0000 0.54140  0.20290  0.53480  Biso   1.000  O
  O84      1.0000 0.82720  0.19740  0.57780  Biso   1.000  O
  O85      1.0000 0.40830  0.28430  0.83550  Biso   1.000  O
  O86      1.0000 0.54780  0.22200  0.60730  Biso   1.000  O
  O87      1.0000 0.19530  0.26480  0.02110  Biso   1.000  O
  O88      1.0000 0.14220  0.21870  0.72910  Biso   1.000  O
  O89      1.0000 0.64170  0.03380  0.65090  Biso   1.000  O
  O90      1.0000 0.94120  0.16300  0.74380  Biso   1.000  O
  O91      1.0000 0.92150  0.99530  0.64060  Biso   1.000  O
  O92      1.0000 0.97360  0.24470  0.77810  Biso   1.000  O
  O93      1.0000 0.33250  0.19420  0.57600  Biso   1.000  O
  O94      1.0000 0.01030  0.30450  0.98790  Biso   1.000  O
  O95      1.0000 0.03820  0.23440  0.54860  Biso   1.000  O
  O96      1.0000 0.42090  0.24880  0.74980  Biso   1.000  O
  O97      1.0000 0.63720  0.20430  0.76250  Biso   1.000  O
  O98      1.0000 0.08790  0.05490  0.61690  Biso   1.000  O
  O99      1.0000 0.38870  0.32920  0.89970  Biso   1.000  O
  O100     1.0000 0.44540  0.05270  0.69530  Biso   1.000  O
  O101     1.0000 0.96390  0.22820  0.02470  Biso   1.000  O
  O102     1.0000 0.05080  0.15100  0.57640  Biso   1.000  O
  O103     1.0000 0.14030  0.00600  0.67810  Biso   1.000  O
  O104     1.0000 0.95510  0.06980  0.67980  Biso   1.000  O
  O105     1.0000 0.00780  0.30480  0.06160  Biso   1.000  O
  O106     1.0000 0.45800  0.16770  0.72110  Biso   1.000  O
  O107     1.0000 0.47270  0.97130  0.66120  Biso   1.000  O
  O108     1.0000 0.89090  0.33810  0.86240  Biso   1.000  O
  U16      1.0000 0.73852  0.77439  0.14858  Biso   1.000  U
  U17      1.0000 0.23679  0.89134  0.09785  Biso   1.000  U
  U18      1.0000 0.22399  0.55413  0.34540  Biso   1.000  U
  U19      1.0000 0.25430  0.69642  0.45428  Biso   1.000  U
  U20      1.0000 0.27411  0.73805  0.29153  Biso   1.000  U
  S28      1.0000 0.97460  0.78722  0.23292  Biso   1.000  S
  S29      1.0000 0.51410  0.78477  0.23893  Biso   1.000  S
  S30      1.0000 0.45740  0.65976  0.36615  Biso   1.000  S
  S31      1.0000 0.04060  0.67112  0.35903  Biso   1.000  S
  S32      1.0000 0.51360  0.79805  0.08077  Biso   1.000  S
  S33      1.0000 0.01220  0.97369  0.15858  Biso   1.000  S
  S34      1.0000 0.01120  0.81089  0.07469  Biso   1.000  S
  S35      1.0000 0.45750  0.72335  0.52559  Biso   1.000  S
  S36      1.0000 0.47440  0.96828  0.15611  Biso   1.000  S
  O109     1.0000 0.59510  0.75970  0.20540  Biso   1.000  O
  O110     1.0000 0.91680  0.76150  0.19590  Biso   1.000  O
  O111     1.0000 0.09160  0.95680  0.12170  Biso   1.000  O
  O112     1.0000 0.98800  0.86390  0.08500  Biso   1.000  O
  O113     1.0000 0.40370  0.61410  0.34270  Biso   1.000  O
  O114     1.0000 0.49090  0.77870  0.12350  Biso   1.000  O
  O115     1.0000 0.88890  0.67250  0.36340  Biso   1.000  O
  O116     1.0000 0.42110  0.65670  0.40980  Biso   1.000  O
  O117     1.0000 0.08410  0.62610  0.33700  Biso   1.000  O
  O118     1.0000 0.39510  0.70590  0.34840  Biso   1.000  O
  O119     1.0000 0.95860  0.79710  0.03480  Biso   1.000  O
  O120     1.0000 0.67280  0.80260  0.07780  Biso   1.000  O
  O121     1.0000 0.09170  0.71570  0.33550  Biso   1.000  O
  O122     1.0000 0.95220  0.77800  0.10730  Biso   1.000  O
  O123     1.0000 0.30470  0.73520  0.52110  Biso   1.000  O
  O124     1.0000 0.35780  0.78130  0.22910  Biso   1.000  O
  O125     1.0000 0.85830  0.96620  0.15090  Biso   1.000  O
  O126     1.0000 0.55880  0.83700  0.24380  Biso   1.000  O
  O127     1.0000 0.57850  0.00470  0.14060  Biso   1.000  O
  O128     1.0000 0.52640  0.75530  0.27810  Biso   1.000  O
  O129     1.0000 0.16750  0.80580  0.07600  Biso   1.000  O
  O130     1.0000 0.48970  0.69550  0.48790  Biso   1.000  O
  O131     1.0000 0.46180  0.76560  0.04860  Biso   1.000  O
  O132     1.0000 0.07910  0.75120  0.24980  Biso   1.000  O
  O133     1.0000 0.86280  0.79570  0.26250  Biso   1.000  O
  O134     1.0000 0.41210  0.94510  0.11690  Biso   1.000  O
  O135     1.0000 0.11130  0.67080  0.39970  Biso   1.000  O
  O136     1.0000 0.05460  0.94730  0.19530  Biso   1.000  O
  O137     1.0000 0.53610  0.77180  0.52470  Biso   1.000  O
  O138     1.0000 0.44920  0.84900  0.07640  Biso   1.000  O
  O139     1.0000 0.35970  0.99400  0.17810  Biso   1.000  O
  O140     1.0000 0.54490  0.93020  0.17980  Biso   1.000  O
  O141     1.0000 0.49220  0.69520  0.56160  Biso   1.000  O
  O142     1.0000 0.04200  0.83230  0.22110  Biso   1.000  O
  O143     1.0000 0.02730  0.02870  0.16120  Biso   1.000  O
  O144     1.0000 0.60910  0.66190  0.36240  Biso   1.000  O
