data_image0
_cell_length_a       13.462
_cell_length_b       8.767
_cell_length_c       15.125
_cell_angle_alpha    90
_cell_angle_beta     111.93
_cell_angle_gamma    90

_symmetry_space_group_name_H-M    "P 1"
_symmetry_int_tables_number       1

loop_
  _symmetry_equiv_pos_as_xyz
  'x, y, z'

loop_
  _atom_site_label
  _atom_site_occupancy
  _atom_site_fract_x
  _atom_site_fract_y
  _atom_site_fract_z
  _atom_site_thermal_displace_type
  _atom_site_B_iso_or_equiv
  _atom_site_type_symbol
  C1       1.0000 0.16530  0.08150  0.92510  Biso   1.000  C
  C2       1.0000 0.16550  0.40300  0.90960  Biso   1.000  C
  C3       1.0000 0.33740  0.23200  0.92280  Biso   1.000  C
  N1       1.0000 0.11970  0.97550  0.88510  Biso   1.000  N
  N2       1.0000 0.11900  0.49480  0.85520  Biso   1.000  N
  N3       1.0000 0.38670  0.21660  0.87570  Biso   1.000  N
  C4       1.0000 0.66530  0.58150  0.92510  Biso   1.000  C
  C5       1.0000 0.66550  0.90300  0.90960  Biso   1.000  C
  C6       1.0000 0.83740  0.73200  0.92280  Biso   1.000  C
  N4       1.0000 0.61970  0.47550  0.88510  Biso   1.000  N
  N5       1.0000 0.61900  0.99480  0.85520  Biso   1.000  N
  N6       1.0000 0.88670  0.71660  0.87570  Biso   1.000  N
  C7       1.0000 0.83470  0.08150  0.57490  Biso   1.000  C
  C8       1.0000 0.83450  0.40300  0.59040  Biso   1.000  C
  C9       1.0000 0.66260  0.23200  0.57720  Biso   1.000  C
  N7       1.0000 0.88030  0.97550  0.61490  Biso   1.000  N
  N8       1.0000 0.88100  0.49480  0.64480  Biso   1.000  N
  N9       1.0000 0.61330  0.21660  0.62430  Biso   1.000  N
  C10      1.0000 0.33470  0.58150  0.57490  Biso   1.000  C
  C11      1.0000 0.33450  0.90300  0.59040  Biso   1.000  C
  C12      1.0000 0.16260  0.73200  0.57720  Biso   1.000  C
  N10      1.0000 0.38030  0.47550  0.61490  Biso   1.000  N
  N11      1.0000 0.38100  0.99480  0.64480  Biso   1.000  N
  N12      1.0000 0.11330  0.71660  0.62430  Biso   1.000  N
  C13      1.0000 0.83470  0.91850  0.07490  Biso   1.000  C
  C14      1.0000 0.83450  0.59700  0.09040  Biso   1.000  C
  C15      1.0000 0.66260  0.76800  0.07720  Biso   1.000  C
  N13      1.0000 0.88030  0.02450  0.11490  Biso   1.000  N
  N14      1.0000 0.88100  0.50520  0.14480  Biso   1.000  N
  N15      1.0000 0.61330  0.78340  0.12430  Biso   1.000  N
  C16      1.0000 0.33470  0.41850  0.07490  Biso   1.000  C
  C17      1.0000 0.33450  0.09700  0.09040  Biso   1.000  C
  C18      1.0000 0.16260  0.26800  0.07720  Biso   1.000  C
  N16      1.0000 0.38030  0.52450  0.11490  Biso   1.000  N
  N17      1.0000 0.38100  0.00520  0.14480  Biso   1.000  N
  N18      1.0000 0.11330  0.28340  0.12430  Biso   1.000  N
  C19      1.0000 0.16530  0.91850  0.42510  Biso   1.000  C
  C20      1.0000 0.16550  0.59700  0.40960  Biso   1.000  C
  C21      1.0000 0.33740  0.76800  0.42280  Biso   1.000  C
  N19      1.0000 0.11970  0.02450  0.38510  Biso   1.000  N
  N20      1.0000 0.11900  0.50520  0.35520  Biso   1.000  N
  N21      1.0000 0.38670  0.78340  0.37570  Biso   1.000  N
  C22      1.0000 0.66530  0.41850  0.42510  Biso   1.000  C
  C23      1.0000 0.66550  0.09700  0.40960  Biso   1.000  C
  C24      1.0000 0.83740  0.26800  0.42280  Biso   1.000  C
  N22      1.0000 0.61970  0.52450  0.38510  Biso   1.000  N
  N23      1.0000 0.61900  0.00520  0.35520  Biso   1.000  N
  N24      1.0000 0.88670  0.28340  0.37570  Biso   1.000  N
  Fe1      1.0000 0.25000  0.25000  0.00000  Biso   1.000  Fe
  Fe2      1.0000 0.75000  0.25000  0.50000  Biso   1.000  Fe
  Fe3      1.0000 0.75000  0.75000  0.00000  Biso   1.000  Fe
  Fe4      1.0000 0.25000  0.75000  0.50000  Biso   1.000  Fe
  K1       1.0000 0.00000  0.75156  0.75000  Biso   1.000  K
  K2       1.0000 0.50000  0.25156  0.75000  Biso   1.000  K
  K3       1.0000 0.00000  0.24844  0.25000  Biso   1.000  K
  K4       1.0000 0.50000  0.74844  0.25000  Biso   1.000  K
