data_image0
_cell_length_a       21.224
_cell_length_b       21.224
_cell_length_c       7.71
_cell_angle_alpha    90
_cell_angle_beta     90
_cell_angle_gamma    120

_symmetry_space_group_name_H-M    "P 1"
_symmetry_int_tables_number       1

loop_
  _symmetry_equiv_pos_as_xyz
  'x, y, z'

loop_
  _atom_site_label
  _atom_site_occupancy
  _atom_site_fract_x
  _atom_site_fract_y
  _atom_site_fract_z
  _atom_site_thermal_displace_type
  _atom_site_B_iso_or_equiv
  _atom_site_type_symbol
  O1       1.0000 0.09170  0.13150  0.29840  Biso   1.000  O
  O2       1.0000 0.62680  0.42430  0.96380  Biso   1.000  O
  Zn1      1.0000 0.63313  0.36689  0.14908  Biso   1.000  Zn
  Zn2      1.0000 0.03350  0.06697  0.48212  Biso   1.000  Zn
  C1       1.0000 0.65680  0.44730  0.82100  Biso   1.000  C
  C2       1.0000 0.87550  0.88480  0.14350  Biso   1.000  C
  C3       1.0000 0.55240  0.34300  0.47860  Biso   1.000  C
  O3       1.0000 0.93420  0.90650  0.22740  Biso   1.000  O
  C4       1.0000 0.11460  0.12500  0.15270  Biso   1.000  C
  O4       1.0000 0.57490  0.37240  0.33490  Biso   1.000  O
  O5       1.0000 0.57280  0.30550  0.56090  Biso   1.000  O
  O6       1.0000 0.09280  0.06530  0.07130  Biso   1.000  O
  O7       1.0000 0.69440  0.42640  0.73790  Biso   1.000  O
  O8       1.0000 0.86850  0.90850  0.00130  Biso   1.000  O
  C5       1.0000 0.49590  0.35650  0.56600  Biso   1.000  C
  C6       1.0000 0.80670  0.82960  0.23290  Biso   1.000  C
  C7       1.0000 0.64360  0.50350  0.72920  Biso   1.000  C
  C8       1.0000 0.17070  0.19370  0.06340  Biso   1.000  C
  C9       1.0000 0.41930  0.34290  0.81200  Biso   1.000  C
  H1       1.0000 0.40370  0.32640  0.92420  Biso   1.000  H
  C10      1.0000 0.66940  0.52880  0.56600  Biso   1.000  C
  H2       1.0000 0.69520  0.51070  0.50690  Biso   1.000  H
  C11      1.0000 0.19500  0.19340  0.89540  Biso   1.000  C
  H3       1.0000 0.17600  0.14990  0.83400  Biso   1.000  H
  F1       1.0000 0.33540  0.48320  0.01220  Biso   1.000  F
  C12      1.0000 0.74090  0.80170  0.14690  Biso   1.000  C
  H4       1.0000 0.74010  0.81840  0.03580  Biso   1.000  H
  C13      1.0000 0.80740  0.80520  0.40130  Biso   1.000  C
  H5       1.0000 0.85100  0.82400  0.46220  Biso   1.000  H
  C14      1.0000 0.60630  0.53070  0.81850  Biso   1.000  C
  H6       1.0000 0.58970  0.51440  0.93010  Biso   1.000  H
  F2       1.0000 0.26150  0.36650  0.55710  Biso   1.000  F
  C15      1.0000 0.19950  0.25970  0.15150  Biso   1.000  C
  H7       1.0000 0.18390  0.26060  0.26370  Biso   1.000  H
  C16      1.0000 0.47210  0.33100  0.73160  Biso   1.000  C
  H8       1.0000 0.49100  0.30590  0.79030  Biso   1.000  H
  F3       1.0000 0.33130  0.48080  0.61980  Biso   1.000  F
  C17      1.0000 0.67660  0.72350  0.38680  Biso   1.000  C
  C18      1.0000 0.24730  0.25760  0.81960  Biso   1.000  C
  H9       1.0000 0.26360  0.25700  0.70800  Biso   1.000  H
  C19      1.0000 0.65790  0.58120  0.48660  Biso   1.000  C
  H10      1.0000 0.67520  0.59720  0.37510  Biso   1.000  H
  F4       1.0000 0.63340  0.73860  0.74080  Biso   1.000  F
  C20      1.0000 0.27570  0.32320  0.90990  Biso   1.000  C
  C21      1.0000 0.59360  0.58300  0.74210  Biso   1.000  C
  H11      1.0000 0.56720  0.60010  0.80240  Biso   1.000  H
  F5       1.0000 0.40570  0.43910  0.07490  Biso   1.000  F
  C22      1.0000 0.60710  0.66660  0.48380  Biso   1.000  C
  C23      1.0000 0.74200  0.75220  0.47790  Biso   1.000  C
  H12      1.0000 0.74240  0.73620  0.59000  Biso   1.000  H
  C24      1.0000 0.33290  0.39420  0.81370  Biso   1.000  C
  F6       1.0000 0.51710  0.66420  0.28510  Biso   1.000  F
  F7       1.0000 0.51960  0.66920  0.67810  Biso   1.000  F
  C25      1.0000 0.46820  0.39420  0.48020  Biso   1.000  C
  H13      1.0000 0.48500  0.41190  0.36930  Biso   1.000  H
  F8       1.0000 0.56140  0.59480  0.22380  Biso   1.000  F
  C26      1.0000 0.41690  0.40600  0.55380  Biso   1.000  C
  H14      1.0000 0.39910  0.43160  0.49290  Biso   1.000  H
  F9       1.0000 0.43220  0.51360  0.86230  Biso   1.000  F
  C27      1.0000 0.67570  0.74940  0.22140  Biso   1.000  C
  H15      1.0000 0.63210  0.73200  0.16140  Biso   1.000  H
  C28      1.0000 0.54250  0.62360  0.35200  Biso   1.000  C
  F10      1.0000 0.48640  0.56780  0.43630  Biso   1.000  F
  C29      1.0000 0.25040  0.32310  0.07480  Biso   1.000  C
  H16      1.0000 0.26810  0.36670  0.13470  Biso   1.000  H
  F11      1.0000 0.23390  0.41420  0.76770  Biso   1.000  F
  C30      1.0000 0.58570  0.70930  0.61000  Biso   1.000  C
  C31      1.0000 0.39060  0.38010  0.72000  Biso   1.000  C
  C32      1.0000 0.62000  0.61000  0.57640  Biso   1.000  C
  C33      1.0000 0.28890  0.41260  0.68400  Biso   1.000  C
  F12      1.0000 0.58550  0.76620  0.53030  Biso   1.000  F
  C34      1.0000 0.37720  0.45760  0.94600  Biso   1.000  C
  O9       1.0000 0.86850  0.96020  0.63173  Biso   1.000  O
  O10      1.0000 0.57570  0.20250  0.29713  Biso   1.000  O
  Zn3      1.0000 0.63311  0.26624  0.48241  Biso   1.000  Zn
  Zn4      1.0000 0.93303  0.96653  0.81545  Biso   1.000  Zn
  C35      1.0000 0.55270  0.20950  0.15433  Biso   1.000  C
  C36      1.0000 0.11520  0.99070  0.47683  Biso   1.000  C
  C37      1.0000 0.65700  0.20940  0.81193  Biso   1.000  C
  O11      1.0000 0.09350  0.02770  0.56073  Biso   1.000  O
  C38      1.0000 0.87500  0.98960  0.48603  Biso   1.000  C
  O12      1.0000 0.62760  0.20250  0.66823  Biso   1.000  O
  O13      1.0000 0.69450  0.26730  0.89423  Biso   1.000  O
  O14      1.0000 0.93470  0.02750  0.40463  Biso   1.000  O
  O15      1.0000 0.57360  0.26800  0.07123  Biso   1.000  O
  O16      1.0000 0.09150  0.96000  0.33463  Biso   1.000  O
  C39      1.0000 0.64350  0.13940  0.89933  Biso   1.000  C
  C40      1.0000 0.17040  0.97710  0.56623  Biso   1.000  C
  C41      1.0000 0.49650  0.14010  0.06253  Biso   1.000  C
  C42      1.0000 0.80630  0.97700  0.39673  Biso   1.000  C
  C43      1.0000 0.65710  0.07640  0.14533  Biso   1.000  C
  H17      1.0000 0.67360  0.07730  0.25753  Biso   1.000  H
  C44      1.0000 0.47120  0.14060  0.89933  Biso   1.000  C
  H18      1.0000 0.48930  0.18450  0.84023  Biso   1.000  H
  C45      1.0000 0.80660  0.00160  0.22873  Biso   1.000  C
  H19      1.0000 0.85010  0.02610  0.16733  Biso   1.000  H
  F13      1.0000 0.51680  0.85220  0.34553  Biso   1.000  F
  C46      1.0000 0.19830  0.93920  0.48023  Biso   1.000  C
  H20      1.0000 0.18160  0.92170  0.36913  Biso   1.000  H
  C47      1.0000 0.19480  0.00220  0.73463  Biso   1.000  C
  H21      1.0000 0.17600  0.02700  0.79553  Biso   1.000  H
  C48      1.0000 0.46930  0.07560  0.15183  Biso   1.000  C
  H22      1.0000 0.48560  0.07530  0.26343  Biso   1.000  H
  F14      1.0000 0.63350  0.89500  0.89043  Biso   1.000  F
  C49      1.0000 0.74030  0.93980  0.48483  Biso   1.000  C
  H23      1.0000 0.73940  0.92330  0.59703  Biso   1.000  H
  C50      1.0000 0.66900  0.14110  0.06493  Biso   1.000  C
  H24      1.0000 0.69410  0.18510  0.12363  Biso   1.000  H
  F15      1.0000 0.51920  0.85050  0.95313  Biso   1.000  F
  C51      1.0000 0.27650  0.95310  0.72013  Biso   1.000  C
  C52      1.0000 0.74240  0.98970  0.15293  Biso   1.000  C
  H25      1.0000 0.74300  0.00660  0.04133  Biso   1.000  H
  C53      1.0000 0.41880  0.07670  0.81993  Biso   1.000  C
  H26      1.0000 0.40280  0.07800  0.70843  Biso   1.000  H
  F16      1.0000 0.26140  0.89480  0.07413  Biso   1.000  F
  C54      1.0000 0.67680  0.95250  0.24323  Biso   1.000  C
  C55      1.0000 0.41700  0.01060  0.07543  Biso   1.000  C
  H27      1.0000 0.39990  0.96710  0.13573  Biso   1.000  H
  F17      1.0000 0.56090  0.96660  0.40823  Biso   1.000  F
  C56      1.0000 0.33340  0.94050  0.81713  Biso   1.000  C
  C57      1.0000 0.24780  0.98980  0.81123  Biso   1.000  C
  H28      1.0000 0.26380  0.00620  0.92333  Biso   1.000  H
  C58      1.0000 0.60580  0.93870  0.14703  Biso   1.000  C
  F18      1.0000 0.33580  0.85290  0.61843  Biso   1.000  F
  F19      1.0000 0.33080  0.85040  0.01143  Biso   1.000  F
  C59      1.0000 0.60580  0.07400  0.81353  Biso   1.000  C
  H29      1.0000 0.58810  0.07310  0.70263  Biso   1.000  H
  F20      1.0000 0.40520  0.96660  0.55713  Biso   1.000  F
  C60      1.0000 0.59400  0.01090  0.88713  Biso   1.000  C
  H30      1.0000 0.56840  0.96750  0.82623  Biso   1.000  H
  F21      1.0000 0.48640  0.91860  0.19563  Biso   1.000  F
  C61      1.0000 0.25060  0.92630  0.55473  Biso   1.000  C
  H31      1.0000 0.26800  0.90010  0.49473  Biso   1.000  H
  C62      1.0000 0.37640  0.91890  0.68533  Biso   1.000  C
  F22      1.0000 0.43220  0.91860  0.76963  Biso   1.000  F
  C63      1.0000 0.67690  0.92730  0.40813  Biso   1.000  C
  H32      1.0000 0.63330  0.90140  0.46803  Biso   1.000  H
  F23      1.0000 0.58580  0.81970  0.10103  Biso   1.000  F
  C64      1.0000 0.29070  0.87640  0.94333  Biso   1.000  C
  C65      1.0000 0.61990  0.01050  0.05333  Biso   1.000  C
  C66      1.0000 0.39000  0.01000  0.90973  Biso   1.000  C
  C67      1.0000 0.58740  0.87630  0.01733  Biso   1.000  C
  F24      1.0000 0.23380  0.81930  0.86363  Biso   1.000  F
  C68      1.0000 0.54240  0.91960  0.27933  Biso   1.000  C
  O17      1.0000 0.03980  0.90830  0.96507  Biso   1.000  O
  O18      1.0000 0.79750  0.37320  0.63047  Biso   1.000  O
  Zn5      1.0000 0.73376  0.36687  0.81575  Biso   1.000  Zn
  Zn6      1.0000 0.03347  0.96650  0.14879  Biso   1.000  Zn
  C69      1.0000 0.79050  0.34320  0.48767  Biso   1.000  C
  C70      1.0000 0.00930  0.12450  0.81017  Biso   1.000  C
  C71      1.0000 0.79060  0.44760  0.14527  Biso   1.000  C
  O19      1.0000 0.97230  0.06580  0.89407  Biso   1.000  O
  C72      1.0000 0.01040  0.88540  0.81937  Biso   1.000  C
  O20      1.0000 0.79750  0.42510  0.00157  Biso   1.000  O
  O21      1.0000 0.73270  0.42720  0.22757  Biso   1.000  O
  O22      1.0000 0.97250  0.90720  0.73797  Biso   1.000  O
  O23      1.0000 0.73200  0.30560  0.40457  Biso   1.000  O
  O24      1.0000 0.04000  0.13150  0.66797  Biso   1.000  O
  C73      1.0000 0.86060  0.50410  0.23267  Biso   1.000  C
  C74      1.0000 0.02290  0.19330  0.89957  Biso   1.000  C
  C75      1.0000 0.85990  0.35640  0.39587  Biso   1.000  C
  C76      1.0000 0.02300  0.82930  0.73007  Biso   1.000  C
  C77      1.0000 0.92360  0.58070  0.47867  Biso   1.000  C
  H33      1.0000 0.92270  0.59630  0.59087  Biso   1.000  H
  C78      1.0000 0.85940  0.33060  0.23267  Biso   1.000  C
  H34      1.0000 0.81550  0.30480  0.17357  Biso   1.000  H
  C79      1.0000 0.99840  0.80500  0.56207  Biso   1.000  C
  H35      1.0000 0.97390  0.82400  0.50067  Biso   1.000  H
  F25      1.0000 0.14780  0.66460  0.67887  Biso   1.000  F
  C80      1.0000 0.06080  0.25910  0.81357  Biso   1.000  C
  H36      1.0000 0.07830  0.25990  0.70247  Biso   1.000  H
  C81      1.0000 0.99780  0.19260  0.06797  Biso   1.000  C
  H37      1.0000 0.97300  0.14900  0.12887  Biso   1.000  H
  C82      1.0000 0.92440  0.39370  0.48517  Biso   1.000  C
  H38      1.0000 0.92470  0.41030  0.59677  Biso   1.000  H
  F26      1.0000 0.10500  0.73850  0.22377  Biso   1.000  F
  C83      1.0000 0.06020  0.80050  0.81817  Biso   1.000  C
  H39      1.0000 0.07670  0.81610  0.93037  Biso   1.000  H
  C84      1.0000 0.85890  0.52790  0.39827  Biso   1.000  C
  H40      1.0000 0.81490  0.50900  0.45697  Biso   1.000  H
  F27      1.0000 0.14950  0.66870  0.28647  Biso   1.000  F
  C85      1.0000 0.04690  0.32340  0.05347  Biso   1.000  C
  C86      1.0000 0.01030  0.75270  0.48627  Biso   1.000  C
  H41      1.0000 0.99340  0.73640  0.37467  Biso   1.000  H
  C87      1.0000 0.92330  0.34210  0.15327  Biso   1.000  C
  H42      1.0000 0.92200  0.32480  0.04177  Biso   1.000  H
  F28      1.0000 0.10520  0.36660  0.40747  Biso   1.000  F
  C88      1.0000 0.04750  0.72430  0.57657  Biso   1.000  C
  C89      1.0000 0.98940  0.40640  0.40877  Biso   1.000  C
  H43      1.0000 0.03290  0.43280  0.46907  Biso   1.000  H
  F29      1.0000 0.03340  0.59430  0.74157  Biso   1.000  F
  C90      1.0000 0.05950  0.39290  0.15047  Biso   1.000  C
  C91      1.0000 0.01020  0.25800  0.14457  Biso   1.000  C
  H44      1.0000 0.99380  0.25760  0.25667  Biso   1.000  H
  C92      1.0000 0.06130  0.66710  0.48037  Biso   1.000  C
  F30      1.0000 0.14710  0.48290  0.95177  Biso   1.000  F
  F31      1.0000 0.14960  0.48040  0.34477  Biso   1.000  F
  C93      1.0000 0.92600  0.53180  0.14687  Biso   1.000  C
  H45      1.0000 0.92690  0.51500  0.03597  Biso   1.000  H
  F32      1.0000 0.03340  0.43860  0.89047  Biso   1.000  F
  C94      1.0000 0.98910  0.58310  0.22047  Biso   1.000  C
  H46      1.0000 0.03250  0.60090  0.15957  Biso   1.000  H
  F33      1.0000 0.08140  0.56780  0.52897  Biso   1.000  F
  C95      1.0000 0.07370  0.32430  0.88807  Biso   1.000  C
  H47      1.0000 0.09990  0.36790  0.82807  Biso   1.000  H
  C96      1.0000 0.08110  0.45750  0.01867  Biso   1.000  C
  F34      1.0000 0.08140  0.51360  0.10297  Biso   1.000  F
  C97      1.0000 0.07270  0.74960  0.74147  Biso   1.000  C
  H48      1.0000 0.09860  0.73190  0.80137  Biso   1.000  H
  F35      1.0000 0.18030  0.76610  0.43437  Biso   1.000  F
  C98      1.0000 0.12360  0.41430  0.27667  Biso   1.000  C
  C99      1.0000 0.98950  0.60940  0.38667  Biso   1.000  C
  C100     1.0000 0.99000  0.38000  0.24307  Biso   1.000  C
  C101     1.0000 0.12370  0.71110  0.35067  Biso   1.000  C
  F36      1.0000 0.18070  0.41450  0.19697  Biso   1.000  F
  C102     1.0000 0.08040  0.62280  0.61267  Biso   1.000  C
