data_image0
_cell_length_a       11.47
_cell_length_b       7.782
_cell_length_c       6.945
_cell_angle_alpha    90
_cell_angle_beta     105.29
_cell_angle_gamma    90

_symmetry_space_group_name_H-M    "P 1"
_symmetry_int_tables_number       1

loop_
  _symmetry_equiv_pos_as_xyz
  'x, y, z'

loop_
  _atom_site_label
  _atom_site_occupancy
  _atom_site_fract_x
  _atom_site_fract_y
  _atom_site_fract_z
  _atom_site_thermal_displace_type
  _atom_site_B_iso_or_equiv
  _atom_site_type_symbol
  N1       1.0000 0.94420  0.21990  0.19070  Biso   1.000  N
  C1       1.0000 0.96350  0.32900  0.30710  Biso   1.000  C
  N2       1.0000 0.05580  0.21990  0.80930  Biso   1.000  N
  C2       1.0000 0.03650  0.32900  0.69290  Biso   1.000  C
  N3       1.0000 0.05580  0.78010  0.80930  Biso   1.000  N
  C3       1.0000 0.03650  0.67100  0.69290  Biso   1.000  C
  N4       1.0000 0.94420  0.78010  0.19070  Biso   1.000  N
  C4       1.0000 0.96350  0.67100  0.30710  Biso   1.000  C
  Cd1      1.0000 0.00000  0.00000  0.00000  Biso   1.000  Cd
  Ni1      1.0000 0.00000  0.50000  0.50000  Biso   1.000  Ni
  N5       1.0000 0.19010  0.00000  0.21480  Biso   1.000  N
  C5       1.0000 0.20780  0.00000  0.43190  Biso   1.000  C
  C6       1.0000 0.33780  0.00000  0.54990  Biso   1.000  C
  C7       1.0000 0.35670  0.00000  0.77410  Biso   1.000  C
  C8       1.0000 0.48780  0.00000  0.88930  Biso   1.000  C
  N6       1.0000 0.80990  0.00000  0.78520  Biso   1.000  N
  C9       1.0000 0.79220  0.00000  0.56810  Biso   1.000  C
  C10      1.0000 0.66220  0.00000  0.45010  Biso   1.000  C
  C11      1.0000 0.64330  0.00000  0.22590  Biso   1.000  C
  C12      1.0000 0.51220  0.00000  0.11070  Biso   1.000  C
