data_image0
_cell_length_a       30.554
_cell_length_b       16.306
_cell_length_c       21.656
_cell_angle_alpha    90
_cell_angle_beta     134.437
_cell_angle_gamma    90

_symmetry_space_group_name_H-M    "P 1"
_symmetry_int_tables_number       1

loop_
  _symmetry_equiv_pos_as_xyz
  'x, y, z'

loop_
  _atom_site_label
  _atom_site_occupancy
  _atom_site_fract_x
  _atom_site_fract_y
  _atom_site_fract_z
  _atom_site_thermal_displace_type
  _atom_site_B_iso_or_equiv
  _atom_site_type_symbol
  Gd1      1.0000 0.82557  0.13065  0.95500  Biso   1.000  Gd
  Gd2      1.0000 0.60982  0.38048  0.69690  Biso   1.000  Gd
  O1       1.0000 0.74660  0.22990  0.85190  Biso   1.000  O
  O2       1.0000 0.71760  0.34980  0.78640  Biso   1.000  O
  O3       1.0000 0.93230  0.14210  0.04060  Biso   1.000  O
  O4       1.0000 0.01670  0.19900  0.08760  Biso   1.000  O
  O5       1.0000 0.86690  0.98710  0.85980  Biso   1.000  O
  O6       1.0000 0.82050  0.10010  0.84430  Biso   1.000  O
  O7       1.0000 0.85340  0.87400  0.66300  Biso   1.000  O
  O8       1.0000 0.81380  0.93900  0.53800  Biso   1.000  O
  N1       1.0000 0.86170  0.25850  0.93730  Biso   1.000  N
  C1       1.0000 0.82120  0.31850  0.88210  Biso   1.000  C
  C2       1.0000 0.84090  0.38690  0.87180  Biso   1.000  C
  H1       1.0000 0.81260  0.42880  0.83310  Biso   1.000  H
  C3       1.0000 0.90120  0.39530  0.91670  Biso   1.000  C
  H2       1.0000 0.91500  0.44310  0.90950  Biso   1.000  H
  C4       1.0000 0.94170  0.33530  0.97200  Biso   1.000  C
  H3       1.0000 0.98380  0.34110  0.00340  Biso   1.000  H
  C5       1.0000 0.92190  0.26690  0.98230  Biso   1.000  C
  C6       1.0000 0.75800  0.29810  0.83760  Biso   1.000  C
  C7       1.0000 0.96030  0.19900  0.04100  Biso   1.000  C
  N2       1.0000 0.83110  0.00570  0.70880  Biso   1.000  N
  C8       1.0000 0.81640  0.06540  0.73530  Biso   1.000  C
  C9       1.0000 0.78190  0.13050  0.68300  Biso   1.000  C
  H4       1.0000 0.77160  0.17230  0.70160  Biso   1.000  H
  C10      1.0000 0.76230  0.13580  0.60420  Biso   1.000  C
  H5       1.0000 0.73820  0.18130  0.56760  Biso   1.000  H
  C11      1.0000 0.77700  0.07610  0.57760  Biso   1.000  C
  H6       1.0000 0.76330  0.07980  0.52250  Biso   1.000  H
  C12      1.0000 0.81150  0.01100  0.62990  Biso   1.000  C
  C13      1.0000 0.83600  0.05000  0.81800  Biso   1.000  C
  C14      1.0000 0.82800  0.93900  0.61000  Biso   1.000  C
  Gd3      1.0000 0.32557  0.63065  0.95500  Biso   1.000  Gd
  Gd4      1.0000 0.10982  0.88048  0.69690  Biso   1.000  Gd
  O9       1.0000 0.24660  0.72990  0.85190  Biso   1.000  O
  O10      1.0000 0.21760  0.84980  0.78640  Biso   1.000  O
  O11      1.0000 0.43230  0.64210  0.04060  Biso   1.000  O
  O12      1.0000 0.51670  0.69900  0.08760  Biso   1.000  O
  O13      1.0000 0.36690  0.48710  0.85980  Biso   1.000  O
  O14      1.0000 0.32050  0.60010  0.84430  Biso   1.000  O
  O15      1.0000 0.35340  0.37400  0.66300  Biso   1.000  O
  O16      1.0000 0.31380  0.43900  0.53800  Biso   1.000  O
  N3       1.0000 0.36170  0.75850  0.93730  Biso   1.000  N
  C15      1.0000 0.32120  0.81850  0.88210  Biso   1.000  C
  C16      1.0000 0.34090  0.88690  0.87180  Biso   1.000  C
  H7       1.0000 0.31260  0.92880  0.83310  Biso   1.000  H
  C17      1.0000 0.40120  0.89530  0.91670  Biso   1.000  C
  H8       1.0000 0.41500  0.94310  0.90950  Biso   1.000  H
  C18      1.0000 0.44170  0.83530  0.97200  Biso   1.000  C
  H9       1.0000 0.48380  0.84110  0.00340  Biso   1.000  H
  C19      1.0000 0.42190  0.76690  0.98230  Biso   1.000  C
  C20      1.0000 0.25800  0.79810  0.83760  Biso   1.000  C
  C21      1.0000 0.46030  0.69900  0.04100  Biso   1.000  C
  N4       1.0000 0.33110  0.50570  0.70880  Biso   1.000  N
  C22      1.0000 0.31640  0.56540  0.73530  Biso   1.000  C
  C23      1.0000 0.28190  0.63050  0.68300  Biso   1.000  C
  H10      1.0000 0.27160  0.67230  0.70160  Biso   1.000  H
  C24      1.0000 0.26230  0.63580  0.60420  Biso   1.000  C
  H11      1.0000 0.23820  0.68130  0.56760  Biso   1.000  H
  C25      1.0000 0.27700  0.57610  0.57760  Biso   1.000  C
  H12      1.0000 0.26330  0.57980  0.52250  Biso   1.000  H
  C26      1.0000 0.31150  0.51100  0.62990  Biso   1.000  C
  C27      1.0000 0.33600  0.55000  0.81800  Biso   1.000  C
  C28      1.0000 0.32800  0.43900  0.61000  Biso   1.000  C
  Gd5      1.0000 0.17443  0.13065  0.54500  Biso   1.000  Gd
  Gd6      1.0000 0.39018  0.38048  0.80310  Biso   1.000  Gd
  O17      1.0000 0.25340  0.22990  0.64810  Biso   1.000  O
  O18      1.0000 0.28240  0.34980  0.71360  Biso   1.000  O
  O19      1.0000 0.06770  0.14210  0.45940  Biso   1.000  O
  O20      1.0000 0.98330  0.19900  0.41240  Biso   1.000  O
  O21      1.0000 0.13310  0.98710  0.64020  Biso   1.000  O
  O22      1.0000 0.17950  0.10010  0.65570  Biso   1.000  O
  O23      1.0000 0.14660  0.87400  0.83700  Biso   1.000  O
  O24      1.0000 0.18620  0.93900  0.96200  Biso   1.000  O
  N5       1.0000 0.13830  0.25850  0.56270  Biso   1.000  N
  C29      1.0000 0.17880  0.31850  0.61790  Biso   1.000  C
  C30      1.0000 0.15910  0.38690  0.62820  Biso   1.000  C
  H13      1.0000 0.18740  0.42880  0.66690  Biso   1.000  H
  C31      1.0000 0.09880  0.39530  0.58330  Biso   1.000  C
  H14      1.0000 0.08500  0.44310  0.59050  Biso   1.000  H
  C32      1.0000 0.05830  0.33530  0.52800  Biso   1.000  C
  H15      1.0000 0.01620  0.34110  0.49660  Biso   1.000  H
  C33      1.0000 0.07810  0.26690  0.51770  Biso   1.000  C
  C34      1.0000 0.24200  0.29810  0.66240  Biso   1.000  C
  C35      1.0000 0.03970  0.19900  0.45900  Biso   1.000  C
  N6       1.0000 0.16890  0.00570  0.79120  Biso   1.000  N
  C36      1.0000 0.18360  0.06540  0.76470  Biso   1.000  C
  C37      1.0000 0.21810  0.13050  0.81700  Biso   1.000  C
  H16      1.0000 0.22840  0.17230  0.79840  Biso   1.000  H
  C38      1.0000 0.23770  0.13580  0.89580  Biso   1.000  C
  H17      1.0000 0.26180  0.18130  0.93240  Biso   1.000  H
  C39      1.0000 0.22300  0.07610  0.92240  Biso   1.000  C
  H18      1.0000 0.23670  0.07980  0.97750  Biso   1.000  H
  C40      1.0000 0.18850  0.01100  0.87010  Biso   1.000  C
  C41      1.0000 0.16400  0.05000  0.68200  Biso   1.000  C
  C42      1.0000 0.17200  0.93900  0.89000  Biso   1.000  C
  Gd7      1.0000 0.67443  0.63065  0.54500  Biso   1.000  Gd
  Gd8      1.0000 0.89018  0.88048  0.80310  Biso   1.000  Gd
  O25      1.0000 0.75340  0.72990  0.64810  Biso   1.000  O
  O26      1.0000 0.78240  0.84980  0.71360  Biso   1.000  O
  O27      1.0000 0.56770  0.64210  0.45940  Biso   1.000  O
  O28      1.0000 0.48330  0.69900  0.41240  Biso   1.000  O
  O29      1.0000 0.63310  0.48710  0.64020  Biso   1.000  O
  O30      1.0000 0.67950  0.60010  0.65570  Biso   1.000  O
  O31      1.0000 0.64660  0.37400  0.83700  Biso   1.000  O
  O32      1.0000 0.68620  0.43900  0.96200  Biso   1.000  O
  N7       1.0000 0.63830  0.75850  0.56270  Biso   1.000  N
  C43      1.0000 0.67880  0.81850  0.61790  Biso   1.000  C
  C44      1.0000 0.65910  0.88690  0.62820  Biso   1.000  C
  H19      1.0000 0.68740  0.92880  0.66690  Biso   1.000  H
  C45      1.0000 0.59880  0.89530  0.58330  Biso   1.000  C
  H20      1.0000 0.58500  0.94310  0.59050  Biso   1.000  H
  C46      1.0000 0.55830  0.83530  0.52800  Biso   1.000  C
  H21      1.0000 0.51620  0.84110  0.49660  Biso   1.000  H
  C47      1.0000 0.57810  0.76690  0.51770  Biso   1.000  C
  C48      1.0000 0.74200  0.79810  0.66240  Biso   1.000  C
  C49      1.0000 0.53970  0.69900  0.45900  Biso   1.000  C
  N8       1.0000 0.66890  0.50570  0.79120  Biso   1.000  N
  C50      1.0000 0.68360  0.56540  0.76470  Biso   1.000  C
  C51      1.0000 0.71810  0.63050  0.81700  Biso   1.000  C
  H22      1.0000 0.72840  0.67230  0.79840  Biso   1.000  H
  C52      1.0000 0.73770  0.63580  0.89580  Biso   1.000  C
  H23      1.0000 0.76180  0.68130  0.93240  Biso   1.000  H
  C53      1.0000 0.72300  0.57610  0.92240  Biso   1.000  C
  H24      1.0000 0.73670  0.57980  0.97750  Biso   1.000  H
  C54      1.0000 0.68850  0.51100  0.87010  Biso   1.000  C
  C55      1.0000 0.66400  0.55000  0.68200  Biso   1.000  C
  C56      1.0000 0.67200  0.43900  0.89000  Biso   1.000  C
  Gd9      1.0000 0.17443  0.86935  0.04500  Biso   1.000  Gd
  Gd10     1.0000 0.39018  0.61952  0.30310  Biso   1.000  Gd
  O33      1.0000 0.25340  0.77010  0.14810  Biso   1.000  O
  O34      1.0000 0.28240  0.65020  0.21360  Biso   1.000  O
  O35      1.0000 0.06770  0.85790  0.95940  Biso   1.000  O
  O36      1.0000 0.98330  0.80100  0.91240  Biso   1.000  O
  O37      1.0000 0.13310  0.01290  0.14020  Biso   1.000  O
  O38      1.0000 0.17950  0.89990  0.15570  Biso   1.000  O
  O39      1.0000 0.14660  0.12600  0.33700  Biso   1.000  O
  O40      1.0000 0.18620  0.06100  0.46200  Biso   1.000  O
  N9       1.0000 0.13830  0.74150  0.06270  Biso   1.000  N
  C57      1.0000 0.17880  0.68150  0.11790  Biso   1.000  C
  C58      1.0000 0.15910  0.61310  0.12820  Biso   1.000  C
  H25      1.0000 0.18740  0.57120  0.16690  Biso   1.000  H
  C59      1.0000 0.09880  0.60470  0.08330  Biso   1.000  C
  H26      1.0000 0.08500  0.55690  0.09050  Biso   1.000  H
  C60      1.0000 0.05830  0.66470  0.02800  Biso   1.000  C
  H27      1.0000 0.01620  0.65890  0.99660  Biso   1.000  H
  C61      1.0000 0.07810  0.73310  0.01770  Biso   1.000  C
  C62      1.0000 0.24200  0.70190  0.16240  Biso   1.000  C
  C63      1.0000 0.03970  0.80100  0.95900  Biso   1.000  C
  N10      1.0000 0.16890  0.99430  0.29120  Biso   1.000  N
  C64      1.0000 0.18360  0.93460  0.26470  Biso   1.000  C
  C65      1.0000 0.21810  0.86950  0.31700  Biso   1.000  C
  H28      1.0000 0.22840  0.82770  0.29840  Biso   1.000  H
  C66      1.0000 0.23770  0.86420  0.39580  Biso   1.000  C
  H29      1.0000 0.26180  0.81870  0.43240  Biso   1.000  H
  C67      1.0000 0.22300  0.92390  0.42240  Biso   1.000  C
  H30      1.0000 0.23670  0.92020  0.47750  Biso   1.000  H
  C68      1.0000 0.18850  0.98900  0.37010  Biso   1.000  C
  C69      1.0000 0.16400  0.95000  0.18200  Biso   1.000  C
  C70      1.0000 0.17200  0.06100  0.39000  Biso   1.000  C
  Gd11     1.0000 0.67443  0.36935  0.04500  Biso   1.000  Gd
  Gd12     1.0000 0.89018  0.11952  0.30310  Biso   1.000  Gd
  O41      1.0000 0.75340  0.27010  0.14810  Biso   1.000  O
  O42      1.0000 0.78240  0.15020  0.21360  Biso   1.000  O
  O43      1.0000 0.56770  0.35790  0.95940  Biso   1.000  O
  O44      1.0000 0.48330  0.30100  0.91240  Biso   1.000  O
  O45      1.0000 0.63310  0.51290  0.14020  Biso   1.000  O
  O46      1.0000 0.67950  0.39990  0.15570  Biso   1.000  O
  O47      1.0000 0.64660  0.62600  0.33700  Biso   1.000  O
  O48      1.0000 0.68620  0.56100  0.46200  Biso   1.000  O
  N11      1.0000 0.63830  0.24150  0.06270  Biso   1.000  N
  C71      1.0000 0.67880  0.18150  0.11790  Biso   1.000  C
  C72      1.0000 0.65910  0.11310  0.12820  Biso   1.000  C
  H31      1.0000 0.68740  0.07120  0.16690  Biso   1.000  H
  C73      1.0000 0.59880  0.10470  0.08330  Biso   1.000  C
  H32      1.0000 0.58500  0.05690  0.09050  Biso   1.000  H
  C74      1.0000 0.55830  0.16470  0.02800  Biso   1.000  C
  H33      1.0000 0.51620  0.15890  0.99660  Biso   1.000  H
  C75      1.0000 0.57810  0.23310  0.01770  Biso   1.000  C
  C76      1.0000 0.74200  0.20190  0.16240  Biso   1.000  C
  C77      1.0000 0.53970  0.30100  0.95900  Biso   1.000  C
  N12      1.0000 0.66890  0.49430  0.29120  Biso   1.000  N
  C78      1.0000 0.68360  0.43460  0.26470  Biso   1.000  C
  C79      1.0000 0.71810  0.36950  0.31700  Biso   1.000  C
  H34      1.0000 0.72840  0.32770  0.29840  Biso   1.000  H
  C80      1.0000 0.73770  0.36420  0.39580  Biso   1.000  C
  H35      1.0000 0.76180  0.31870  0.43240  Biso   1.000  H
  C81      1.0000 0.72300  0.42390  0.42240  Biso   1.000  C
  H36      1.0000 0.73670  0.42020  0.47750  Biso   1.000  H
  C82      1.0000 0.68850  0.48900  0.37010  Biso   1.000  C
  C83      1.0000 0.66400  0.45000  0.18200  Biso   1.000  C
  C84      1.0000 0.67200  0.56100  0.39000  Biso   1.000  C
  Gd13     1.0000 0.82557  0.86935  0.45500  Biso   1.000  Gd
  Gd14     1.0000 0.60982  0.61952  0.19690  Biso   1.000  Gd
  O49      1.0000 0.74660  0.77010  0.35190  Biso   1.000  O
  O50      1.0000 0.71760  0.65020  0.28640  Biso   1.000  O
  O51      1.0000 0.93230  0.85790  0.54060  Biso   1.000  O
  O52      1.0000 0.01670  0.80100  0.58760  Biso   1.000  O
  O53      1.0000 0.86690  0.01290  0.35980  Biso   1.000  O
  O54      1.0000 0.82050  0.89990  0.34430  Biso   1.000  O
  O55      1.0000 0.85340  0.12600  0.16300  Biso   1.000  O
  O56      1.0000 0.81380  0.06100  0.03800  Biso   1.000  O
  N13      1.0000 0.86170  0.74150  0.43730  Biso   1.000  N
  C85      1.0000 0.82120  0.68150  0.38210  Biso   1.000  C
  C86      1.0000 0.84090  0.61310  0.37180  Biso   1.000  C
  H37      1.0000 0.81260  0.57120  0.33310  Biso   1.000  H
  C87      1.0000 0.90120  0.60470  0.41670  Biso   1.000  C
  H38      1.0000 0.91500  0.55690  0.40950  Biso   1.000  H
  C88      1.0000 0.94170  0.66470  0.47200  Biso   1.000  C
  H39      1.0000 0.98380  0.65890  0.50340  Biso   1.000  H
  C89      1.0000 0.92190  0.73310  0.48230  Biso   1.000  C
  C90      1.0000 0.75800  0.70190  0.33760  Biso   1.000  C
  C91      1.0000 0.96030  0.80100  0.54100  Biso   1.000  C
  N14      1.0000 0.83110  0.99430  0.20880  Biso   1.000  N
  C92      1.0000 0.81640  0.93460  0.23530  Biso   1.000  C
  C93      1.0000 0.78190  0.86950  0.18300  Biso   1.000  C
  H40      1.0000 0.77160  0.82770  0.20160  Biso   1.000  H
  C94      1.0000 0.76230  0.86420  0.10420  Biso   1.000  C
  H41      1.0000 0.73820  0.81870  0.06760  Biso   1.000  H
  C95      1.0000 0.77700  0.92390  0.07760  Biso   1.000  C
  H42      1.0000 0.76330  0.92020  0.02250  Biso   1.000  H
  C96      1.0000 0.81150  0.98900  0.12990  Biso   1.000  C
  C97      1.0000 0.83600  0.95000  0.31800  Biso   1.000  C
  C98      1.0000 0.82800  0.06100  0.11000  Biso   1.000  C
  Gd15     1.0000 0.32557  0.36935  0.45500  Biso   1.000  Gd
  Gd16     1.0000 0.10982  0.11952  0.19690  Biso   1.000  Gd
  O57      1.0000 0.24660  0.27010  0.35190  Biso   1.000  O
  O58      1.0000 0.21760  0.15020  0.28640  Biso   1.000  O
  O59      1.0000 0.43230  0.35790  0.54060  Biso   1.000  O
  O60      1.0000 0.51670  0.30100  0.58760  Biso   1.000  O
  O61      1.0000 0.36690  0.51290  0.35980  Biso   1.000  O
  O62      1.0000 0.32050  0.39990  0.34430  Biso   1.000  O
  O63      1.0000 0.35340  0.62600  0.16300  Biso   1.000  O
  O64      1.0000 0.31380  0.56100  0.03800  Biso   1.000  O
  N15      1.0000 0.36170  0.24150  0.43730  Biso   1.000  N
  C99      1.0000 0.32120  0.18150  0.38210  Biso   1.000  C
  C100     1.0000 0.34090  0.11310  0.37180  Biso   1.000  C
  H43      1.0000 0.31260  0.07120  0.33310  Biso   1.000  H
  C101     1.0000 0.40120  0.10470  0.41670  Biso   1.000  C
  H44      1.0000 0.41500  0.05690  0.40950  Biso   1.000  H
  C102     1.0000 0.44170  0.16470  0.47200  Biso   1.000  C
  H45      1.0000 0.48380  0.15890  0.50340  Biso   1.000  H
  C103     1.0000 0.42190  0.23310  0.48230  Biso   1.000  C
  C104     1.0000 0.25800  0.20190  0.33760  Biso   1.000  C
  C105     1.0000 0.46030  0.30100  0.54100  Biso   1.000  C
  N16      1.0000 0.33110  0.49430  0.20880  Biso   1.000  N
  C106     1.0000 0.31640  0.43460  0.23530  Biso   1.000  C
  C107     1.0000 0.28190  0.36950  0.18300  Biso   1.000  C
  H46      1.0000 0.27160  0.32770  0.20160  Biso   1.000  H
  C108     1.0000 0.26230  0.36420  0.10420  Biso   1.000  C
  H47      1.0000 0.23820  0.31870  0.06760  Biso   1.000  H
  C109     1.0000 0.27700  0.42390  0.07760  Biso   1.000  C
  H48      1.0000 0.26330  0.42020  0.02250  Biso   1.000  H
  C110     1.0000 0.31150  0.48900  0.12990  Biso   1.000  C
  C111     1.0000 0.33600  0.45000  0.31800  Biso   1.000  C
  C112     1.0000 0.32800  0.56100  0.11000  Biso   1.000  C
