data_image0
_cell_length_a       8.014
_cell_length_b       9.74
_cell_length_c       7.744
_cell_angle_alpha    102.32
_cell_angle_beta     93.38
_cell_angle_gamma    75.9

_symmetry_space_group_name_H-M    "P 1"
_symmetry_int_tables_number       1

loop_
  _symmetry_equiv_pos_as_xyz
  'x, y, z'

loop_
  _atom_site_label
  _atom_site_occupancy
  _atom_site_fract_x
  _atom_site_fract_y
  _atom_site_fract_z
  _atom_site_thermal_displace_type
  _atom_site_B_iso_or_equiv
  _atom_site_type_symbol
  Mn1      1.0000 0.03196  0.25126  0.15892  Biso   1.000  Mn
  Mn2      1.0000 0.30922  0.11955  0.81271  Biso   1.000  Mn
  P1       1.0000 0.73268  0.08984  0.92682  Biso   1.000  P
  O1       1.0000 0.15950  0.33910  0.97170  Biso   1.000  O
  O2       1.0000 0.80610  0.21060  0.03750  Biso   1.000  O
  O3       1.0000 0.10600  0.51440  0.81650  Biso   1.000  O
  O4       1.0000 0.94540  0.21990  0.41040  Biso   1.000  O
  O5       1.0000 0.24030  0.28300  0.34660  Biso   1.000  O
  O6       1.0000 0.80470  0.94590  0.98480  Biso   1.000  O
  O7       1.0000 0.06050  0.15370  0.65930  Biso   1.000  O
  O8       1.0000 0.36010  0.20710  0.58670  Biso   1.000  O
  O9       1.0000 0.53940  0.13350  0.93020  Biso   1.000  O
  O10      1.0000 0.78830  0.06670  0.72750  Biso   1.000  O
  C1       1.0000 0.06530  0.19920  0.52040  Biso   1.000  C
  C2       1.0000 0.23710  0.23330  0.48170  Biso   1.000  C
  C3       1.0000 0.07660  0.45820  0.93750  Biso   1.000  C
  Mn3      1.0000 0.96804  0.74874  0.84108  Biso   1.000  Mn
  Mn4      1.0000 0.69078  0.88045  0.18729  Biso   1.000  Mn
  P2       1.0000 0.26732  0.91016  0.07318  Biso   1.000  P
  O11      1.0000 0.84050  0.66090  0.02830  Biso   1.000  O
  O12      1.0000 0.19390  0.78940  0.96250  Biso   1.000  O
  O13      1.0000 0.89400  0.48560  0.18350  Biso   1.000  O
  O14      1.0000 0.05460  0.78010  0.58960  Biso   1.000  O
  O15      1.0000 0.75970  0.71700  0.65340  Biso   1.000  O
  O16      1.0000 0.19530  0.05410  0.01520  Biso   1.000  O
  O17      1.0000 0.93950  0.84630  0.34070  Biso   1.000  O
  O18      1.0000 0.63990  0.79290  0.41330  Biso   1.000  O
  O19      1.0000 0.46060  0.86650  0.06980  Biso   1.000  O
  O20      1.0000 0.21170  0.93330  0.27250  Biso   1.000  O
  C4       1.0000 0.93470  0.80080  0.47960  Biso   1.000  C
  C5       1.0000 0.76290  0.76670  0.51830  Biso   1.000  C
  C6       1.0000 0.92340  0.54180  0.06250  Biso   1.000  C
