data_image0
_cell_length_a       30.418
_cell_length_b       16.302
_cell_length_c       21.78
_cell_angle_alpha    90
_cell_angle_beta     133.826
_cell_angle_gamma    90

_symmetry_space_group_name_H-M    "P 1"
_symmetry_int_tables_number       1

loop_
  _symmetry_equiv_pos_as_xyz
  'x, y, z'

loop_
  _atom_site_label
  _atom_site_occupancy
  _atom_site_fract_x
  _atom_site_fract_y
  _atom_site_fract_z
  _atom_site_thermal_displace_type
  _atom_site_B_iso_or_equiv
  _atom_site_type_symbol
  O1       1.0000 0.17610  0.45380  0.91000  Biso   1.000  O
  O2       1.0000 0.22810  0.35070  0.15710  Biso   1.000  O
  C1       1.0000 0.16530  0.44900  0.95560  Biso   1.000  C
  Dy1      1.0000 0.12092  0.38037  0.04512  Biso   1.000  Dy
  Dy2      1.0000 0.16001  0.37130  0.80124  Biso   1.000  Dy
  O3       1.0000 0.44440  0.12160  0.34810  Biso   1.000  O
  O4       1.0000 0.18340  0.59880  0.21800  Biso   1.000  O
  C2       1.0000 0.17030  0.54490  0.16370  Biso   1.000  C
  O5       1.0000 0.13790  0.39070  0.95560  Biso   1.000  O
  O6       1.0000 0.25980  0.23370  0.14580  Biso   1.000  O
  O7       1.0000 0.14320  0.47760  0.14760  Biso   1.000  O
  N1       1.0000 0.17430  0.50830  0.06350  Biso   1.000  N
  N2       1.0000 0.37310  0.25290  0.29200  Biso   1.000  N
  C3       1.0000 0.21940  0.63590  0.13040  Biso   1.000  C
  H1       1.0000 0.23010  0.67480  0.17010  Biso   1.000  H
  C4       1.0000 0.18810  0.56460  0.11700  Biso   1.000  C
  O8       1.0000 0.52600  0.19310  0.45410  Biso   1.000  O
  C5       1.0000 0.45090  0.32300  0.42400  Biso   1.000  C
  H2       1.0000 0.49080  0.32500  0.47680  Biso   1.000  H
  C6       1.0000 0.35010  0.38010  0.31750  Biso   1.000  C
  H3       1.0000 0.32240  0.42190  0.29880  Biso   1.000  H
  C7       1.0000 0.18830  0.51950  0.01850  Biso   1.000  C
  C8       1.0000 0.33310  0.31390  0.26730  Biso   1.000  C
  C9       1.0000 0.26800  0.29900  0.18190  Biso   1.000  C
  C10      1.0000 0.23420  0.64770  0.08340  Biso   1.000  C
  H4       1.0000 0.25320  0.69570  0.08910  Biso   1.000  H
  C11      1.0000 0.41000  0.38450  0.39810  Biso   1.000  C
  H5       1.0000 0.42200  0.42870  0.43380  Biso   1.000  H
  C12      1.0000 0.22020  0.58680  0.02820  Biso   1.000  C
  H6       1.0000 0.23180  0.59090  0.99860  Biso   1.000  H
  C13      1.0000 0.43050  0.25840  0.36870  Biso   1.000  C
  C14      1.0000 0.47150  0.18620  0.39460  Biso   1.000  C
  O9       1.0000 0.67610  0.95380  0.91000  Biso   1.000  O
  O10      1.0000 0.72810  0.85070  0.15710  Biso   1.000  O
  C15      1.0000 0.66530  0.94900  0.95560  Biso   1.000  C
  Dy3      1.0000 0.62092  0.88037  0.04512  Biso   1.000  Dy
  Dy4      1.0000 0.66001  0.87130  0.80124  Biso   1.000  Dy
  O11      1.0000 0.94440  0.62160  0.34810  Biso   1.000  O
  O12      1.0000 0.68340  0.09880  0.21800  Biso   1.000  O
  C16      1.0000 0.67030  0.04490  0.16370  Biso   1.000  C
  O13      1.0000 0.63790  0.89070  0.95560  Biso   1.000  O
  O14      1.0000 0.75980  0.73370  0.14580  Biso   1.000  O
  O15      1.0000 0.64320  0.97760  0.14760  Biso   1.000  O
  N3       1.0000 0.67430  0.00830  0.06350  Biso   1.000  N
  N4       1.0000 0.87310  0.75290  0.29200  Biso   1.000  N
  C17      1.0000 0.71940  0.13590  0.13040  Biso   1.000  C
  H7       1.0000 0.73010  0.17480  0.17010  Biso   1.000  H
  C18      1.0000 0.68810  0.06460  0.11700  Biso   1.000  C
  O16      1.0000 0.02600  0.69310  0.45410  Biso   1.000  O
  C19      1.0000 0.95090  0.82300  0.42400  Biso   1.000  C
  H8       1.0000 0.99080  0.82500  0.47680  Biso   1.000  H
  C20      1.0000 0.85010  0.88010  0.31750  Biso   1.000  C
  H9       1.0000 0.82240  0.92190  0.29880  Biso   1.000  H
  C21      1.0000 0.68830  0.01950  0.01850  Biso   1.000  C
  C22      1.0000 0.83310  0.81390  0.26730  Biso   1.000  C
  C23      1.0000 0.76800  0.79900  0.18190  Biso   1.000  C
  C24      1.0000 0.73420  0.14770  0.08340  Biso   1.000  C
  H10      1.0000 0.75320  0.19570  0.08910  Biso   1.000  H
  C25      1.0000 0.91000  0.88450  0.39810  Biso   1.000  C
  H11      1.0000 0.92200  0.92870  0.43380  Biso   1.000  H
  C26      1.0000 0.72020  0.08680  0.02820  Biso   1.000  C
  H12      1.0000 0.73180  0.09090  0.99860  Biso   1.000  H
  C27      1.0000 0.93050  0.75840  0.36870  Biso   1.000  C
  C28      1.0000 0.97150  0.68620  0.39460  Biso   1.000  C
  O17      1.0000 0.82390  0.45380  0.59000  Biso   1.000  O
  O18      1.0000 0.77190  0.35070  0.34290  Biso   1.000  O
  C29      1.0000 0.83470  0.44900  0.54440  Biso   1.000  C
  Dy5      1.0000 0.87908  0.38037  0.45488  Biso   1.000  Dy
  Dy6      1.0000 0.83999  0.37130  0.69876  Biso   1.000  Dy
  O19      1.0000 0.55560  0.12160  0.15190  Biso   1.000  O
  O20      1.0000 0.81660  0.59880  0.28200  Biso   1.000  O
  C30      1.0000 0.82970  0.54490  0.33630  Biso   1.000  C
  O21      1.0000 0.86210  0.39070  0.54440  Biso   1.000  O
  O22      1.0000 0.74020  0.23370  0.35420  Biso   1.000  O
  O23      1.0000 0.85680  0.47760  0.35240  Biso   1.000  O
  N5       1.0000 0.82570  0.50830  0.43650  Biso   1.000  N
  N6       1.0000 0.62690  0.25290  0.20800  Biso   1.000  N
  C31      1.0000 0.78060  0.63590  0.36960  Biso   1.000  C
  H13      1.0000 0.76990  0.67480  0.32990  Biso   1.000  H
  C32      1.0000 0.81190  0.56460  0.38300  Biso   1.000  C
  O24      1.0000 0.47400  0.19310  0.04590  Biso   1.000  O
  C33      1.0000 0.54910  0.32300  0.07600  Biso   1.000  C
  H14      1.0000 0.50920  0.32500  0.02320  Biso   1.000  H
  C34      1.0000 0.64990  0.38010  0.18250  Biso   1.000  C
  H15      1.0000 0.67760  0.42190  0.20120  Biso   1.000  H
  C35      1.0000 0.81170  0.51950  0.48150  Biso   1.000  C
  C36      1.0000 0.66690  0.31390  0.23270  Biso   1.000  C
  C37      1.0000 0.73200  0.29900  0.31810  Biso   1.000  C
  C38      1.0000 0.76580  0.64770  0.41660  Biso   1.000  C
  H16      1.0000 0.74680  0.69570  0.41090  Biso   1.000  H
  C39      1.0000 0.59000  0.38450  0.10190  Biso   1.000  C
  H17      1.0000 0.57800  0.42870  0.06620  Biso   1.000  H
  C40      1.0000 0.77980  0.58680  0.47180  Biso   1.000  C
  H18      1.0000 0.76820  0.59090  0.50140  Biso   1.000  H
  C41      1.0000 0.56950  0.25840  0.13130  Biso   1.000  C
  C42      1.0000 0.52850  0.18620  0.10540  Biso   1.000  C
  O25      1.0000 0.32390  0.95380  0.59000  Biso   1.000  O
  O26      1.0000 0.27190  0.85070  0.34290  Biso   1.000  O
  C43      1.0000 0.33470  0.94900  0.54440  Biso   1.000  C
  Dy7      1.0000 0.37908  0.88037  0.45488  Biso   1.000  Dy
  Dy8      1.0000 0.33999  0.87130  0.69876  Biso   1.000  Dy
  O27      1.0000 0.05560  0.62160  0.15190  Biso   1.000  O
  O28      1.0000 0.31660  0.09880  0.28200  Biso   1.000  O
  C44      1.0000 0.32970  0.04490  0.33630  Biso   1.000  C
  O29      1.0000 0.36210  0.89070  0.54440  Biso   1.000  O
  O30      1.0000 0.24020  0.73370  0.35420  Biso   1.000  O
  O31      1.0000 0.35680  0.97760  0.35240  Biso   1.000  O
  N7       1.0000 0.32570  0.00830  0.43650  Biso   1.000  N
  N8       1.0000 0.12690  0.75290  0.20800  Biso   1.000  N
  C45      1.0000 0.28060  0.13590  0.36960  Biso   1.000  C
  H19      1.0000 0.26990  0.17480  0.32990  Biso   1.000  H
  C46      1.0000 0.31190  0.06460  0.38300  Biso   1.000  C
  O32      1.0000 0.97400  0.69310  0.04590  Biso   1.000  O
  C47      1.0000 0.04910  0.82300  0.07600  Biso   1.000  C
  H20      1.0000 0.00920  0.82500  0.02320  Biso   1.000  H
  C48      1.0000 0.14990  0.88010  0.18250  Biso   1.000  C
  H21      1.0000 0.17760  0.92190  0.20120  Biso   1.000  H
  C49      1.0000 0.31170  0.01950  0.48150  Biso   1.000  C
  C50      1.0000 0.16690  0.81390  0.23270  Biso   1.000  C
  C51      1.0000 0.23200  0.79900  0.31810  Biso   1.000  C
  C52      1.0000 0.26580  0.14770  0.41660  Biso   1.000  C
  H22      1.0000 0.24680  0.19570  0.41090  Biso   1.000  H
  C53      1.0000 0.09000  0.88450  0.10190  Biso   1.000  C
  H23      1.0000 0.07800  0.92870  0.06620  Biso   1.000  H
  C54      1.0000 0.27980  0.08680  0.47180  Biso   1.000  C
  H24      1.0000 0.26820  0.09090  0.50140  Biso   1.000  H
  C55      1.0000 0.06950  0.75840  0.13130  Biso   1.000  C
  C56      1.0000 0.02850  0.68620  0.10540  Biso   1.000  C
  O33      1.0000 0.82390  0.54620  0.09000  Biso   1.000  O
  O34      1.0000 0.77190  0.64930  0.84290  Biso   1.000  O
  C57      1.0000 0.83470  0.55100  0.04440  Biso   1.000  C
  Dy9      1.0000 0.87908  0.61963  0.95488  Biso   1.000  Dy
  Dy10     1.0000 0.83999  0.62870  0.19876  Biso   1.000  Dy
  O35      1.0000 0.55560  0.87840  0.65190  Biso   1.000  O
  O36      1.0000 0.81660  0.40120  0.78200  Biso   1.000  O
  C58      1.0000 0.82970  0.45510  0.83630  Biso   1.000  C
  O37      1.0000 0.86210  0.60930  0.04440  Biso   1.000  O
  O38      1.0000 0.74020  0.76630  0.85420  Biso   1.000  O
  O39      1.0000 0.85680  0.52240  0.85240  Biso   1.000  O
  N9       1.0000 0.82570  0.49170  0.93650  Biso   1.000  N
  N10      1.0000 0.62690  0.74710  0.70800  Biso   1.000  N
  C59      1.0000 0.78060  0.36410  0.86960  Biso   1.000  C
  H25      1.0000 0.76990  0.32520  0.82990  Biso   1.000  H
  C60      1.0000 0.81190  0.43540  0.88300  Biso   1.000  C
  O40      1.0000 0.47400  0.80690  0.54590  Biso   1.000  O
  C61      1.0000 0.54910  0.67700  0.57600  Biso   1.000  C
  H26      1.0000 0.50920  0.67500  0.52320  Biso   1.000  H
  C62      1.0000 0.64990  0.61990  0.68250  Biso   1.000  C
  H27      1.0000 0.67760  0.57810  0.70120  Biso   1.000  H
  C63      1.0000 0.81170  0.48050  0.98150  Biso   1.000  C
  C64      1.0000 0.66690  0.68610  0.73270  Biso   1.000  C
  C65      1.0000 0.73200  0.70100  0.81810  Biso   1.000  C
  C66      1.0000 0.76580  0.35230  0.91660  Biso   1.000  C
  H28      1.0000 0.74680  0.30430  0.91090  Biso   1.000  H
  C67      1.0000 0.59000  0.61550  0.60190  Biso   1.000  C
  H29      1.0000 0.57800  0.57130  0.56620  Biso   1.000  H
  C68      1.0000 0.77980  0.41320  0.97180  Biso   1.000  C
  H30      1.0000 0.76820  0.40910  0.00140  Biso   1.000  H
  C69      1.0000 0.56950  0.74160  0.63130  Biso   1.000  C
  C70      1.0000 0.52850  0.81380  0.60540  Biso   1.000  C
  O41      1.0000 0.32390  0.04620  0.09000  Biso   1.000  O
  O42      1.0000 0.27190  0.14930  0.84290  Biso   1.000  O
  C71      1.0000 0.33470  0.05100  0.04440  Biso   1.000  C
  Dy11     1.0000 0.37908  0.11963  0.95488  Biso   1.000  Dy
  Dy12     1.0000 0.33999  0.12870  0.19876  Biso   1.000  Dy
  O43      1.0000 0.05560  0.37840  0.65190  Biso   1.000  O
  O44      1.0000 0.31660  0.90120  0.78200  Biso   1.000  O
  C72      1.0000 0.32970  0.95510  0.83630  Biso   1.000  C
  O45      1.0000 0.36210  0.10930  0.04440  Biso   1.000  O
  O46      1.0000 0.24020  0.26630  0.85420  Biso   1.000  O
  O47      1.0000 0.35680  0.02240  0.85240  Biso   1.000  O
  N11      1.0000 0.32570  0.99170  0.93650  Biso   1.000  N
  N12      1.0000 0.12690  0.24710  0.70800  Biso   1.000  N
  C73      1.0000 0.28060  0.86410  0.86960  Biso   1.000  C
  H31      1.0000 0.26990  0.82520  0.82990  Biso   1.000  H
  C74      1.0000 0.31190  0.93540  0.88300  Biso   1.000  C
  O48      1.0000 0.97400  0.30690  0.54590  Biso   1.000  O
  C75      1.0000 0.04910  0.17700  0.57600  Biso   1.000  C
  H32      1.0000 0.00920  0.17500  0.52320  Biso   1.000  H
  C76      1.0000 0.14990  0.11990  0.68250  Biso   1.000  C
  H33      1.0000 0.17760  0.07810  0.70120  Biso   1.000  H
  C77      1.0000 0.31170  0.98050  0.98150  Biso   1.000  C
  C78      1.0000 0.16690  0.18610  0.73270  Biso   1.000  C
  C79      1.0000 0.23200  0.20100  0.81810  Biso   1.000  C
  C80      1.0000 0.26580  0.85230  0.91660  Biso   1.000  C
  H34      1.0000 0.24680  0.80430  0.91090  Biso   1.000  H
  C81      1.0000 0.09000  0.11550  0.60190  Biso   1.000  C
  H35      1.0000 0.07800  0.07130  0.56620  Biso   1.000  H
  C82      1.0000 0.27980  0.91320  0.97180  Biso   1.000  C
  H36      1.0000 0.26820  0.90910  0.00140  Biso   1.000  H
  C83      1.0000 0.06950  0.24160  0.63130  Biso   1.000  C
  C84      1.0000 0.02850  0.31380  0.60540  Biso   1.000  C
  O49      1.0000 0.17610  0.54620  0.41000  Biso   1.000  O
  O50      1.0000 0.22810  0.64930  0.65710  Biso   1.000  O
  C85      1.0000 0.16530  0.55100  0.45560  Biso   1.000  C
  Dy13     1.0000 0.12092  0.61963  0.54512  Biso   1.000  Dy
  Dy14     1.0000 0.16001  0.62870  0.30124  Biso   1.000  Dy
  O51      1.0000 0.44440  0.87840  0.84810  Biso   1.000  O
  O52      1.0000 0.18340  0.40120  0.71800  Biso   1.000  O
  C86      1.0000 0.17030  0.45510  0.66370  Biso   1.000  C
  O53      1.0000 0.13790  0.60930  0.45560  Biso   1.000  O
  O54      1.0000 0.25980  0.76630  0.64580  Biso   1.000  O
  O55      1.0000 0.14320  0.52240  0.64760  Biso   1.000  O
  N13      1.0000 0.17430  0.49170  0.56350  Biso   1.000  N
  N14      1.0000 0.37310  0.74710  0.79200  Biso   1.000  N
  C87      1.0000 0.21940  0.36410  0.63040  Biso   1.000  C
  H37      1.0000 0.23010  0.32520  0.67010  Biso   1.000  H
  C88      1.0000 0.18810  0.43540  0.61700  Biso   1.000  C
  O56      1.0000 0.52600  0.80690  0.95410  Biso   1.000  O
  C89      1.0000 0.45090  0.67700  0.92400  Biso   1.000  C
  H38      1.0000 0.49080  0.67500  0.97680  Biso   1.000  H
  C90      1.0000 0.35010  0.61990  0.81750  Biso   1.000  C
  H39      1.0000 0.32240  0.57810  0.79880  Biso   1.000  H
  C91      1.0000 0.18830  0.48050  0.51850  Biso   1.000  C
  C92      1.0000 0.33310  0.68610  0.76730  Biso   1.000  C
  C93      1.0000 0.26800  0.70100  0.68190  Biso   1.000  C
  C94      1.0000 0.23420  0.35230  0.58340  Biso   1.000  C
  H40      1.0000 0.25320  0.30430  0.58910  Biso   1.000  H
  C95      1.0000 0.41000  0.61550  0.89810  Biso   1.000  C
  H41      1.0000 0.42200  0.57130  0.93380  Biso   1.000  H
  C96      1.0000 0.22020  0.41320  0.52820  Biso   1.000  C
  H42      1.0000 0.23180  0.40910  0.49860  Biso   1.000  H
  C97      1.0000 0.43050  0.74160  0.86870  Biso   1.000  C
  C98      1.0000 0.47150  0.81380  0.89460  Biso   1.000  C
  O57      1.0000 0.67610  0.04620  0.41000  Biso   1.000  O
  O58      1.0000 0.72810  0.14930  0.65710  Biso   1.000  O
  C99      1.0000 0.66530  0.05100  0.45560  Biso   1.000  C
  Dy15     1.0000 0.62092  0.11963  0.54512  Biso   1.000  Dy
  Dy16     1.0000 0.66001  0.12870  0.30124  Biso   1.000  Dy
  O59      1.0000 0.94440  0.37840  0.84810  Biso   1.000  O
  O60      1.0000 0.68340  0.90120  0.71800  Biso   1.000  O
  C100     1.0000 0.67030  0.95510  0.66370  Biso   1.000  C
  O61      1.0000 0.63790  0.10930  0.45560  Biso   1.000  O
  O62      1.0000 0.75980  0.26630  0.64580  Biso   1.000  O
  O63      1.0000 0.64320  0.02240  0.64760  Biso   1.000  O
  N15      1.0000 0.67430  0.99170  0.56350  Biso   1.000  N
  N16      1.0000 0.87310  0.24710  0.79200  Biso   1.000  N
  C101     1.0000 0.71940  0.86410  0.63040  Biso   1.000  C
  H43      1.0000 0.73010  0.82520  0.67010  Biso   1.000  H
  C102     1.0000 0.68810  0.93540  0.61700  Biso   1.000  C
  O64      1.0000 0.02600  0.30690  0.95410  Biso   1.000  O
  C103     1.0000 0.95090  0.17700  0.92400  Biso   1.000  C
  H44      1.0000 0.99080  0.17500  0.97680  Biso   1.000  H
  C104     1.0000 0.85010  0.11990  0.81750  Biso   1.000  C
  H45      1.0000 0.82240  0.07810  0.79880  Biso   1.000  H
  C105     1.0000 0.68830  0.98050  0.51850  Biso   1.000  C
  C106     1.0000 0.83310  0.18610  0.76730  Biso   1.000  C
  C107     1.0000 0.76800  0.20100  0.68190  Biso   1.000  C
  C108     1.0000 0.73420  0.85230  0.58340  Biso   1.000  C
  H46      1.0000 0.75320  0.80430  0.58910  Biso   1.000  H
  C109     1.0000 0.91000  0.11550  0.89810  Biso   1.000  C
  H47      1.0000 0.92200  0.07130  0.93380  Biso   1.000  H
  C110     1.0000 0.72020  0.91320  0.52820  Biso   1.000  C
  H48      1.0000 0.73180  0.90910  0.49860  Biso   1.000  H
  C111     1.0000 0.93050  0.24160  0.86870  Biso   1.000  C
  C112     1.0000 0.97150  0.31380  0.89460  Biso   1.000  C
