data_image0
_cell_length_a       30.342
_cell_length_b       16.219
_cell_length_c       21.787
_cell_angle_alpha    90
_cell_angle_beta     134.13
_cell_angle_gamma    90

_symmetry_space_group_name_H-M    "P 1"
_symmetry_int_tables_number       1

loop_
  _symmetry_equiv_pos_as_xyz
  'x, y, z'

loop_
  _atom_site_label
  _atom_site_occupancy
  _atom_site_fract_x
  _atom_site_fract_y
  _atom_site_fract_z
  _atom_site_thermal_displace_type
  _atom_site_B_iso_or_equiv
  _atom_site_type_symbol
  Tb1      1.0000 0.17220  0.12932  0.54317  Biso   1.000  Tb
  Tb2      1.0000 0.11072  0.12213  0.20103  Biso   1.000  Tb
  O1       1.0000 0.15150  0.12470  0.34460  Biso   1.000  O
  O2       1.0000 0.13670  0.01900  0.14720  Biso   1.000  O
  O3       1.0000 0.24820  0.27260  0.35420  Biso   1.000  O
  O4       1.0000 0.21720  0.15250  0.28620  Biso   1.000  O
  N1       1.0000 0.16770  0.99770  0.29120  Biso   1.000  N
  N2       1.0000 0.36120  0.24340  0.43850  Biso   1.000  N
  O5       1.0000 0.17720  0.05860  0.45290  Biso   1.000  O
  C1       1.0000 0.18810  0.99090  0.36960  Biso   1.000  C
  C2       1.0000 0.34050  0.11390  0.37170  Biso   1.000  C
  H1       1.0000 0.31200  0.07340  0.33380  Biso   1.000  H
  O6       1.0000 0.43430  0.36100  0.54330  Biso   1.000  O
  C3       1.0000 0.22370  0.92660  0.42370  Biso   1.000  C
  H2       1.0000 0.23770  0.92540  0.47760  Biso   1.000  H
  C4       1.0000 0.32250  0.18440  0.38460  Biso   1.000  C
  C5       1.0000 0.21860  0.86950  0.31730  Biso   1.000  C
  H3       1.0000 0.22830  0.82890  0.29820  Biso   1.000  H
  C6       1.0000 0.25730  0.20460  0.33760  Biso   1.000  C
  C7       1.0000 0.18390  0.93750  0.26790  Biso   1.000  C
  C8       1.0000 0.42240  0.23260  0.48490  Biso   1.000  C
  C9       1.0000 0.44400  0.16280  0.47640  Biso   1.000  C
  H4       1.0000 0.48580  0.15510  0.51020  Biso   1.000  H
  C10      1.0000 0.46200  0.30150  0.54690  Biso   1.000  C
  C11      1.0000 0.23890  0.86470  0.39940  Biso   1.000  C
  H5       1.0000 0.26190  0.82000  0.43530  Biso   1.000  H
  C12      1.0000 0.17270  0.06410  0.39220  Biso   1.000  C
  C13      1.0000 0.40150  0.10450  0.41600  Biso   1.000  C
  H6       1.0000 0.41420  0.05920  0.40540  Biso   1.000  H
  O7       1.0000 0.51780  0.29710  0.59320  Biso   1.000  O
  O8       1.0000 0.17710  0.89880  0.15560  Biso   1.000  O
  C14      1.0000 0.16300  0.95330  0.18130  Biso   1.000  C
  Tb3      1.0000 0.67220  0.62932  0.54317  Biso   1.000  Tb
  Tb4      1.0000 0.61072  0.62213  0.20103  Biso   1.000  Tb
  O9       1.0000 0.65150  0.62470  0.34460  Biso   1.000  O
  O10      1.0000 0.63670  0.51900  0.14720  Biso   1.000  O
  O11      1.0000 0.74820  0.77260  0.35420  Biso   1.000  O
  O12      1.0000 0.71720  0.65250  0.28620  Biso   1.000  O
  N3       1.0000 0.66770  0.49770  0.29120  Biso   1.000  N
  N4       1.0000 0.86120  0.74340  0.43850  Biso   1.000  N
  O13      1.0000 0.67720  0.55860  0.45290  Biso   1.000  O
  C15      1.0000 0.68810  0.49090  0.36960  Biso   1.000  C
  C16      1.0000 0.84050  0.61390  0.37170  Biso   1.000  C
  H7       1.0000 0.81200  0.57340  0.33380  Biso   1.000  H
  O14      1.0000 0.93430  0.86100  0.54330  Biso   1.000  O
  C17      1.0000 0.72370  0.42660  0.42370  Biso   1.000  C
  H8       1.0000 0.73770  0.42540  0.47760  Biso   1.000  H
  C18      1.0000 0.82250  0.68440  0.38460  Biso   1.000  C
  C19      1.0000 0.71860  0.36950  0.31730  Biso   1.000  C
  H9       1.0000 0.72830  0.32890  0.29820  Biso   1.000  H
  C20      1.0000 0.75730  0.70460  0.33760  Biso   1.000  C
  C21      1.0000 0.68390  0.43750  0.26790  Biso   1.000  C
  C22      1.0000 0.92240  0.73260  0.48490  Biso   1.000  C
  C23      1.0000 0.94400  0.66280  0.47640  Biso   1.000  C
  H10      1.0000 0.98580  0.65510  0.51020  Biso   1.000  H
  C24      1.0000 0.96200  0.80150  0.54690  Biso   1.000  C
  C25      1.0000 0.73890  0.36470  0.39940  Biso   1.000  C
  H11      1.0000 0.76190  0.32000  0.43530  Biso   1.000  H
  C26      1.0000 0.67270  0.56410  0.39220  Biso   1.000  C
  C27      1.0000 0.90150  0.60450  0.41600  Biso   1.000  C
  H12      1.0000 0.91420  0.55920  0.40540  Biso   1.000  H
  O15      1.0000 0.01780  0.79710  0.59320  Biso   1.000  O
  O16      1.0000 0.67710  0.39880  0.15560  Biso   1.000  O
  C28      1.0000 0.66300  0.45330  0.18130  Biso   1.000  C
  Tb5      1.0000 0.82780  0.12932  0.95683  Biso   1.000  Tb
  Tb6      1.0000 0.88928  0.12213  0.29897  Biso   1.000  Tb
  O17      1.0000 0.84850  0.12470  0.15540  Biso   1.000  O
  O18      1.0000 0.86330  0.01900  0.35280  Biso   1.000  O
  O19      1.0000 0.75180  0.27260  0.14580  Biso   1.000  O
  O20      1.0000 0.78280  0.15250  0.21380  Biso   1.000  O
  N5       1.0000 0.83230  0.99770  0.20880  Biso   1.000  N
  N6       1.0000 0.63880  0.24340  0.06150  Biso   1.000  N
  O21      1.0000 0.82280  0.05860  0.04710  Biso   1.000  O
  C29      1.0000 0.81190  0.99090  0.13040  Biso   1.000  C
  C30      1.0000 0.65950  0.11390  0.12830  Biso   1.000  C
  H13      1.0000 0.68800  0.07340  0.16620  Biso   1.000  H
  O22      1.0000 0.56570  0.36100  0.95670  Biso   1.000  O
  C31      1.0000 0.77630  0.92660  0.07630  Biso   1.000  C
  H14      1.0000 0.76230  0.92540  0.02240  Biso   1.000  H
  C32      1.0000 0.67750  0.18440  0.11540  Biso   1.000  C
  C33      1.0000 0.78140  0.86950  0.18270  Biso   1.000  C
  H15      1.0000 0.77170  0.82890  0.20180  Biso   1.000  H
  C34      1.0000 0.74270  0.20460  0.16240  Biso   1.000  C
  C35      1.0000 0.81610  0.93750  0.23210  Biso   1.000  C
  C36      1.0000 0.57760  0.23260  0.01510  Biso   1.000  C
  C37      1.0000 0.55600  0.16280  0.02360  Biso   1.000  C
  H16      1.0000 0.51420  0.15510  0.98980  Biso   1.000  H
  C38      1.0000 0.53800  0.30150  0.95310  Biso   1.000  C
  C39      1.0000 0.76110  0.86470  0.10060  Biso   1.000  C
  H17      1.0000 0.73810  0.82000  0.06470  Biso   1.000  H
  C40      1.0000 0.82730  0.06410  0.10780  Biso   1.000  C
  C41      1.0000 0.59850  0.10450  0.08400  Biso   1.000  C
  H18      1.0000 0.58580  0.05920  0.09460  Biso   1.000  H
  O23      1.0000 0.48220  0.29710  0.90680  Biso   1.000  O
  O24      1.0000 0.82290  0.89880  0.34440  Biso   1.000  O
  C42      1.0000 0.83700  0.95330  0.31870  Biso   1.000  C
  Tb7      1.0000 0.32780  0.62932  0.95683  Biso   1.000  Tb
  Tb8      1.0000 0.38928  0.62213  0.29897  Biso   1.000  Tb
  O25      1.0000 0.34850  0.62470  0.15540  Biso   1.000  O
  O26      1.0000 0.36330  0.51900  0.35280  Biso   1.000  O
  O27      1.0000 0.25180  0.77260  0.14580  Biso   1.000  O
  O28      1.0000 0.28280  0.65250  0.21380  Biso   1.000  O
  N7       1.0000 0.33230  0.49770  0.20880  Biso   1.000  N
  N8       1.0000 0.13880  0.74340  0.06150  Biso   1.000  N
  O29      1.0000 0.32280  0.55860  0.04710  Biso   1.000  O
  C43      1.0000 0.31190  0.49090  0.13040  Biso   1.000  C
  C44      1.0000 0.15950  0.61390  0.12830  Biso   1.000  C
  H19      1.0000 0.18800  0.57340  0.16620  Biso   1.000  H
  O30      1.0000 0.06570  0.86100  0.95670  Biso   1.000  O
  C45      1.0000 0.27630  0.42660  0.07630  Biso   1.000  C
  H20      1.0000 0.26230  0.42540  0.02240  Biso   1.000  H
  C46      1.0000 0.17750  0.68440  0.11540  Biso   1.000  C
  C47      1.0000 0.28140  0.36950  0.18270  Biso   1.000  C
  H21      1.0000 0.27170  0.32890  0.20180  Biso   1.000  H
  C48      1.0000 0.24270  0.70460  0.16240  Biso   1.000  C
  C49      1.0000 0.31610  0.43750  0.23210  Biso   1.000  C
  C50      1.0000 0.07760  0.73260  0.01510  Biso   1.000  C
  C51      1.0000 0.05600  0.66280  0.02360  Biso   1.000  C
  H22      1.0000 0.01420  0.65510  0.98980  Biso   1.000  H
  C52      1.0000 0.03800  0.80150  0.95310  Biso   1.000  C
  C53      1.0000 0.26110  0.36470  0.10060  Biso   1.000  C
  H23      1.0000 0.23810  0.32000  0.06470  Biso   1.000  H
  C54      1.0000 0.32730  0.56410  0.10780  Biso   1.000  C
  C55      1.0000 0.09850  0.60450  0.08400  Biso   1.000  C
  H24      1.0000 0.08580  0.55920  0.09460  Biso   1.000  H
  O31      1.0000 0.98220  0.79710  0.90680  Biso   1.000  O
  O32      1.0000 0.32290  0.39880  0.34440  Biso   1.000  O
  C56      1.0000 0.33700  0.45330  0.31870  Biso   1.000  C
  Tb9      1.0000 0.82780  0.87068  0.45683  Biso   1.000  Tb
  Tb10     1.0000 0.88928  0.87787  0.79897  Biso   1.000  Tb
  O33      1.0000 0.84850  0.87530  0.65540  Biso   1.000  O
  O34      1.0000 0.86330  0.98100  0.85280  Biso   1.000  O
  O35      1.0000 0.75180  0.72740  0.64580  Biso   1.000  O
  O36      1.0000 0.78280  0.84750  0.71380  Biso   1.000  O
  N9       1.0000 0.83230  0.00230  0.70880  Biso   1.000  N
  N10      1.0000 0.63880  0.75660  0.56150  Biso   1.000  N
  O37      1.0000 0.82280  0.94140  0.54710  Biso   1.000  O
  C57      1.0000 0.81190  0.00910  0.63040  Biso   1.000  C
  C58      1.0000 0.65950  0.88610  0.62830  Biso   1.000  C
  H25      1.0000 0.68800  0.92660  0.66620  Biso   1.000  H
  O38      1.0000 0.56570  0.63900  0.45670  Biso   1.000  O
  C59      1.0000 0.77630  0.07340  0.57630  Biso   1.000  C
  H26      1.0000 0.76230  0.07460  0.52240  Biso   1.000  H
  C60      1.0000 0.67750  0.81560  0.61540  Biso   1.000  C
  C61      1.0000 0.78140  0.13050  0.68270  Biso   1.000  C
  H27      1.0000 0.77170  0.17110  0.70180  Biso   1.000  H
  C62      1.0000 0.74270  0.79540  0.66240  Biso   1.000  C
  C63      1.0000 0.81610  0.06250  0.73210  Biso   1.000  C
  C64      1.0000 0.57760  0.76740  0.51510  Biso   1.000  C
  C65      1.0000 0.55600  0.83720  0.52360  Biso   1.000  C
  H28      1.0000 0.51420  0.84490  0.48980  Biso   1.000  H
  C66      1.0000 0.53800  0.69850  0.45310  Biso   1.000  C
  C67      1.0000 0.76110  0.13530  0.60060  Biso   1.000  C
  H29      1.0000 0.73810  0.18000  0.56470  Biso   1.000  H
  C68      1.0000 0.82730  0.93590  0.60780  Biso   1.000  C
  C69      1.0000 0.59850  0.89550  0.58400  Biso   1.000  C
  H30      1.0000 0.58580  0.94080  0.59460  Biso   1.000  H
  O39      1.0000 0.48220  0.70290  0.40680  Biso   1.000  O
  O40      1.0000 0.82290  0.10120  0.84440  Biso   1.000  O
  C70      1.0000 0.83700  0.04670  0.81870  Biso   1.000  C
  Tb11     1.0000 0.32780  0.37068  0.45683  Biso   1.000  Tb
  Tb12     1.0000 0.38928  0.37787  0.79897  Biso   1.000  Tb
  O41      1.0000 0.34850  0.37530  0.65540  Biso   1.000  O
  O42      1.0000 0.36330  0.48100  0.85280  Biso   1.000  O
  O43      1.0000 0.25180  0.22740  0.64580  Biso   1.000  O
  O44      1.0000 0.28280  0.34750  0.71380  Biso   1.000  O
  N11      1.0000 0.33230  0.50230  0.70880  Biso   1.000  N
  N12      1.0000 0.13880  0.25660  0.56150  Biso   1.000  N
  O45      1.0000 0.32280  0.44140  0.54710  Biso   1.000  O
  C71      1.0000 0.31190  0.50910  0.63040  Biso   1.000  C
  C72      1.0000 0.15950  0.38610  0.62830  Biso   1.000  C
  H31      1.0000 0.18800  0.42660  0.66620  Biso   1.000  H
  O46      1.0000 0.06570  0.13900  0.45670  Biso   1.000  O
  C73      1.0000 0.27630  0.57340  0.57630  Biso   1.000  C
  H32      1.0000 0.26230  0.57460  0.52240  Biso   1.000  H
  C74      1.0000 0.17750  0.31560  0.61540  Biso   1.000  C
  C75      1.0000 0.28140  0.63050  0.68270  Biso   1.000  C
  H33      1.0000 0.27170  0.67110  0.70180  Biso   1.000  H
  C76      1.0000 0.24270  0.29540  0.66240  Biso   1.000  C
  C77      1.0000 0.31610  0.56250  0.73210  Biso   1.000  C
  C78      1.0000 0.07760  0.26740  0.51510  Biso   1.000  C
  C79      1.0000 0.05600  0.33720  0.52360  Biso   1.000  C
  H34      1.0000 0.01420  0.34490  0.48980  Biso   1.000  H
  C80      1.0000 0.03800  0.19850  0.45310  Biso   1.000  C
  C81      1.0000 0.26110  0.63530  0.60060  Biso   1.000  C
  H35      1.0000 0.23810  0.68000  0.56470  Biso   1.000  H
  C82      1.0000 0.32730  0.43590  0.60780  Biso   1.000  C
  C83      1.0000 0.09850  0.39550  0.58400  Biso   1.000  C
  H36      1.0000 0.08580  0.44080  0.59460  Biso   1.000  H
  O47      1.0000 0.98220  0.20290  0.40680  Biso   1.000  O
  O48      1.0000 0.32290  0.60120  0.84440  Biso   1.000  O
  C84      1.0000 0.33700  0.54670  0.81870  Biso   1.000  C
  Tb13     1.0000 0.17220  0.87068  0.04317  Biso   1.000  Tb
  Tb14     1.0000 0.11072  0.87787  0.70103  Biso   1.000  Tb
  O49      1.0000 0.15150  0.87530  0.84460  Biso   1.000  O
  O50      1.0000 0.13670  0.98100  0.64720  Biso   1.000  O
  O51      1.0000 0.24820  0.72740  0.85420  Biso   1.000  O
  O52      1.0000 0.21720  0.84750  0.78620  Biso   1.000  O
  N13      1.0000 0.16770  0.00230  0.79120  Biso   1.000  N
  N14      1.0000 0.36120  0.75660  0.93850  Biso   1.000  N
  O53      1.0000 0.17720  0.94140  0.95290  Biso   1.000  O
  C85      1.0000 0.18810  0.00910  0.86960  Biso   1.000  C
  C86      1.0000 0.34050  0.88610  0.87170  Biso   1.000  C
  H37      1.0000 0.31200  0.92660  0.83380  Biso   1.000  H
  O54      1.0000 0.43430  0.63900  0.04330  Biso   1.000  O
  C87      1.0000 0.22370  0.07340  0.92370  Biso   1.000  C
  H38      1.0000 0.23770  0.07460  0.97760  Biso   1.000  H
  C88      1.0000 0.32250  0.81560  0.88460  Biso   1.000  C
  C89      1.0000 0.21860  0.13050  0.81730  Biso   1.000  C
  H39      1.0000 0.22830  0.17110  0.79820  Biso   1.000  H
  C90      1.0000 0.25730  0.79540  0.83760  Biso   1.000  C
  C91      1.0000 0.18390  0.06250  0.76790  Biso   1.000  C
  C92      1.0000 0.42240  0.76740  0.98490  Biso   1.000  C
  C93      1.0000 0.44400  0.83720  0.97640  Biso   1.000  C
  H40      1.0000 0.48580  0.84490  0.01020  Biso   1.000  H
  C94      1.0000 0.46200  0.69850  0.04690  Biso   1.000  C
  C95      1.0000 0.23890  0.13530  0.89940  Biso   1.000  C
  H41      1.0000 0.26190  0.18000  0.93530  Biso   1.000  H
  C96      1.0000 0.17270  0.93590  0.89220  Biso   1.000  C
  C97      1.0000 0.40150  0.89550  0.91600  Biso   1.000  C
  H42      1.0000 0.41420  0.94080  0.90540  Biso   1.000  H
  O55      1.0000 0.51780  0.70290  0.09320  Biso   1.000  O
  O56      1.0000 0.17710  0.10120  0.65560  Biso   1.000  O
  C98      1.0000 0.16300  0.04670  0.68130  Biso   1.000  C
  Tb15     1.0000 0.67220  0.37068  0.04317  Biso   1.000  Tb
  Tb16     1.0000 0.61072  0.37787  0.70103  Biso   1.000  Tb
  O57      1.0000 0.65150  0.37530  0.84460  Biso   1.000  O
  O58      1.0000 0.63670  0.48100  0.64720  Biso   1.000  O
  O59      1.0000 0.74820  0.22740  0.85420  Biso   1.000  O
  O60      1.0000 0.71720  0.34750  0.78620  Biso   1.000  O
  N15      1.0000 0.66770  0.50230  0.79120  Biso   1.000  N
  N16      1.0000 0.86120  0.25660  0.93850  Biso   1.000  N
  O61      1.0000 0.67720  0.44140  0.95290  Biso   1.000  O
  C99      1.0000 0.68810  0.50910  0.86960  Biso   1.000  C
  C100     1.0000 0.84050  0.38610  0.87170  Biso   1.000  C
  H43      1.0000 0.81200  0.42660  0.83380  Biso   1.000  H
  O62      1.0000 0.93430  0.13900  0.04330  Biso   1.000  O
  C101     1.0000 0.72370  0.57340  0.92370  Biso   1.000  C
  H44      1.0000 0.73770  0.57460  0.97760  Biso   1.000  H
  C102     1.0000 0.82250  0.31560  0.88460  Biso   1.000  C
  C103     1.0000 0.71860  0.63050  0.81730  Biso   1.000  C
  H45      1.0000 0.72830  0.67110  0.79820  Biso   1.000  H
  C104     1.0000 0.75730  0.29540  0.83760  Biso   1.000  C
  C105     1.0000 0.68390  0.56250  0.76790  Biso   1.000  C
  C106     1.0000 0.92240  0.26740  0.98490  Biso   1.000  C
  C107     1.0000 0.94400  0.33720  0.97640  Biso   1.000  C
  H46      1.0000 0.98580  0.34490  0.01020  Biso   1.000  H
  C108     1.0000 0.96200  0.19850  0.04690  Biso   1.000  C
  C109     1.0000 0.73890  0.63530  0.89940  Biso   1.000  C
  H47      1.0000 0.76190  0.68000  0.93530  Biso   1.000  H
  C110     1.0000 0.67270  0.43590  0.89220  Biso   1.000  C
  C111     1.0000 0.90150  0.39550  0.91600  Biso   1.000  C
  H48      1.0000 0.91420  0.44080  0.90540  Biso   1.000  H
  O63      1.0000 0.01780  0.20290  0.09320  Biso   1.000  O
  O64      1.0000 0.67710  0.60120  0.65560  Biso   1.000  O
  C112     1.0000 0.66300  0.54670  0.68130  Biso   1.000  C
