data_image0
_cell_length_a       7.2459
_cell_length_b       19.2242
_cell_length_c       25.807
_cell_angle_alpha    90
_cell_angle_beta     90
_cell_angle_gamma    90

_symmetry_space_group_name_H-M    "P 1"
_symmetry_int_tables_number       1

loop_
  _symmetry_equiv_pos_as_xyz
  'x, y, z'

loop_
  _atom_site_label
  _atom_site_occupancy
  _atom_site_fract_x
  _atom_site_fract_y
  _atom_site_fract_z
  _atom_site_thermal_displace_type
  _atom_site_B_iso_or_equiv
  _atom_site_type_symbol
  Ba1      1.0000 0.18198  0.31140  0.89257  Biso   1.000  Ba
  O1       1.0000 0.62090  0.77120  0.46080  Biso   1.000  O
  O2       1.0000 0.51380  0.87550  0.47420  Biso   1.000  O
  O3       1.0000 0.10960  0.45160  0.87610  Biso   1.000  O
  O4       1.0000 0.97110  0.50380  0.94010  Biso   1.000  O
  O5       1.0000 0.05840  0.17710  0.87980  Biso   1.000  O
  O6       1.0000 0.32570  0.18590  0.84160  Biso   1.000  O
  C1       1.0000 0.18880  0.15420  0.85520  Biso   1.000  C
  C2       1.0000 0.15900  0.08070  0.83160  Biso   1.000  C
  C3       1.0000 0.22320  0.06320  0.78580  Biso   1.000  C
  H1       1.0000 0.29690  0.09430  0.76760  Biso   1.000  H
  C4       1.0000 0.18200  0.99790  0.76390  Biso   1.000  C
  H2       1.0000 0.22160  0.98680  0.73070  Biso   1.000  H
  C5       1.0000 0.08240  0.95140  0.79230  Biso   1.000  C
  C6       1.0000 0.02690  0.96660  0.84200  Biso   1.000  C
  H3       1.0000 0.96890  0.93340  0.86250  Biso   1.000  H
  C7       1.0000 0.05970  0.03270  0.86040  Biso   1.000  C
  H4       1.0000 0.01430  0.04530  0.89270  Biso   1.000  H
  C8       1.0000 0.02790  0.88140  0.77040  Biso   1.000  C
  C9       1.0000 0.60540  0.82360  0.48900  Biso   1.000  C
  C10      1.0000 0.68320  0.82130  0.54260  Biso   1.000  C
  C11      1.0000 0.66870  0.87800  0.57640  Biso   1.000  C
  H5       1.0000 0.60910  0.91810  0.56520  Biso   1.000  H
  C12      1.0000 0.73800  0.87610  0.62420  Biso   1.000  C
  H6       1.0000 0.72420  0.91490  0.64540  Biso   1.000  H
  C13      1.0000 0.77360  0.76260  0.56080  Biso   1.000  C
  H7       1.0000 0.78830  0.72420  0.53930  Biso   1.000  H
  C14      1.0000 0.84140  0.76100  0.61030  Biso   1.000  C
  H8       1.0000 0.89710  0.72060  0.62250  Biso   1.000  H
  C15      1.0000 0.03650  0.50430  0.89510  Biso   1.000  C
  C16      1.0000 0.02410  0.56990  0.86690  Biso   1.000  C
  C17      1.0000 0.06160  0.57220  0.81330  Biso   1.000  C
  H9       1.0000 0.09760  0.53150  0.79660  Biso   1.000  H
  C18      1.0000 0.04700  0.63160  0.78490  Biso   1.000  C
  H10      1.0000 0.07230  0.63080  0.74960  Biso   1.000  H
  C19      1.0000 0.99540  0.69230  0.80820  Biso   1.000  C
  C20      1.0000 0.96100  0.69060  0.86120  Biso   1.000  C
  H11      1.0000 0.92920  0.73180  0.87790  Biso   1.000  H
  C21      1.0000 0.97110  0.63130  0.88920  Biso   1.000  C
  H12      1.0000 0.94170  0.63220  0.92430  Biso   1.000  H
  C22      1.0000 0.97600  0.75840  0.77700  Biso   1.000  C
  C23      1.0000 0.91390  0.75770  0.72570  Biso   1.000  C
  H13      1.0000 0.87740  0.71570  0.71110  Biso   1.000  H
  C24      1.0000 0.90520  0.81680  0.69660  Biso   1.000  C
  C25      1.0000 0.96770  0.87880  0.71750  Biso   1.000  C
  H14      1.0000 0.97050  0.91870  0.69730  Biso   1.000  H
  C26      1.0000 0.02810  0.82130  0.79880  Biso   1.000  C
  H15      1.0000 0.06390  0.82270  0.83340  Biso   1.000  H
  C27      1.0000 0.82830  0.81950  0.64340  Biso   1.000  C
  Ba2      1.0000 0.81802  0.68860  0.39257  Biso   1.000  Ba
  O7       1.0000 0.37910  0.22880  0.96080  Biso   1.000  O
  O8       1.0000 0.48620  0.12450  0.97420  Biso   1.000  O
  O9       1.0000 0.89040  0.54840  0.37610  Biso   1.000  O
  O10      1.0000 0.02890  0.49620  0.44010  Biso   1.000  O
  O11      1.0000 0.94160  0.82290  0.37980  Biso   1.000  O
  O12      1.0000 0.67430  0.81410  0.34160  Biso   1.000  O
  C28      1.0000 0.81120  0.84580  0.35520  Biso   1.000  C
  C29      1.0000 0.84100  0.91930  0.33160  Biso   1.000  C
  C30      1.0000 0.77680  0.93680  0.28580  Biso   1.000  C
  H16      1.0000 0.70310  0.90570  0.26760  Biso   1.000  H
  C31      1.0000 0.81800  0.00210  0.26390  Biso   1.000  C
  H17      1.0000 0.77840  0.01320  0.23070  Biso   1.000  H
  C32      1.0000 0.91760  0.04860  0.29230  Biso   1.000  C
  C33      1.0000 0.97310  0.03340  0.34200  Biso   1.000  C
  H18      1.0000 0.03110  0.06660  0.36250  Biso   1.000  H
  C34      1.0000 0.94030  0.96730  0.36040  Biso   1.000  C
  H19      1.0000 0.98570  0.95470  0.39270  Biso   1.000  H
  C35      1.0000 0.97210  0.11860  0.27040  Biso   1.000  C
  C36      1.0000 0.39460  0.17640  0.98900  Biso   1.000  C
  C37      1.0000 0.31680  0.17870  0.04260  Biso   1.000  C
  C38      1.0000 0.33130  0.12200  0.07640  Biso   1.000  C
  H20      1.0000 0.39090  0.08190  0.06520  Biso   1.000  H
  C39      1.0000 0.26200  0.12390  0.12420  Biso   1.000  C
  H21      1.0000 0.27580  0.08510  0.14540  Biso   1.000  H
  C40      1.0000 0.22640  0.23740  0.06080  Biso   1.000  C
  H22      1.0000 0.21170  0.27580  0.03930  Biso   1.000  H
  C41      1.0000 0.15860  0.23900  0.11030  Biso   1.000  C
  H23      1.0000 0.10290  0.27940  0.12250  Biso   1.000  H
  C42      1.0000 0.96350  0.49570  0.39510  Biso   1.000  C
  C43      1.0000 0.97590  0.43010  0.36690  Biso   1.000  C
  C44      1.0000 0.93840  0.42780  0.31330  Biso   1.000  C
  H24      1.0000 0.90240  0.46850  0.29660  Biso   1.000  H
  C45      1.0000 0.95300  0.36840  0.28490  Biso   1.000  C
  H25      1.0000 0.92770  0.36920  0.24960  Biso   1.000  H
  C46      1.0000 0.00460  0.30770  0.30820  Biso   1.000  C
  C47      1.0000 0.03900  0.30940  0.36120  Biso   1.000  C
  H26      1.0000 0.07080  0.26820  0.37790  Biso   1.000  H
  C48      1.0000 0.02890  0.36870  0.38920  Biso   1.000  C
  H27      1.0000 0.05830  0.36780  0.42430  Biso   1.000  H
  C49      1.0000 0.02400  0.24160  0.27700  Biso   1.000  C
  C50      1.0000 0.08610  0.24230  0.22570  Biso   1.000  C
  H28      1.0000 0.12260  0.28430  0.21110  Biso   1.000  H
  C51      1.0000 0.09480  0.18320  0.19660  Biso   1.000  C
  C52      1.0000 0.03230  0.12120  0.21750  Biso   1.000  C
  H29      1.0000 0.02950  0.08130  0.19730  Biso   1.000  H
  C53      1.0000 0.97190  0.17870  0.29880  Biso   1.000  C
  H30      1.0000 0.93610  0.17730  0.33340  Biso   1.000  H
  C54      1.0000 0.17170  0.18050  0.14340  Biso   1.000  C
  Ba3      1.0000 0.68198  0.18860  0.89257  Biso   1.000  Ba
  O13      1.0000 0.12090  0.72880  0.46080  Biso   1.000  O
  O14      1.0000 0.01380  0.62450  0.47420  Biso   1.000  O
  O15      1.0000 0.60960  0.04840  0.87610  Biso   1.000  O
  O16      1.0000 0.47110  0.99620  0.94010  Biso   1.000  O
  O17      1.0000 0.55840  0.32290  0.87980  Biso   1.000  O
  O18      1.0000 0.82570  0.31410  0.84160  Biso   1.000  O
  C55      1.0000 0.68880  0.34580  0.85520  Biso   1.000  C
  C56      1.0000 0.65900  0.41930  0.83160  Biso   1.000  C
  C57      1.0000 0.72320  0.43680  0.78580  Biso   1.000  C
  H31      1.0000 0.79690  0.40570  0.76760  Biso   1.000  H
  C58      1.0000 0.68200  0.50210  0.76390  Biso   1.000  C
  H32      1.0000 0.72160  0.51320  0.73070  Biso   1.000  H
  C59      1.0000 0.58240  0.54860  0.79230  Biso   1.000  C
  C60      1.0000 0.52690  0.53340  0.84200  Biso   1.000  C
  H33      1.0000 0.46890  0.56660  0.86250  Biso   1.000  H
  C61      1.0000 0.55970  0.46730  0.86040  Biso   1.000  C
  H34      1.0000 0.51430  0.45470  0.89270  Biso   1.000  H
  C62      1.0000 0.52790  0.61860  0.77040  Biso   1.000  C
  C63      1.0000 0.10540  0.67640  0.48900  Biso   1.000  C
  C64      1.0000 0.18320  0.67870  0.54260  Biso   1.000  C
  C65      1.0000 0.16870  0.62200  0.57640  Biso   1.000  C
  H35      1.0000 0.10910  0.58190  0.56520  Biso   1.000  H
  C66      1.0000 0.23800  0.62390  0.62420  Biso   1.000  C
  H36      1.0000 0.22420  0.58510  0.64540  Biso   1.000  H
  C67      1.0000 0.27360  0.73740  0.56080  Biso   1.000  C
  H37      1.0000 0.28830  0.77580  0.53930  Biso   1.000  H
  C68      1.0000 0.34140  0.73900  0.61030  Biso   1.000  C
  H38      1.0000 0.39710  0.77940  0.62250  Biso   1.000  H
  C69      1.0000 0.53650  0.99570  0.89510  Biso   1.000  C
  C70      1.0000 0.52410  0.93010  0.86690  Biso   1.000  C
  C71      1.0000 0.56160  0.92780  0.81330  Biso   1.000  C
  H39      1.0000 0.59760  0.96850  0.79660  Biso   1.000  H
  C72      1.0000 0.54700  0.86840  0.78490  Biso   1.000  C
  H40      1.0000 0.57230  0.86920  0.74960  Biso   1.000  H
  C73      1.0000 0.49540  0.80770  0.80820  Biso   1.000  C
  C74      1.0000 0.46100  0.80940  0.86120  Biso   1.000  C
  H41      1.0000 0.42920  0.76820  0.87790  Biso   1.000  H
  C75      1.0000 0.47110  0.86870  0.88920  Biso   1.000  C
  H42      1.0000 0.44170  0.86780  0.92430  Biso   1.000  H
  C76      1.0000 0.47600  0.74160  0.77700  Biso   1.000  C
  C77      1.0000 0.41390  0.74230  0.72570  Biso   1.000  C
  H43      1.0000 0.37740  0.78430  0.71110  Biso   1.000  H
  C78      1.0000 0.40520  0.68320  0.69660  Biso   1.000  C
  C79      1.0000 0.46770  0.62120  0.71750  Biso   1.000  C
  H44      1.0000 0.47050  0.58130  0.69730  Biso   1.000  H
  C80      1.0000 0.52810  0.67870  0.79880  Biso   1.000  C
  H45      1.0000 0.56390  0.67730  0.83340  Biso   1.000  H
  C81      1.0000 0.32830  0.68050  0.64340  Biso   1.000  C
  Ba4      1.0000 0.31802  0.81140  0.39257  Biso   1.000  Ba
  O19      1.0000 0.87910  0.27120  0.96080  Biso   1.000  O
  O20      1.0000 0.98620  0.37550  0.97420  Biso   1.000  O
  O21      1.0000 0.39040  0.95160  0.37610  Biso   1.000  O
  O22      1.0000 0.52890  0.00380  0.44010  Biso   1.000  O
  O23      1.0000 0.44160  0.67710  0.37980  Biso   1.000  O
  O24      1.0000 0.17430  0.68590  0.34160  Biso   1.000  O
  C82      1.0000 0.31120  0.65420  0.35520  Biso   1.000  C
  C83      1.0000 0.34100  0.58070  0.33160  Biso   1.000  C
  C84      1.0000 0.27680  0.56320  0.28580  Biso   1.000  C
  H46      1.0000 0.20310  0.59430  0.26760  Biso   1.000  H
  C85      1.0000 0.31800  0.49790  0.26390  Biso   1.000  C
  H47      1.0000 0.27840  0.48680  0.23070  Biso   1.000  H
  C86      1.0000 0.41760  0.45140  0.29230  Biso   1.000  C
  C87      1.0000 0.47310  0.46660  0.34200  Biso   1.000  C
  H48      1.0000 0.53110  0.43340  0.36250  Biso   1.000  H
  C88      1.0000 0.44030  0.53270  0.36040  Biso   1.000  C
  H49      1.0000 0.48570  0.54530  0.39270  Biso   1.000  H
  C89      1.0000 0.47210  0.38140  0.27040  Biso   1.000  C
  C90      1.0000 0.89460  0.32360  0.98900  Biso   1.000  C
  C91      1.0000 0.81680  0.32130  0.04260  Biso   1.000  C
  C92      1.0000 0.83130  0.37800  0.07640  Biso   1.000  C
  H50      1.0000 0.89090  0.41810  0.06520  Biso   1.000  H
  C93      1.0000 0.76200  0.37610  0.12420  Biso   1.000  C
  H51      1.0000 0.77580  0.41490  0.14540  Biso   1.000  H
  C94      1.0000 0.72640  0.26260  0.06080  Biso   1.000  C
  H52      1.0000 0.71170  0.22420  0.03930  Biso   1.000  H
  C95      1.0000 0.65860  0.26100  0.11030  Biso   1.000  C
  H53      1.0000 0.60290  0.22060  0.12250  Biso   1.000  H
  C96      1.0000 0.46350  0.00430  0.39510  Biso   1.000  C
  C97      1.0000 0.47590  0.06990  0.36690  Biso   1.000  C
  C98      1.0000 0.43840  0.07220  0.31330  Biso   1.000  C
  H54      1.0000 0.40240  0.03150  0.29660  Biso   1.000  H
  C99      1.0000 0.45300  0.13160  0.28490  Biso   1.000  C
  H55      1.0000 0.42770  0.13080  0.24960  Biso   1.000  H
  C100     1.0000 0.50460  0.19230  0.30820  Biso   1.000  C
  C101     1.0000 0.53900  0.19060  0.36120  Biso   1.000  C
  H56      1.0000 0.57080  0.23180  0.37790  Biso   1.000  H
  C102     1.0000 0.52890  0.13130  0.38920  Biso   1.000  C
  H57      1.0000 0.55830  0.13220  0.42430  Biso   1.000  H
  C103     1.0000 0.52400  0.25840  0.27700  Biso   1.000  C
  C104     1.0000 0.58610  0.25770  0.22570  Biso   1.000  C
  H58      1.0000 0.62260  0.21570  0.21110  Biso   1.000  H
  C105     1.0000 0.59480  0.31680  0.19660  Biso   1.000  C
  C106     1.0000 0.53230  0.37880  0.21750  Biso   1.000  C
  H59      1.0000 0.52950  0.41870  0.19730  Biso   1.000  H
  C107     1.0000 0.47190  0.32130  0.29880  Biso   1.000  C
  H60      1.0000 0.43610  0.32270  0.33340  Biso   1.000  H
  C108     1.0000 0.67170  0.31950  0.14340  Biso   1.000  C
