data_image0
_cell_length_a       7.2652
_cell_length_b       19.3152
_cell_length_c       26.0723
_cell_angle_alpha    90
_cell_angle_beta     90
_cell_angle_gamma    90

_symmetry_space_group_name_H-M    "P 1"
_symmetry_int_tables_number       1

loop_
  _symmetry_equiv_pos_as_xyz
  'x, y, z'

loop_
  _atom_site_label
  _atom_site_occupancy
  _atom_site_fract_x
  _atom_site_fract_y
  _atom_site_fract_z
  _atom_site_thermal_displace_type
  _atom_site_B_iso_or_equiv
  _atom_site_type_symbol
  Ba1      1.0000 0.36744  0.30820  0.41167  Biso   1.000  Ba
  O1       1.0000 0.66930  0.26870  0.34140  Biso   1.000  O
  O2       1.0000 0.54970  0.37230  0.32870  Biso   1.000  O
  O3       1.0000 0.99030  0.32650  0.42130  Biso   1.000  O
  O4       1.0000 0.71410  0.31530  0.45570  Biso   1.000  O
  O5       1.0000 0.42120  0.45070  0.42570  Biso   1.000  O
  C1       1.0000 0.36160  0.15190  0.44540  Biso   1.000  C
  C2       1.0000 0.37580  0.07720  0.46690  Biso   1.000  C
  C3       1.0000 0.30190  0.06100  0.51220  Biso   1.000  C
  C4       1.0000 0.46970  0.02930  0.43820  Biso   1.000  C
  C5       1.0000 0.33660  0.99670  0.53350  Biso   1.000  C
  H1       1.0000 0.22590  0.09330  0.52960  Biso   1.000  H
  C6       1.0000 0.50100  0.96420  0.45840  Biso   1.000  C
  H2       1.0000 0.51280  0.04080  0.40480  Biso   1.000  H
  C7       1.0000 0.43740  0.94640  0.50650  Biso   1.000  C
  H3       1.0000 0.29190  0.98650  0.56690  Biso   1.000  H
  H4       1.0000 0.56750  0.93110  0.43880  Biso   1.000  H
  C8       1.0000 0.48650  0.87770  0.52980  Biso   1.000  C
  C9       1.0000 0.54020  0.87500  0.58120  Biso   1.000  C
  C10      1.0000 0.49010  0.81810  0.50180  Biso   1.000  C
  C11      1.0000 0.59420  0.81330  0.60480  Biso   1.000  C
  H5       1.0000 0.53990  0.91650  0.60090  Biso   1.000  H
  H6       1.0000 0.45980  0.81980  0.46640  Biso   1.000  H
  C12      1.0000 0.53690  0.75500  0.52390  Biso   1.000  C
  C13      1.0000 0.66370  0.81400  0.65710  Biso   1.000  C
  C14      1.0000 0.59370  0.75420  0.57470  Biso   1.000  C
  C15      1.0000 0.52170  0.69080  0.49310  Biso   1.000  C
  C16      1.0000 0.64120  0.75910  0.69000  Biso   1.000  C
  C17      1.0000 0.75600  0.87100  0.67700  Biso   1.000  C
  H7       1.0000 0.63340  0.71170  0.58940  Biso   1.000  H
  C18      1.0000 0.56600  0.69030  0.44120  Biso   1.000  C
  C19      1.0000 0.46600  0.62980  0.51500  Biso   1.000  C
  C20      1.0000 0.70230  0.76060  0.73990  Biso   1.000  C
  H8       1.0000 0.58140  0.71850  0.67780  Biso   1.000  H
  C21      1.0000 0.81700  0.87490  0.72650  Biso   1.000  C
  H9       1.0000 0.77720  0.90930  0.65500  Biso   1.000  H
  C22      1.0000 0.55800  0.62880  0.41400  Biso   1.000  C
  H10      1.0000 0.60150  0.73190  0.42450  Biso   1.000  H
  C23      1.0000 0.45000  0.56880  0.48630  Biso   1.000  C
  H11      1.0000 0.43750  0.62890  0.55060  Biso   1.000  H
  C24      1.0000 0.78590  0.81830  0.75990  Biso   1.000  C
  H12      1.0000 0.68630  0.72090  0.76100  Biso   1.000  H
  H13      1.0000 0.87980  0.91510  0.73830  Biso   1.000  H
  H14      1.0000 0.59430  0.62920  0.37900  Biso   1.000  H
  C25      1.0000 0.49970  0.56650  0.43530  Biso   1.000  C
  H15      1.0000 0.40400  0.52820  0.50240  Biso   1.000  H
  C26      1.0000 0.85560  0.82040  0.81360  Biso   1.000  C
  C27      1.0000 0.49150  0.50120  0.40600  Biso   1.000  C
  O6       1.0000 0.56390  0.50220  0.36050  Biso   1.000  O
  Ba2      1.0000 0.63256  0.69180  0.91167  Biso   1.000  Ba
  O7       1.0000 0.33070  0.73130  0.84140  Biso   1.000  O
  O8       1.0000 0.45030  0.62770  0.82870  Biso   1.000  O
  O9       1.0000 0.00970  0.67350  0.92130  Biso   1.000  O
  O10      1.0000 0.28590  0.68470  0.95570  Biso   1.000  O
  O11      1.0000 0.57880  0.54930  0.92570  Biso   1.000  O
  C28      1.0000 0.63840  0.84810  0.94540  Biso   1.000  C
  C29      1.0000 0.62420  0.92280  0.96690  Biso   1.000  C
  C30      1.0000 0.69810  0.93900  0.01220  Biso   1.000  C
  C31      1.0000 0.53030  0.97070  0.93820  Biso   1.000  C
  C32      1.0000 0.66340  0.00330  0.03350  Biso   1.000  C
  H16      1.0000 0.77410  0.90670  0.02960  Biso   1.000  H
  C33      1.0000 0.49900  0.03580  0.95840  Biso   1.000  C
  H17      1.0000 0.48720  0.95920  0.90480  Biso   1.000  H
  C34      1.0000 0.56260  0.05360  0.00650  Biso   1.000  C
  H18      1.0000 0.70810  0.01350  0.06690  Biso   1.000  H
  H19      1.0000 0.43250  0.06890  0.93880  Biso   1.000  H
  C35      1.0000 0.51350  0.12230  0.02980  Biso   1.000  C
  C36      1.0000 0.45980  0.12500  0.08120  Biso   1.000  C
  C37      1.0000 0.50990  0.18190  0.00180  Biso   1.000  C
  C38      1.0000 0.40580  0.18670  0.10480  Biso   1.000  C
  H20      1.0000 0.46010  0.08350  0.10090  Biso   1.000  H
  H21      1.0000 0.54020  0.18020  0.96640  Biso   1.000  H
  C39      1.0000 0.46310  0.24500  0.02390  Biso   1.000  C
  C40      1.0000 0.33630  0.18600  0.15710  Biso   1.000  C
  C41      1.0000 0.40630  0.24580  0.07470  Biso   1.000  C
  C42      1.0000 0.47830  0.30920  0.99310  Biso   1.000  C
  C43      1.0000 0.35880  0.24090  0.19000  Biso   1.000  C
  C44      1.0000 0.24400  0.12900  0.17700  Biso   1.000  C
  H22      1.0000 0.36660  0.28830  0.08940  Biso   1.000  H
  C45      1.0000 0.43400  0.30970  0.94120  Biso   1.000  C
  C46      1.0000 0.53400  0.37020  0.01500  Biso   1.000  C
  C47      1.0000 0.29770  0.23940  0.23990  Biso   1.000  C
  H23      1.0000 0.41860  0.28150  0.17780  Biso   1.000  H
  C48      1.0000 0.18300  0.12510  0.22650  Biso   1.000  C
  H24      1.0000 0.22280  0.09070  0.15500  Biso   1.000  H
  C49      1.0000 0.44200  0.37120  0.91400  Biso   1.000  C
  H25      1.0000 0.39850  0.26810  0.92450  Biso   1.000  H
  C50      1.0000 0.55000  0.43120  0.98630  Biso   1.000  C
  H26      1.0000 0.56250  0.37110  0.05060  Biso   1.000  H
  C51      1.0000 0.21410  0.18170  0.25990  Biso   1.000  C
  H27      1.0000 0.31370  0.27910  0.26100  Biso   1.000  H
  H28      1.0000 0.12020  0.08490  0.23830  Biso   1.000  H
  H29      1.0000 0.40570  0.37080  0.87900  Biso   1.000  H
  C52      1.0000 0.50030  0.43350  0.93530  Biso   1.000  C
  H30      1.0000 0.59600  0.47180  0.00240  Biso   1.000  H
  C53      1.0000 0.14440  0.17960  0.31360  Biso   1.000  C
  C54      1.0000 0.50850  0.49880  0.90600  Biso   1.000  C
  O12      1.0000 0.43610  0.49780  0.86050  Biso   1.000  O
  Ba3      1.0000 0.86744  0.19180  0.41167  Biso   1.000  Ba
  O13      1.0000 0.16930  0.23130  0.34140  Biso   1.000  O
  O14      1.0000 0.04970  0.12770  0.32870  Biso   1.000  O
  O15      1.0000 0.49030  0.17350  0.42130  Biso   1.000  O
  O16      1.0000 0.21410  0.18470  0.45570  Biso   1.000  O
  O17      1.0000 0.92120  0.04930  0.42570  Biso   1.000  O
  C55      1.0000 0.86160  0.34810  0.44540  Biso   1.000  C
  C56      1.0000 0.87580  0.42280  0.46690  Biso   1.000  C
  C57      1.0000 0.80190  0.43900  0.51220  Biso   1.000  C
  C58      1.0000 0.96970  0.47070  0.43820  Biso   1.000  C
  C59      1.0000 0.83660  0.50330  0.53350  Biso   1.000  C
  H31      1.0000 0.72590  0.40670  0.52960  Biso   1.000  H
  C60      1.0000 0.00100  0.53580  0.45840  Biso   1.000  C
  H32      1.0000 0.01280  0.45920  0.40480  Biso   1.000  H
  C61      1.0000 0.93740  0.55360  0.50650  Biso   1.000  C
  H33      1.0000 0.79190  0.51350  0.56690  Biso   1.000  H
  H34      1.0000 0.06750  0.56890  0.43880  Biso   1.000  H
  C62      1.0000 0.98650  0.62230  0.52980  Biso   1.000  C
  C63      1.0000 0.04020  0.62500  0.58120  Biso   1.000  C
  C64      1.0000 0.99010  0.68190  0.50180  Biso   1.000  C
  C65      1.0000 0.09420  0.68670  0.60480  Biso   1.000  C
  H35      1.0000 0.03990  0.58350  0.60090  Biso   1.000  H
  H36      1.0000 0.95980  0.68020  0.46640  Biso   1.000  H
  C66      1.0000 0.03690  0.74500  0.52390  Biso   1.000  C
  C67      1.0000 0.16370  0.68600  0.65710  Biso   1.000  C
  C68      1.0000 0.09370  0.74580  0.57470  Biso   1.000  C
  C69      1.0000 0.02170  0.80920  0.49310  Biso   1.000  C
  C70      1.0000 0.14120  0.74090  0.69000  Biso   1.000  C
  C71      1.0000 0.25600  0.62900  0.67700  Biso   1.000  C
  H37      1.0000 0.13340  0.78830  0.58940  Biso   1.000  H
  C72      1.0000 0.06600  0.80970  0.44120  Biso   1.000  C
  C73      1.0000 0.96600  0.87020  0.51500  Biso   1.000  C
  C74      1.0000 0.20230  0.73940  0.73990  Biso   1.000  C
  H38      1.0000 0.08140  0.78150  0.67780  Biso   1.000  H
  C75      1.0000 0.31700  0.62510  0.72650  Biso   1.000  C
  H39      1.0000 0.27720  0.59070  0.65500  Biso   1.000  H
  C76      1.0000 0.05800  0.87120  0.41400  Biso   1.000  C
  H40      1.0000 0.10150  0.76810  0.42450  Biso   1.000  H
  C77      1.0000 0.95000  0.93120  0.48630  Biso   1.000  C
  H41      1.0000 0.93750  0.87110  0.55060  Biso   1.000  H
  C78      1.0000 0.28590  0.68170  0.75990  Biso   1.000  C
  H42      1.0000 0.18630  0.77910  0.76100  Biso   1.000  H
  H43      1.0000 0.37980  0.58490  0.73830  Biso   1.000  H
  H44      1.0000 0.09430  0.87080  0.37900  Biso   1.000  H
  C79      1.0000 0.99970  0.93350  0.43530  Biso   1.000  C
  H45      1.0000 0.90400  0.97180  0.50240  Biso   1.000  H
  C80      1.0000 0.35560  0.67960  0.81360  Biso   1.000  C
  C81      1.0000 0.99150  0.99880  0.40600  Biso   1.000  C
  O18      1.0000 0.06390  0.99780  0.36050  Biso   1.000  O
  Ba4      1.0000 0.13256  0.80820  0.91167  Biso   1.000  Ba
  O19      1.0000 0.83070  0.76870  0.84140  Biso   1.000  O
  O20      1.0000 0.95030  0.87230  0.82870  Biso   1.000  O
  O21      1.0000 0.50970  0.82650  0.92130  Biso   1.000  O
  O22      1.0000 0.78590  0.81530  0.95570  Biso   1.000  O
  O23      1.0000 0.07880  0.95070  0.92570  Biso   1.000  O
  C82      1.0000 0.13840  0.65190  0.94540  Biso   1.000  C
  C83      1.0000 0.12420  0.57720  0.96690  Biso   1.000  C
  C84      1.0000 0.19810  0.56100  0.01220  Biso   1.000  C
  C85      1.0000 0.03030  0.52930  0.93820  Biso   1.000  C
  C86      1.0000 0.16340  0.49670  0.03350  Biso   1.000  C
  H46      1.0000 0.27410  0.59330  0.02960  Biso   1.000  H
  C87      1.0000 0.99900  0.46420  0.95840  Biso   1.000  C
  H47      1.0000 0.98720  0.54080  0.90480  Biso   1.000  H
  C88      1.0000 0.06260  0.44640  0.00650  Biso   1.000  C
  H48      1.0000 0.20810  0.48650  0.06690  Biso   1.000  H
  H49      1.0000 0.93250  0.43110  0.93880  Biso   1.000  H
  C89      1.0000 0.01350  0.37770  0.02980  Biso   1.000  C
  C90      1.0000 0.95980  0.37500  0.08120  Biso   1.000  C
  C91      1.0000 0.00990  0.31810  0.00180  Biso   1.000  C
  C92      1.0000 0.90580  0.31330  0.10480  Biso   1.000  C
  H50      1.0000 0.96010  0.41650  0.10090  Biso   1.000  H
  H51      1.0000 0.04020  0.31980  0.96640  Biso   1.000  H
  C93      1.0000 0.96310  0.25500  0.02390  Biso   1.000  C
  C94      1.0000 0.83630  0.31400  0.15710  Biso   1.000  C
  C95      1.0000 0.90630  0.25420  0.07470  Biso   1.000  C
  C96      1.0000 0.97830  0.19080  0.99310  Biso   1.000  C
  C97      1.0000 0.85880  0.25910  0.19000  Biso   1.000  C
  C98      1.0000 0.74400  0.37100  0.17700  Biso   1.000  C
  H52      1.0000 0.86660  0.21170  0.08940  Biso   1.000  H
  C99      1.0000 0.93400  0.19030  0.94120  Biso   1.000  C
  C100     1.0000 0.03400  0.12980  0.01500  Biso   1.000  C
  C101     1.0000 0.79770  0.26060  0.23990  Biso   1.000  C
  H53      1.0000 0.91860  0.21850  0.17780  Biso   1.000  H
  C102     1.0000 0.68300  0.37490  0.22650  Biso   1.000  C
  H54      1.0000 0.72280  0.40930  0.15500  Biso   1.000  H
  C103     1.0000 0.94200  0.12880  0.91400  Biso   1.000  C
  H55      1.0000 0.89850  0.23190  0.92450  Biso   1.000  H
  C104     1.0000 0.05000  0.06880  0.98630  Biso   1.000  C
  H56      1.0000 0.06250  0.12890  0.05060  Biso   1.000  H
  C105     1.0000 0.71410  0.31830  0.25990  Biso   1.000  C
  H57      1.0000 0.81370  0.22090  0.26100  Biso   1.000  H
  H58      1.0000 0.62020  0.41510  0.23830  Biso   1.000  H
  H59      1.0000 0.90570  0.12920  0.87900  Biso   1.000  H
  C106     1.0000 0.00030  0.06650  0.93530  Biso   1.000  C
  H60      1.0000 0.09600  0.02820  0.00240  Biso   1.000  H
  C107     1.0000 0.64440  0.32040  0.31360  Biso   1.000  C
  C108     1.0000 0.00850  0.00120  0.90600  Biso   1.000  C
  O24      1.0000 0.93610  0.00220  0.86050  Biso   1.000  O
