data_image0
_cell_length_a       7.2993
_cell_length_b       19.3615
_cell_length_c       26.0984
_cell_angle_alpha    90
_cell_angle_beta     90
_cell_angle_gamma    90

_symmetry_space_group_name_H-M    "P 1"
_symmetry_int_tables_number       1

loop_
  _symmetry_equiv_pos_as_xyz
  'x, y, z'

loop_
  _atom_site_label
  _atom_site_occupancy
  _atom_site_fract_x
  _atom_site_fract_y
  _atom_site_fract_z
  _atom_site_thermal_displace_type
  _atom_site_B_iso_or_equiv
  _atom_site_type_symbol
  Ba1      1.0000 0.12795  0.69239  0.98982  Biso   1.000  Ba
  O1       1.0000 0.55130  0.12890  0.40570  Biso   1.000  O
  O2       1.0000 0.67020  0.23200  0.41890  Biso   1.000  O
  O3       1.0000 0.00380  0.82630  0.99680  Biso   1.000  O
  O4       1.0000 0.27670  0.81620  0.03270  Biso   1.000  O
  O5       1.0000 0.07360  0.55070  0.00360  Biso   1.000  O
  O6       1.0000 0.92650  0.50100  0.93930  Biso   1.000  O
  C1       1.0000 0.64600  0.18080  0.39130  Biso   1.000  C
  C2       1.0000 0.71430  0.18190  0.33750  Biso   1.000  C
  C3       1.0000 0.79830  0.23910  0.31820  Biso   1.000  C
  H1       1.0000 0.81560  0.27720  0.33930  Biso   1.000  H
  C4       1.0000 0.85910  0.24170  0.26750  Biso   1.000  C
  H2       1.0000 0.91880  0.28100  0.25560  Biso   1.000  H
  C5       1.0000 0.83160  0.18630  0.23460  Biso   1.000  C
  C6       1.0000 0.73980  0.12790  0.25380  Biso   1.000  C
  H3       1.0000 0.72180  0.08990  0.23250  Biso   1.000  H
  C7       1.0000 0.67640  0.12550  0.30320  Biso   1.000  C
  H4       1.0000 0.60910  0.08770  0.31440  Biso   1.000  H
  C8       1.0000 0.00350  0.49960  0.98480  Biso   1.000  C
  C9       1.0000 0.98960  0.43310  0.01300  Biso   1.000  C
  C10      1.0000 0.93010  0.37200  0.99000  Biso   1.000  C
  H5       1.0000 0.89390  0.37240  0.95580  Biso   1.000  H
  C11      1.0000 0.92440  0.31160  0.01700  Biso   1.000  C
  H6       1.0000 0.88960  0.27110  0.00060  Biso   1.000  H
  C12      1.0000 0.97080  0.30980  0.06990  Biso   1.000  C
  C13      1.0000 0.02790  0.37140  0.09240  Biso   1.000  C
  H7       1.0000 0.05920  0.37170  0.12700  Biso   1.000  H
  C14      1.0000 0.03930  0.43220  0.06450  Biso   1.000  C
  H8       1.0000 0.08010  0.47240  0.08020  Biso   1.000  H
  C15      1.0000 0.95430  0.24560  0.10040  Biso   1.000  C
  C16      1.0000 0.00190  0.18300  0.07780  Biso   1.000  C
  H9       1.0000 0.02960  0.18140  0.04300  Biso   1.000  H
  C17      1.0000 0.00830  0.12220  0.10710  Biso   1.000  C
  C18      1.0000 0.95440  0.12560  0.15800  Biso   1.000  C
  H10      1.0000 0.95360  0.08530  0.17740  Biso   1.000  H
  C19      1.0000 0.90190  0.18710  0.18090  Biso   1.000  C
  C20      1.0000 0.90380  0.24700  0.15110  Biso   1.000  C
  H11      1.0000 0.87010  0.28880  0.16590  Biso   1.000  H
  C21      1.0000 0.05430  0.05480  0.08290  Biso   1.000  C
  C22      1.0000 0.15800  0.00550  0.11050  Biso   1.000  C
  H12      1.0000 0.20540  0.01700  0.14250  Biso   1.000  H
  C23      1.0000 0.18950  0.94060  0.09040  Biso   1.000  C
  H13      1.0000 0.26070  0.90900  0.10840  Biso   1.000  H
  C24      1.0000 0.01990  0.97120  0.01610  Biso   1.000  C
  H14      1.0000 0.97260  0.95960  0.98410  Biso   1.000  H
  C25      1.0000 0.99230  0.03710  0.03480  Biso   1.000  C
  H15      1.0000 0.93150  0.06970  0.01490  Biso   1.000  H
  C26      1.0000 0.11500  0.92240  0.04320  Biso   1.000  C
  C27      1.0000 0.13390  0.85020  0.02390  Biso   1.000  C
  Ba2      1.0000 0.87205  0.30761  0.48982  Biso   1.000  Ba
  O7       1.0000 0.44870  0.87110  0.90570  Biso   1.000  O
  O8       1.0000 0.32980  0.76800  0.91890  Biso   1.000  O
  O9       1.0000 0.99620  0.17370  0.49680  Biso   1.000  O
  O10      1.0000 0.72330  0.18380  0.53270  Biso   1.000  O
  O11      1.0000 0.92640  0.44930  0.50360  Biso   1.000  O
  O12      1.0000 0.07350  0.49900  0.43930  Biso   1.000  O
  C28      1.0000 0.35400  0.81920  0.89130  Biso   1.000  C
  C29      1.0000 0.28570  0.81810  0.83750  Biso   1.000  C
  C30      1.0000 0.20170  0.76090  0.81820  Biso   1.000  C
  H16      1.0000 0.18440  0.72280  0.83930  Biso   1.000  H
  C31      1.0000 0.14090  0.75830  0.76750  Biso   1.000  C
  H17      1.0000 0.08120  0.71900  0.75560  Biso   1.000  H
  C32      1.0000 0.16840  0.81370  0.73460  Biso   1.000  C
  C33      1.0000 0.26020  0.87210  0.75380  Biso   1.000  C
  H18      1.0000 0.27820  0.91010  0.73250  Biso   1.000  H
  C34      1.0000 0.32360  0.87450  0.80320  Biso   1.000  C
  H19      1.0000 0.39090  0.91230  0.81440  Biso   1.000  H
  C35      1.0000 0.99650  0.50040  0.48480  Biso   1.000  C
  C36      1.0000 0.01040  0.56690  0.51300  Biso   1.000  C
  C37      1.0000 0.06990  0.62800  0.49000  Biso   1.000  C
  H20      1.0000 0.10610  0.62760  0.45580  Biso   1.000  H
  C38      1.0000 0.07560  0.68840  0.51700  Biso   1.000  C
  H21      1.0000 0.11040  0.72890  0.50060  Biso   1.000  H
  C39      1.0000 0.02920  0.69020  0.56990  Biso   1.000  C
  C40      1.0000 0.97210  0.62860  0.59240  Biso   1.000  C
  H22      1.0000 0.94080  0.62830  0.62700  Biso   1.000  H
  C41      1.0000 0.96070  0.56780  0.56450  Biso   1.000  C
  H23      1.0000 0.91990  0.52760  0.58020  Biso   1.000  H
  C42      1.0000 0.04570  0.75440  0.60040  Biso   1.000  C
  C43      1.0000 0.99810  0.81700  0.57780  Biso   1.000  C
  H24      1.0000 0.97040  0.81860  0.54300  Biso   1.000  H
  C44      1.0000 0.99170  0.87780  0.60710  Biso   1.000  C
  C45      1.0000 0.04560  0.87440  0.65800  Biso   1.000  C
  H25      1.0000 0.04640  0.91470  0.67740  Biso   1.000  H
  C46      1.0000 0.09810  0.81290  0.68090  Biso   1.000  C
  C47      1.0000 0.09620  0.75300  0.65110  Biso   1.000  C
  H26      1.0000 0.12990  0.71120  0.66590  Biso   1.000  H
  C48      1.0000 0.94570  0.94520  0.58290  Biso   1.000  C
  C49      1.0000 0.84200  0.99450  0.61050  Biso   1.000  C
  H27      1.0000 0.79460  0.98300  0.64250  Biso   1.000  H
  C50      1.0000 0.81050  0.05940  0.59040  Biso   1.000  C
  H28      1.0000 0.73930  0.09100  0.60840  Biso   1.000  H
  C51      1.0000 0.98010  0.02880  0.51610  Biso   1.000  C
  H29      1.0000 0.02740  0.04040  0.48410  Biso   1.000  H
  C52      1.0000 0.00770  0.96290  0.53480  Biso   1.000  C
  H30      1.0000 0.06850  0.93030  0.51490  Biso   1.000  H
  C53      1.0000 0.88500  0.07760  0.54320  Biso   1.000  C
  C54      1.0000 0.86610  0.14980  0.52390  Biso   1.000  C
  Ba3      1.0000 0.62795  0.80761  0.98982  Biso   1.000  Ba
  O13      1.0000 0.05130  0.37110  0.40570  Biso   1.000  O
  O14      1.0000 0.17020  0.26800  0.41890  Biso   1.000  O
  O15      1.0000 0.50380  0.67370  0.99680  Biso   1.000  O
  O16      1.0000 0.77670  0.68380  0.03270  Biso   1.000  O
  O17      1.0000 0.57360  0.94930  0.00360  Biso   1.000  O
  O18      1.0000 0.42650  0.99900  0.93930  Biso   1.000  O
  C55      1.0000 0.14600  0.31920  0.39130  Biso   1.000  C
  C56      1.0000 0.21430  0.31810  0.33750  Biso   1.000  C
  C57      1.0000 0.29830  0.26090  0.31820  Biso   1.000  C
  H31      1.0000 0.31560  0.22280  0.33930  Biso   1.000  H
  C58      1.0000 0.35910  0.25830  0.26750  Biso   1.000  C
  H32      1.0000 0.41880  0.21900  0.25560  Biso   1.000  H
  C59      1.0000 0.33160  0.31370  0.23460  Biso   1.000  C
  C60      1.0000 0.23980  0.37210  0.25380  Biso   1.000  C
  H33      1.0000 0.22180  0.41010  0.23250  Biso   1.000  H
  C61      1.0000 0.17640  0.37450  0.30320  Biso   1.000  C
  H34      1.0000 0.10910  0.41230  0.31440  Biso   1.000  H
  C62      1.0000 0.50350  0.00040  0.98480  Biso   1.000  C
  C63      1.0000 0.48960  0.06690  0.01300  Biso   1.000  C
  C64      1.0000 0.43010  0.12800  0.99000  Biso   1.000  C
  H35      1.0000 0.39390  0.12760  0.95580  Biso   1.000  H
  C65      1.0000 0.42440  0.18840  0.01700  Biso   1.000  C
  H36      1.0000 0.38960  0.22890  0.00060  Biso   1.000  H
  C66      1.0000 0.47080  0.19020  0.06990  Biso   1.000  C
  C67      1.0000 0.52790  0.12860  0.09240  Biso   1.000  C
  H37      1.0000 0.55920  0.12830  0.12700  Biso   1.000  H
  C68      1.0000 0.53930  0.06780  0.06450  Biso   1.000  C
  H38      1.0000 0.58010  0.02760  0.08020  Biso   1.000  H
  C69      1.0000 0.45430  0.25440  0.10040  Biso   1.000  C
  C70      1.0000 0.50190  0.31700  0.07780  Biso   1.000  C
  H39      1.0000 0.52960  0.31860  0.04300  Biso   1.000  H
  C71      1.0000 0.50830  0.37780  0.10710  Biso   1.000  C
  C72      1.0000 0.45440  0.37440  0.15800  Biso   1.000  C
  H40      1.0000 0.45360  0.41470  0.17740  Biso   1.000  H
  C73      1.0000 0.40190  0.31290  0.18090  Biso   1.000  C
  C74      1.0000 0.40380  0.25300  0.15110  Biso   1.000  C
  H41      1.0000 0.37010  0.21120  0.16590  Biso   1.000  H
  C75      1.0000 0.55430  0.44520  0.08290  Biso   1.000  C
  C76      1.0000 0.65800  0.49450  0.11050  Biso   1.000  C
  H42      1.0000 0.70540  0.48300  0.14250  Biso   1.000  H
  C77      1.0000 0.68950  0.55940  0.09040  Biso   1.000  C
  H43      1.0000 0.76070  0.59100  0.10840  Biso   1.000  H
  C78      1.0000 0.51990  0.52880  0.01610  Biso   1.000  C
  H44      1.0000 0.47260  0.54040  0.98410  Biso   1.000  H
  C79      1.0000 0.49230  0.46290  0.03480  Biso   1.000  C
  H45      1.0000 0.43150  0.43030  0.01490  Biso   1.000  H
  C80      1.0000 0.61500  0.57760  0.04320  Biso   1.000  C
  C81      1.0000 0.63390  0.64980  0.02390  Biso   1.000  C
  Ba4      1.0000 0.37205  0.19239  0.48982  Biso   1.000  Ba
  O19      1.0000 0.94870  0.62890  0.90570  Biso   1.000  O
  O20      1.0000 0.82980  0.73200  0.91890  Biso   1.000  O
  O21      1.0000 0.49620  0.32630  0.49680  Biso   1.000  O
  O22      1.0000 0.22330  0.31620  0.53270  Biso   1.000  O
  O23      1.0000 0.42640  0.05070  0.50360  Biso   1.000  O
  O24      1.0000 0.57350  0.00100  0.43930  Biso   1.000  O
  C82      1.0000 0.85400  0.68080  0.89130  Biso   1.000  C
  C83      1.0000 0.78570  0.68190  0.83750  Biso   1.000  C
  C84      1.0000 0.70170  0.73910  0.81820  Biso   1.000  C
  H46      1.0000 0.68440  0.77720  0.83930  Biso   1.000  H
  C85      1.0000 0.64090  0.74170  0.76750  Biso   1.000  C
  H47      1.0000 0.58120  0.78100  0.75560  Biso   1.000  H
  C86      1.0000 0.66840  0.68630  0.73460  Biso   1.000  C
  C87      1.0000 0.76020  0.62790  0.75380  Biso   1.000  C
  H48      1.0000 0.77820  0.58990  0.73250  Biso   1.000  H
  C88      1.0000 0.82360  0.62550  0.80320  Biso   1.000  C
  H49      1.0000 0.89090  0.58770  0.81440  Biso   1.000  H
  C89      1.0000 0.49650  0.99960  0.48480  Biso   1.000  C
  C90      1.0000 0.51040  0.93310  0.51300  Biso   1.000  C
  C91      1.0000 0.56990  0.87200  0.49000  Biso   1.000  C
  H50      1.0000 0.60610  0.87240  0.45580  Biso   1.000  H
  C92      1.0000 0.57560  0.81160  0.51700  Biso   1.000  C
  H51      1.0000 0.61040  0.77110  0.50060  Biso   1.000  H
  C93      1.0000 0.52920  0.80980  0.56990  Biso   1.000  C
  C94      1.0000 0.47210  0.87140  0.59240  Biso   1.000  C
  H52      1.0000 0.44080  0.87170  0.62700  Biso   1.000  H
  C95      1.0000 0.46070  0.93220  0.56450  Biso   1.000  C
  H53      1.0000 0.41990  0.97240  0.58020  Biso   1.000  H
  C96      1.0000 0.54570  0.74560  0.60040  Biso   1.000  C
  C97      1.0000 0.49810  0.68300  0.57780  Biso   1.000  C
  H54      1.0000 0.47040  0.68140  0.54300  Biso   1.000  H
  C98      1.0000 0.49170  0.62220  0.60710  Biso   1.000  C
  C99      1.0000 0.54560  0.62560  0.65800  Biso   1.000  C
  H55      1.0000 0.54640  0.58530  0.67740  Biso   1.000  H
  C100     1.0000 0.59810  0.68710  0.68090  Biso   1.000  C
  C101     1.0000 0.59620  0.74700  0.65110  Biso   1.000  C
  H56      1.0000 0.62990  0.78880  0.66590  Biso   1.000  H
  C102     1.0000 0.44570  0.55480  0.58290  Biso   1.000  C
  C103     1.0000 0.34200  0.50550  0.61050  Biso   1.000  C
  H57      1.0000 0.29460  0.51700  0.64250  Biso   1.000  H
  C104     1.0000 0.31050  0.44060  0.59040  Biso   1.000  C
  H58      1.0000 0.23930  0.40900  0.60840  Biso   1.000  H
  C105     1.0000 0.48010  0.47120  0.51610  Biso   1.000  C
  H59      1.0000 0.52740  0.45960  0.48410  Biso   1.000  H
  C106     1.0000 0.50770  0.53710  0.53480  Biso   1.000  C
  H60      1.0000 0.56850  0.56970  0.51490  Biso   1.000  H
  C107     1.0000 0.38500  0.42240  0.54320  Biso   1.000  C
  C108     1.0000 0.36610  0.35020  0.52390  Biso   1.000  C
