data_KALFOU_clean
_audit_creation_date              2014-07-02
_audit_creation_method            'Materials Studio'
_symmetry_space_group_name_H-M    'P1'
_symmetry_Int_Tables_number       1
_symmetry_cell_setting            triclinic
loop_
_symmetry_equiv_pos_as_xyz
  x,y,z
_cell_length_a                    14.2719
_cell_length_b                    14.2720
_cell_length_c                    17.5688
_cell_angle_alpha                 76.4632
_cell_angle_beta                  76.4631
_cell_angle_gamma                 115.0700
loop_
_atom_site_label
_atom_site_type_symbol
_atom_site_fract_x
_atom_site_fract_y
_atom_site_fract_z
_atom_site_U_iso_or_equiv
_atom_site_adp_type
_atom_site_occupancy
Ni1    Ni    0.19325   0.21499   0.81474   0.01267  Uiso   1.00
Ni2    Ni    0.99201   0.97027   0.81474   0.01267  Uiso   1.00
Ni3    Ni    0.96499   0.44325   0.31474   0.01267  Uiso   1.00
Ni4    Ni    0.72027   0.24201   0.31474   0.01267  Uiso   1.00
H1     H     0.10700   0.15500   0.70200   0.01267  Uiso   1.00
H2     H     0.40440   0.28760   0.84860   0.01267  Uiso   1.00
H3     H     0.49820   0.38660   0.91900   0.01267  Uiso   1.00
H4     H     0.23830   0.42830   0.00660   0.01267  Uiso   1.00
H5     H     0.15190   0.32870   0.93480   0.01267  Uiso   1.00
H6     H     0.42490   0.54370   0.01640   0.01267  Uiso   1.00
H7     H     0.35570   0.32630   0.13480   0.01267  Uiso   1.00
H8     H     0.16300   0.25520   0.19840   0.01267  Uiso   1.00
H9     H     0.01490   0.27010   0.27020   0.01267  Uiso   1.00
H10    H     0.21440   0.58000   0.23120   0.01267  Uiso   1.00
H11    H     0.36670   0.57330   0.16100   0.01267  Uiso   1.00
H12    H     0.31460   0.05400   0.95980   0.01267  Uiso   1.00
H13    H     0.35130   0.96470   0.06540   0.01267  Uiso   1.00
H14    H     0.22240   0.78420   0.15820   0.01267  Uiso   1.00
H15    H     0.02170   0.77530   0.02700   0.01267  Uiso   1.00
H16    H     0.19100   0.14300   0.70200   0.01267  Uiso   1.00
H17    H     0.74700   0.86380   0.84860   0.01267  Uiso   1.00
H18    H     0.58280   0.69440   0.91900   0.01267  Uiso   1.00
H19    H     0.75510   0.56510   0.00660   0.01267  Uiso   1.00
H20    H     0.91330   0.73650   0.93480   0.01267  Uiso   1.00
H21    H     0.55870   0.43990   0.01640   0.01267  Uiso   1.00
H22    H     0.50950   0.53890   0.13480   0.01267  Uiso   1.00
H23    H     0.63860   0.54640   0.19840   0.01267  Uiso   1.00
H24    H     0.71490   0.45970   0.27020   0.01267  Uiso   1.00
H25    H     0.55440   0.18880   0.23120   0.01267  Uiso   1.00
H26    H     0.47230   0.26570   0.16100   0.01267  Uiso   1.00
H27    H     0.72560   0.98620   0.95980   0.01267  Uiso   1.00
H28    H     0.58330   0.96990   0.06540   0.01267  Uiso   1.00
H29    H     0.61940   0.05760   0.15820   0.01267  Uiso   1.00
H30    H     0.95130   0.19770   0.02700   0.01267  Uiso   1.00
H31    H     0.90500   0.35700   0.20200   0.01267  Uiso   1.00
H32    H     0.03760   0.65440   0.34860   0.01267  Uiso   1.00
H33    H     0.13660   0.74820   0.41900   0.01267  Uiso   1.00
H34    H     0.17830   0.48830   0.50660   0.01267  Uiso   1.00
H35    H     0.07870   0.40190   0.43480   0.01267  Uiso   1.00
H36    H     0.29370   0.67490   0.51640   0.01267  Uiso   1.00
H37    H     0.07630   0.60570   0.63480   0.01267  Uiso   1.00
H38    H     0.00520   0.41300   0.69840   0.01267  Uiso   1.00
H39    H     0.02010   0.26490   0.77020   0.01267  Uiso   1.00
H40    H     0.33000   0.46440   0.73120   0.01267  Uiso   1.00
H41    H     0.32330   0.61670   0.66100   0.01267  Uiso   1.00
H42    H     0.80400   0.56460   0.45980   0.01267  Uiso   1.00
H43    H     0.71470   0.60130   0.56540   0.01267  Uiso   1.00
H44    H     0.53420   0.47240   0.65820   0.01267  Uiso   1.00
H45    H     0.52530   0.27170   0.52700   0.01267  Uiso   1.00
H46    H     0.89300   0.44100   0.20200   0.01267  Uiso   1.00
H47    H     0.61380   0.99700   0.34860   0.01267  Uiso   1.00
H48    H     0.44440   0.83280   0.41900   0.01267  Uiso   1.00
H49    H     0.31510   0.00510   0.50660   0.01267  Uiso   1.00
H50    H     0.48650   0.16330   0.43480   0.01267  Uiso   1.00
H51    H     0.18990   0.80870   0.51640   0.01267  Uiso   1.00
H52    H     0.28890   0.75950   0.63480   0.01267  Uiso   1.00
H53    H     0.29640   0.88860   0.69840   0.01267  Uiso   1.00
H54    H     0.20970   0.96490   0.77020   0.01267  Uiso   1.00
H55    H     0.93880   0.80440   0.73120   0.01267  Uiso   1.00
H56    H     0.01570   0.72230   0.66100   0.01267  Uiso   1.00
H57    H     0.73620   0.97560   0.45980   0.01267  Uiso   1.00
H58    H     0.71990   0.83330   0.56540   0.01267  Uiso   1.00
H59    H     0.80760   0.86940   0.65820   0.01267  Uiso   1.00
H60    H     0.94770   0.20130   0.52700   0.01267  Uiso   1.00
C1     C     0.37007   0.31607   0.88146   0.01267  Uiso   1.00
C2     C     0.42650   0.37450   0.92420   0.01267  Uiso   1.00
C3     C     0.37699   0.41499   0.97462   0.01267  Uiso   1.00
C4     C     0.27357   0.39877   0.97566   0.01267  Uiso   1.00
C5     C     0.22266   0.34026   0.93188   0.01267  Uiso   1.00
C6     C     0.42835   0.47415   0.02650   0.01267  Uiso   1.00
C7     C     0.37787   0.40547   0.12406   0.01267  Uiso   1.00
C8     C     0.28334   0.41214   0.17452   0.01267  Uiso   1.00
C9     C     0.17600   0.32240   0.20540   0.01267  Uiso   1.00
C10    C     0.08730   0.33290   0.24720   0.01267  Uiso   1.00
C11    C     0.20340   0.51300   0.22480   0.01267  Uiso   1.00
C12    C     0.29530   0.50910   0.18340   0.01267  Uiso   1.00
C13    C     0.16216   0.92596   0.98568   0.01267  Uiso   1.00
C14    C     0.26120   0.97960   0.99640   0.01267  Uiso   1.00
C15    C     0.28300   0.92640   0.05940   0.01267  Uiso   1.00
C16    C     0.20780   0.81860   0.11360   0.01267  Uiso   1.00
C17    C     0.10808   0.75968   0.10164   0.01267  Uiso   1.00
C18    C     0.08715   0.81435   0.03650   0.01267  Uiso   1.00
C19    C     0.02605   0.63745   0.15850   0.01267  Uiso   1.00
C20    C     0.13722   0.98742   0.91756   0.01267  Uiso   1.00
C21    C     0.74847   0.80247   0.88146   0.01267  Uiso   1.00
C22    C     0.64930   0.70130   0.92420   0.01267  Uiso   1.00
C23    C     0.64839   0.61039   0.97462   0.01267  Uiso   1.00
C24    C     0.75077   0.62557   0.97566   0.01267  Uiso   1.00
C25    C     0.84546   0.72786   0.93188   0.01267  Uiso   1.00
C26    C     0.54515   0.49935   0.02650   0.01267  Uiso   1.00
C27    C     0.49807   0.47047   0.12406   0.01267  Uiso   1.00
C28    C     0.54214   0.41334   0.17452   0.01267  Uiso   1.00
C29    C     0.61860   0.47220   0.20540   0.01267  Uiso   1.00
C30    C     0.66550   0.41990   0.24720   0.01267  Uiso   1.00
C31    C     0.57180   0.26220   0.22480   0.01267  Uiso   1.00
C32    C     0.52130   0.30750   0.18340   0.01267  Uiso   1.00
C33    C     0.85216   0.08836   0.98568   0.01267  Uiso   1.00
C34    C     0.74240   0.02400   0.99640   0.01267  Uiso   1.00
C35    C     0.65760   0.01420   0.05940   0.01267  Uiso   1.00
C36    C     0.67860   0.06780   0.11360   0.01267  Uiso   1.00
C37    C     0.79028   0.13868   0.10164   0.01267  Uiso   1.00
C38    C     0.87635   0.14915   0.03650   0.01267  Uiso   1.00
C39    C     0.81545   0.20405   0.15850   0.01267  Uiso   1.00
C40    C     0.94522   0.09502   0.91756   0.01267  Uiso   1.00
C41    C     0.06607   0.62007   0.38146   0.01267  Uiso   1.00
C42    C     0.12450   0.67650   0.42420   0.01267  Uiso   1.00
C43    C     0.16499   0.62699   0.47462   0.01267  Uiso   1.00
C44    C     0.14877   0.52357   0.47566   0.01267  Uiso   1.00
C45    C     0.09026   0.47266   0.43188   0.01267  Uiso   1.00
C46    C     0.22415   0.67835   0.52650   0.01267  Uiso   1.00
C47    C     0.15547   0.62787   0.62406   0.01267  Uiso   1.00
C48    C     0.16214   0.53334   0.67452   0.01267  Uiso   1.00
C49    C     0.07240   0.42600   0.70540   0.01267  Uiso   1.00
C50    C     0.08290   0.33730   0.74720   0.01267  Uiso   1.00
C51    C     0.26300   0.45340   0.72480   0.01267  Uiso   1.00
C52    C     0.25910   0.54530   0.68340   0.01267  Uiso   1.00
C53    C     0.67596   0.41216   0.48568   0.01267  Uiso   1.00
C54    C     0.72960   0.51120   0.49640   0.01267  Uiso   1.00
C55    C     0.67640   0.53300   0.55940   0.01267  Uiso   1.00
C56    C     0.56860   0.45780   0.61360   0.01267  Uiso   1.00
C57    C     0.50968   0.35808   0.60164   0.01267  Uiso   1.00
C58    C     0.56435   0.33715   0.53650   0.01267  Uiso   1.00
C59    C     0.38745   0.27605   0.65850   0.01267  Uiso   1.00
C60    C     0.73742   0.38722   0.41756   0.01267  Uiso   1.00
C61    C     0.55247   0.99847   0.38146   0.01267  Uiso   1.00
C62    C     0.45130   0.89930   0.42420   0.01267  Uiso   1.00
C63    C     0.36039   0.89839   0.47462   0.01267  Uiso   1.00
C64    C     0.37557   0.00077   0.47566   0.01267  Uiso   1.00
C65    C     0.47786   0.09546   0.43188   0.01267  Uiso   1.00
C66    C     0.24935   0.79515   0.52650   0.01267  Uiso   1.00
C67    C     0.22047   0.74807   0.62406   0.01267  Uiso   1.00
C68    C     0.16334   0.79214   0.67452   0.01267  Uiso   1.00
C69    C     0.22220   0.86860   0.70540   0.01267  Uiso   1.00
C70    C     0.16990   0.91550   0.74720   0.01267  Uiso   1.00
C71    C     0.01220   0.82180   0.72480   0.01267  Uiso   1.00
C72    C     0.05750   0.77130   0.68340   0.01267  Uiso   1.00
C73    C     0.83836   0.10216   0.48568   0.01267  Uiso   1.00
C74    C     0.77400   0.99240   0.49640   0.01267  Uiso   1.00
C75    C     0.76420   0.90760   0.55940   0.01267  Uiso   1.00
C76    C     0.81780   0.92860   0.61360   0.01267  Uiso   1.00
C77    C     0.88868   0.04028   0.60164   0.01267  Uiso   1.00
C78    C     0.89915   0.12635   0.53650   0.01267  Uiso   1.00
C79    C     0.95405   0.06545   0.65850   0.01267  Uiso   1.00
C80    C     0.84502   0.19522   0.41756   0.01267  Uiso   1.00
N1     N     0.27050   0.29828   0.88442   0.01267  Uiso   1.00
N2     N     0.09953   0.42653   0.25614   0.01267  Uiso   1.00
N3     N     0.84508   0.81730   0.88442   0.01267  Uiso   1.00
N4     N     0.64433   0.31733   0.25614   0.01267  Uiso   1.00
N5     N     0.04828   0.52050   0.38442   0.01267  Uiso   1.00
N6     N     0.17653   0.34953   0.75614   0.01267  Uiso   1.00
N7     N     0.56730   0.09508   0.38442   0.01267  Uiso   1.00
N8     N     0.06733   0.89433   0.75614   0.01267  Uiso   1.00
O1     O     0.21419   0.08763   0.87138   0.01267  Uiso   1.00
O2     O     0.04638   0.93520   0.91082   0.01267  Uiso   1.00
O3     O     0.94695   0.58135   0.14010   0.01267  Uiso   1.00
O4     O     0.04496   0.60178   0.22266   0.01267  Uiso   1.00
O5     O     0.91443   0.04099   0.87138   0.01267  Uiso   1.00
O6     O     0.04280   0.15398   0.91082   0.01267  Uiso   1.00
O7     O     0.91295   0.27855   0.14010   0.01267  Uiso   1.00
O8     O     0.73238   0.17556   0.22266   0.01267  Uiso   1.00
O9     O     0.83763   0.46419   0.37138   0.01267  Uiso   1.00
O10    O     0.68520   0.29638   0.41082   0.01267  Uiso   1.00
O11    O     0.33135   0.19695   0.64010   0.01267  Uiso   1.00
O12    O     0.35178   0.29496   0.72266   0.01267  Uiso   1.00
O13    O     0.79099   0.16443   0.37138   0.01267  Uiso   1.00
O14    O     0.90398   0.29280   0.41082   0.01267  Uiso   1.00
O15    O     0.02855   0.16295   0.64010   0.01267  Uiso   1.00
O16    O     0.92556   0.98238   0.72266   0.01267  Uiso   1.00
O17    O     0.13042   0.13042   0.73916   0.01267  Uiso   1.00
O18    O     0.88042   0.38042   0.23916   0.01267  Uiso   1.00
