data_KALGAH_clean
_audit_creation_date              2014-07-02
_audit_creation_method            'Materials Studio'
_symmetry_space_group_name_H-M    'P1'
_symmetry_Int_Tables_number       1
_symmetry_cell_setting            triclinic
loop_
_symmetry_equiv_pos_as_xyz
  x,y,z
_cell_length_a                    14.0243
_cell_length_b                    14.0243
_cell_length_c                    17.9178
_cell_angle_alpha                 103.7870
_cell_angle_beta                  103.7870
_cell_angle_gamma                 113.0200
loop_
_atom_site_label
_atom_site_type_symbol
_atom_site_fract_x
_atom_site_fract_y
_atom_site_fract_z
_atom_site_U_iso_or_equiv
_atom_site_adp_type
_atom_site_occupancy
Ni1    Ni    0.19918   0.21810   0.19506   0.01267  Uiso   1.00
Ni2    Ni    0.99588   0.97696   0.19506   0.01267  Uiso   1.00
Ni3    Ni    0.96810   0.44918   0.69506   0.01267  Uiso   1.00
Ni4    Ni    0.72696   0.24588   0.69506   0.01267  Uiso   1.00
H1     H     0.02380   0.27560   0.24240   0.01267  Uiso   1.00
H2     H     0.01050   0.42490   0.31140   0.01267  Uiso   1.00
H3     H     0.33060   0.61920   0.35580   0.01267  Uiso   1.00
H4     H     0.33650   0.46630   0.28220   0.01267  Uiso   1.00
H5     H     0.08710   0.62010   0.38700   0.01267  Uiso   1.00
H6     H     0.30250   0.68030   0.49900   0.01267  Uiso   1.00
H7     H     0.18090   0.48930   0.50460   0.01267  Uiso   1.00
H8     H     0.07710   0.40550   0.57340   0.01267  Uiso   1.00
H9     H     0.04650   0.66770   0.66820   0.01267  Uiso   1.00
H10    H     0.14490   0.76030   0.59760   0.01267  Uiso   1.00
H11    H     0.31520   0.04760   0.05020   0.01267  Uiso   1.00
H12    H     0.35140   0.95300   0.94380   0.01267  Uiso   1.00
H13    H     0.21760   0.77320   0.85260   0.01267  Uiso   1.00
H14    H     0.01110   0.78230   0.97400   0.01267  Uiso   1.00
H15    H     0.21860   0.96680   0.24240   0.01267  Uiso   1.00
H16    H     0.30090   0.88650   0.31140   0.01267  Uiso   1.00
H17    H     0.02520   0.73660   0.35580   0.01267  Uiso   1.00
H18    H     0.94570   0.81590   0.28220   0.01267  Uiso   1.00
H19    H     0.29990   0.76690   0.38700   0.01267  Uiso   1.00
H20    H     0.19650   0.81870   0.49900   0.01267  Uiso   1.00
H21    H     0.32370   0.01530   0.50460   0.01267  Uiso   1.00
H22    H     0.49630   0.16790   0.57340   0.01267  Uiso   1.00
H23    H     0.62170   0.00050   0.66820   0.01267  Uiso   1.00
H24    H     0.45270   0.83730   0.59760   0.01267  Uiso   1.00
H25    H     0.73500   0.00260   0.05020   0.01267  Uiso   1.00
H26    H     0.59240   0.99080   0.94380   0.01267  Uiso   1.00
H27    H     0.63500   0.07940   0.85260   0.01267  Uiso   1.00
H28    H     0.96290   0.19170   0.97400   0.01267  Uiso   1.00
H29    H     0.02560   0.27380   0.74240   0.01267  Uiso   1.00
H30    H     0.17490   0.26050   0.81140   0.01267  Uiso   1.00
H31    H     0.36920   0.58060   0.85580   0.01267  Uiso   1.00
H32    H     0.21630   0.58650   0.78220   0.01267  Uiso   1.00
H33    H     0.37010   0.33710   0.88700   0.01267  Uiso   1.00
H34    H     0.43030   0.55250   0.99900   0.01267  Uiso   1.00
H35    H     0.23930   0.43090   0.00460   0.01267  Uiso   1.00
H36    H     0.15550   0.32710   0.07340   0.01267  Uiso   1.00
H37    H     0.41770   0.29650   0.16820   0.01267  Uiso   1.00
H38    H     0.51030   0.39490   0.09760   0.01267  Uiso   1.00
H39    H     0.79760   0.56520   0.55020   0.01267  Uiso   1.00
H40    H     0.70300   0.60140   0.44380   0.01267  Uiso   1.00
H41    H     0.52320   0.46760   0.35260   0.01267  Uiso   1.00
H42    H     0.53230   0.26110   0.47400   0.01267  Uiso   1.00
H43    H     0.71680   0.46860   0.74240   0.01267  Uiso   1.00
H44    H     0.63650   0.55090   0.81140   0.01267  Uiso   1.00
H45    H     0.48660   0.27520   0.85580   0.01267  Uiso   1.00
H46    H     0.56590   0.19570   0.78220   0.01267  Uiso   1.00
H47    H     0.51690   0.54990   0.88700   0.01267  Uiso   1.00
H48    H     0.56870   0.44650   0.99900   0.01267  Uiso   1.00
H49    H     0.76530   0.57370   0.00460   0.01267  Uiso   1.00
H50    H     0.91790   0.74630   0.07340   0.01267  Uiso   1.00
H51    H     0.75050   0.87170   0.16820   0.01267  Uiso   1.00
H52    H     0.58730   0.70270   0.09760   0.01267  Uiso   1.00
H53    H     0.75260   0.98500   0.55020   0.01267  Uiso   1.00
H54    H     0.74080   0.84240   0.44380   0.01267  Uiso   1.00
H55    H     0.82940   0.88500   0.35260   0.01267  Uiso   1.00
H56    H     0.94170   0.21290   0.47400   0.01267  Uiso   1.00
C1     C     0.08710   0.34630   0.26520   0.01267  Uiso   1.00
C2     C     0.07910   0.43530   0.30720   0.01267  Uiso   1.00
C3     C     0.17120   0.54180   0.34460   0.01267  Uiso   1.00
C4     C     0.26620   0.54940   0.33300   0.01267  Uiso   1.00
C5     C     0.26930   0.45710   0.28860   0.01267  Uiso   1.00
C6     C     0.16580   0.63880   0.39680   0.01267  Uiso   1.00
C7     C     0.23290   0.68610   0.48980   0.01267  Uiso   1.00
C8     C     0.17460   0.63640   0.54180   0.01267  Uiso   1.00
C9     C     0.15360   0.52760   0.53660   0.01267  Uiso   1.00
C10    C     0.09290   0.47910   0.57900   0.01267  Uiso   1.00
C11    C     0.07370   0.63170   0.63440   0.01267  Uiso   1.00
C12    C     0.13310   0.68770   0.59200   0.01267  Uiso   1.00
C13    C     0.15960   0.92400   0.02220   0.01267  Uiso   1.00
C14    C     0.26120   0.97500   0.01340   0.01267  Uiso   1.00
C15    C     0.28280   0.91860   0.95000   0.01267  Uiso   1.00
C16    C     0.20300   0.81140   0.89560   0.01267  Uiso   1.00
C17    C     0.10130   0.76030   0.90440   0.01267  Uiso   1.00
C18    C     0.07970   0.81670   0.96780   0.01267  Uiso   1.00
C19    C     0.14060   0.98860   0.09260   0.01267  Uiso   1.00
C20    C     0.02030   0.64150   0.84640   0.01267  Uiso   1.00
C21    C     0.17810   0.91890   0.26520   0.01267  Uiso   1.00
C22    C     0.22810   0.87190   0.30720   0.01267  Uiso   1.00
C23    C     0.17340   0.80280   0.34460   0.01267  Uiso   1.00
C24    C     0.06680   0.78360   0.33300   0.01267  Uiso   1.00
C25    C     0.01930   0.83150   0.28860   0.01267  Uiso   1.00
C26    C     0.23100   0.75800   0.39680   0.01267  Uiso   1.00
C27    C     0.25690   0.80370   0.48980   0.01267  Uiso   1.00
C28    C     0.36720   0.90540   0.54180   0.01267  Uiso   1.00
C29    C     0.38300   0.00900   0.53660   0.01267  Uiso   1.00
C30    C     0.48610   0.09990   0.57900   0.01267  Uiso   1.00
C31    C     0.56070   0.00270   0.63440   0.01267  Uiso   1.00
C32    C     0.45890   0.90430   0.59200   0.01267  Uiso   1.00
C33    C     0.86260   0.09820   0.02220   0.01267  Uiso   1.00
C34    C     0.75220   0.03840   0.01340   0.01267  Uiso   1.00
C35    C     0.66720   0.03140   0.95000   0.01267  Uiso   1.00
C36    C     0.69260   0.08420   0.89560   0.01267  Uiso   1.00
C37    C     0.80310   0.14410   0.90440   0.01267  Uiso   1.00
C38    C     0.88810   0.15110   0.96780   0.01267  Uiso   1.00
C39    C     0.95200   0.10400   0.09260   0.01267  Uiso   1.00
C40    C     0.82610   0.20490   0.84640   0.01267  Uiso   1.00
C41    C     0.09630   0.33710   0.76520   0.01267  Uiso   1.00
C42    C     0.18530   0.32910   0.80720   0.01267  Uiso   1.00
C43    C     0.29180   0.42120   0.84460   0.01267  Uiso   1.00
C44    C     0.29940   0.51620   0.83300   0.01267  Uiso   1.00
C45    C     0.20710   0.51930   0.78860   0.01267  Uiso   1.00
C46    C     0.38880   0.41580   0.89680   0.01267  Uiso   1.00
C47    C     0.43610   0.48290   0.98980   0.01267  Uiso   1.00
C48    C     0.38640   0.42460   0.04180   0.01267  Uiso   1.00
C49    C     0.27760   0.40360   0.03660   0.01267  Uiso   1.00
C50    C     0.22910   0.34290   0.07900   0.01267  Uiso   1.00
C51    C     0.38170   0.32370   0.13440   0.01267  Uiso   1.00
C52    C     0.43770   0.38310   0.09200   0.01267  Uiso   1.00
C53    C     0.67400   0.40960   0.52220   0.01267  Uiso   1.00
C54    C     0.72500   0.51120   0.51340   0.01267  Uiso   1.00
C55    C     0.66860   0.53280   0.45000   0.01267  Uiso   1.00
C56    C     0.56140   0.45300   0.39560   0.01267  Uiso   1.00
C57    C     0.51030   0.35130   0.40440   0.01267  Uiso   1.00
C58    C     0.56670   0.32970   0.46780   0.01267  Uiso   1.00
C59    C     0.73860   0.39060   0.59260   0.01267  Uiso   1.00
C60    C     0.39150   0.27030   0.34640   0.01267  Uiso   1.00
C61    C     0.66890   0.42810   0.76520   0.01267  Uiso   1.00
C62    C     0.62190   0.47810   0.80720   0.01267  Uiso   1.00
C63    C     0.55280   0.42340   0.84460   0.01267  Uiso   1.00
C64    C     0.53360   0.31680   0.83300   0.01267  Uiso   1.00
C65    C     0.58150   0.26930   0.78860   0.01267  Uiso   1.00
C66    C     0.50800   0.48100   0.89680   0.01267  Uiso   1.00
C67    C     0.55370   0.50690   0.98980   0.01267  Uiso   1.00
C68    C     0.65540   0.61720   0.04180   0.01267  Uiso   1.00
C69    C     0.75900   0.63300   0.03660   0.01267  Uiso   1.00
C70    C     0.84990   0.73610   0.07900   0.01267  Uiso   1.00
C71    C     0.75270   0.81070   0.13440   0.01267  Uiso   1.00
C72    C     0.65430   0.70890   0.09200   0.01267  Uiso   1.00
C73    C     0.84820   0.11260   0.52220   0.01267  Uiso   1.00
C74    C     0.78840   0.00220   0.51340   0.01267  Uiso   1.00
C75    C     0.78140   0.91720   0.45000   0.01267  Uiso   1.00
C76    C     0.83420   0.94260   0.39560   0.01267  Uiso   1.00
C77    C     0.89410   0.05310   0.40440   0.01267  Uiso   1.00
C78    C     0.90110   0.13810   0.46780   0.01267  Uiso   1.00
C79    C     0.85400   0.20200   0.59260   0.01267  Uiso   1.00
C80    C     0.95490   0.07610   0.34640   0.01267  Uiso   1.00
N1     N     0.18110   0.35430   0.25420   0.01267  Uiso   1.00
N2     N     0.05489   0.52929   0.62798   0.01267  Uiso   1.00
N3     N     0.07310   0.89990   0.25420   0.01267  Uiso   1.00
N4     N     0.57309   0.09869   0.62798   0.01267  Uiso   1.00
N5     N     0.10430   0.43110   0.75420   0.01267  Uiso   1.00
N6     N     0.27929   0.30489   0.12798   0.01267  Uiso   1.00
N7     N     0.64990   0.32310   0.75420   0.01267  Uiso   1.00
N8     N     0.84869   0.82309   0.12798   0.01267  Uiso   1.00
O1     O     0.21710   0.08470   0.13720   0.01267  Uiso   1.00
O2     O     0.05025   0.93805   0.10090   0.01267  Uiso   1.00
O3     O     0.93637   0.58697   0.86214   0.01267  Uiso   1.00
O4     O     0.04330   0.60590   0.78500   0.01267  Uiso   1.00
O5     O     0.92010   0.05250   0.13720   0.01267  Uiso   1.00
O6     O     0.05065   0.16285   0.10090   0.01267  Uiso   1.00
O7     O     0.92577   0.27517   0.86214   0.01267  Uiso   1.00
O8     O     0.74170   0.17910   0.78500   0.01267  Uiso   1.00
O9     O     0.83470   0.46710   0.63720   0.01267  Uiso   1.00
O10    O     0.68805   0.30025   0.60090   0.01267  Uiso   1.00
O11    O     0.33697   0.18637   0.36214   0.01267  Uiso   1.00
O12    O     0.35590   0.29330   0.28500   0.01267  Uiso   1.00
O13    O     0.80250   0.17010   0.63720   0.01267  Uiso   1.00
O14    O     0.91285   0.30065   0.60090   0.01267  Uiso   1.00
O15    O     0.02517   0.17577   0.36214   0.01267  Uiso   1.00
O16    O     0.92910   0.99170   0.28500   0.01267  Uiso   1.00
O17    O     0.13410   0.13410   0.26820   0.01267  Uiso   1.00
O18    O     0.88410   0.38410   0.76820   0.01267  Uiso   1.00
