data_image0
_cell_length_a       10.903
_cell_length_b       10.96
_cell_length_c       14.84
_cell_angle_alpha    82.55
_cell_angle_beta     85.61
_cell_angle_gamma    88.79

_symmetry_space_group_name_H-M    "P 1"
_symmetry_int_tables_number       1

loop_
  _symmetry_equiv_pos_as_xyz
  'x, y, z'

loop_
  _atom_site_label
  _atom_site_occupancy
  _atom_site_fract_x
  _atom_site_fract_y
  _atom_site_fract_z
  _atom_site_thermal_displace_type
  _atom_site_B_iso_or_equiv
  _atom_site_type_symbol
  Zn1      1.0000 0.44930  0.78383  0.39492  Biso   1.000  Zn
  Zn2      1.0000 0.45129  0.82184  0.18907  Biso   1.000  Zn
  O1       1.0000 0.63680  0.77850  0.40740  Biso   1.000  O
  O2       1.0000 0.62220  0.79890  0.25710  Biso   1.000  O
  O3       1.0000 0.28000  0.80520  0.32760  Biso   1.000  O
  O4       1.0000 0.26470  0.83210  0.17640  Biso   1.000  O
  O5       1.0000 0.45540  0.97100  0.36690  Biso   1.000  O
  O6       1.0000 0.45700  0.99910  0.21150  Biso   1.000  O
  O7       1.0000 0.44330  0.63470  0.21730  Biso   1.000  O
  O8       1.0000 0.44450  0.60610  0.37210  Biso   1.000  O
  N1       1.0000 0.34690  0.77560  0.51830  Biso   1.000  N
  N2       1.0000 0.55860  0.82810  0.06750  Biso   1.000  N
  F1       1.0000 0.18900  0.88110  0.82950  Biso   1.000  F
  F2       1.0000 0.00190  0.90020  0.95340  Biso   1.000  F
  C1       1.0000 0.82240  0.79420  0.30900  Biso   1.000  C
  C2       1.0000 0.89800  0.78290  0.38190  Biso   1.000  C
  H1       1.0000 0.86310  0.76980  0.44150  Biso   1.000  H
  C3       1.0000 0.02520  0.79110  0.36540  Biso   1.000  C
  H2       1.0000 0.07480  0.78420  0.41410  Biso   1.000  H
  C4       1.0000 0.07880  0.80970  0.27640  Biso   1.000  C
  C5       1.0000 0.00180  0.82140  0.20170  Biso   1.000  C
  H3       1.0000 0.03550  0.83550  0.14180  Biso   1.000  H
  C6       1.0000 0.87620  0.81120  0.22080  Biso   1.000  C
  H4       1.0000 0.82580  0.81600  0.17260  Biso   1.000  H
  C7       1.0000 0.68330  0.78810  0.32600  Biso   1.000  C
  C8       1.0000 0.21830  0.81550  0.25900  Biso   1.000  C
  C9       1.0000 0.45090  0.17560  0.29050  Biso   1.000  C
  C10      1.0000 0.40210  0.22450  0.36930  Biso   1.000  C
  H5       1.0000 0.37100  0.17240  0.42010  Biso   1.000  H
  C11      1.0000 0.40090  0.35210  0.37040  Biso   1.000  C
  H6       1.0000 0.37110  0.38460  0.42280  Biso   1.000  H
  C12      1.0000 0.44450  0.43190  0.29290  Biso   1.000  C
  C13      1.0000 0.49350  0.38210  0.21520  Biso   1.000  C
  H7       1.0000 0.52350  0.43470  0.16440  Biso   1.000  H
  C14      1.0000 0.49790  0.25440  0.21270  Biso   1.000  C
  H8       1.0000 0.53110  0.22220  0.16100  Biso   1.000  H
  C15      1.0000 0.45410  0.03780  0.28900  Biso   1.000  C
  C16      1.0000 0.44420  0.56830  0.29410  Biso   1.000  C
  C17      1.0000 0.31920  0.87740  0.55580  Biso   1.000  C
  H9       1.0000 0.36190  0.94860  0.53280  Biso   1.000  H
  C18      1.0000 0.23010  0.88400  0.62750  Biso   1.000  C
  H10      1.0000 0.21230  0.95760  0.65090  Biso   1.000  H
  C19      1.0000 0.16860  0.77560  0.66280  Biso   1.000  C
  C20      1.0000 0.19940  0.66780  0.62730  Biso   1.000  C
  H11      1.0000 0.16040  0.59480  0.65130  Biso   1.000  H
  C21      1.0000 0.28960  0.66920  0.55500  Biso   1.000  C
  H12      1.0000 0.31100  0.59630  0.53150  Biso   1.000  H
  C22      1.0000 0.06490  0.78030  0.73540  Biso   1.000  C
  C23      1.0000 0.94860  0.73210  0.72580  Biso   1.000  C
  H13      1.0000 0.93730  0.69350  0.67480  Biso   1.000  H
  C24      1.0000 0.84920  0.74050  0.79090  Biso   1.000  C
  H14      1.0000 0.77350  0.70760  0.78300  Biso   1.000  H
  C25      1.0000 0.86520  0.79990  0.86920  Biso   1.000  C
  C26      1.0000 0.98040  0.84700  0.87880  Biso   1.000  C
  C27      1.0000 0.07810  0.83660  0.81270  Biso   1.000  C
  C28      1.0000 0.75790  0.81230  0.93710  Biso   1.000  C
  C29      1.0000 0.67920  0.71440  0.96380  Biso   1.000  C
  H15      1.0000 0.69140  0.64170  0.93810  Biso   1.000  H
  C30      1.0000 0.58210  0.72460  0.02890  Biso   1.000  C
  H16      1.0000 0.53140  0.65720  0.04650  Biso   1.000  H
  C31      1.0000 0.63220  0.92440  0.04010  Biso   1.000  C
  H17      1.0000 0.61540  0.99700  0.06530  Biso   1.000  H
  C32      1.0000 0.73300  0.92210  0.97580  Biso   1.000  C
  H18      1.0000 0.78200  0.99090  0.95910  Biso   1.000  H
  Zn3      1.0000 0.55070  0.21617  0.60508  Biso   1.000  Zn
  Zn4      1.0000 0.54871  0.17816  0.81093  Biso   1.000  Zn
  O9       1.0000 0.36320  0.22150  0.59260  Biso   1.000  O
  O10      1.0000 0.37780  0.20110  0.74290  Biso   1.000  O
  O11      1.0000 0.72000  0.19480  0.67240  Biso   1.000  O
  O12      1.0000 0.73530  0.16790  0.82360  Biso   1.000  O
  O13      1.0000 0.54460  0.02900  0.63310  Biso   1.000  O
  O14      1.0000 0.54300  0.00090  0.78850  Biso   1.000  O
  O15      1.0000 0.55670  0.36530  0.78270  Biso   1.000  O
  O16      1.0000 0.55550  0.39390  0.62790  Biso   1.000  O
  N3       1.0000 0.65310  0.22440  0.48170  Biso   1.000  N
  N4       1.0000 0.44140  0.17190  0.93250  Biso   1.000  N
  F3       1.0000 0.81100  0.11890  0.17050  Biso   1.000  F
  F4       1.0000 0.99810  0.09980  0.04660  Biso   1.000  F
  C33      1.0000 0.17760  0.20580  0.69100  Biso   1.000  C
  C34      1.0000 0.10200  0.21710  0.61810  Biso   1.000  C
  H19      1.0000 0.13690  0.23020  0.55850  Biso   1.000  H
  C35      1.0000 0.97480  0.20890  0.63460  Biso   1.000  C
  H20      1.0000 0.92520  0.21580  0.58590  Biso   1.000  H
  C36      1.0000 0.92120  0.19030  0.72360  Biso   1.000  C
  C37      1.0000 0.99820  0.17860  0.79830  Biso   1.000  C
  H21      1.0000 0.96450  0.16450  0.85820  Biso   1.000  H
  C38      1.0000 0.12380  0.18880  0.77920  Biso   1.000  C
  H22      1.0000 0.17420  0.18400  0.82740  Biso   1.000  H
  C39      1.0000 0.31670  0.21190  0.67400  Biso   1.000  C
  C40      1.0000 0.78170  0.18450  0.74100  Biso   1.000  C
  C41      1.0000 0.54910  0.82440  0.70950  Biso   1.000  C
  C42      1.0000 0.59790  0.77550  0.63070  Biso   1.000  C
  H23      1.0000 0.62900  0.82760  0.57990  Biso   1.000  H
  C43      1.0000 0.59910  0.64790  0.62960  Biso   1.000  C
  H24      1.0000 0.62890  0.61540  0.57720  Biso   1.000  H
  C44      1.0000 0.55550  0.56810  0.70710  Biso   1.000  C
  C45      1.0000 0.50650  0.61790  0.78480  Biso   1.000  C
  H25      1.0000 0.47650  0.56530  0.83560  Biso   1.000  H
  C46      1.0000 0.50210  0.74560  0.78730  Biso   1.000  C
  H26      1.0000 0.46890  0.77780  0.83900  Biso   1.000  H
  C47      1.0000 0.54590  0.96220  0.71100  Biso   1.000  C
  C48      1.0000 0.55580  0.43170  0.70590  Biso   1.000  C
  C49      1.0000 0.68080  0.12260  0.44420  Biso   1.000  C
  H27      1.0000 0.63810  0.05140  0.46720  Biso   1.000  H
  C50      1.0000 0.76990  0.11600  0.37250  Biso   1.000  C
  H28      1.0000 0.78770  0.04240  0.34910  Biso   1.000  H
  C51      1.0000 0.83140  0.22440  0.33720  Biso   1.000  C
  C52      1.0000 0.80060  0.33220  0.37270  Biso   1.000  C
  H29      1.0000 0.83960  0.40520  0.34870  Biso   1.000  H
  C53      1.0000 0.71040  0.33080  0.44500  Biso   1.000  C
  H30      1.0000 0.68900  0.40370  0.46850  Biso   1.000  H
  C54      1.0000 0.93510  0.21970  0.26460  Biso   1.000  C
  C55      1.0000 0.05140  0.26790  0.27420  Biso   1.000  C
  H31      1.0000 0.06270  0.30650  0.32520  Biso   1.000  H
  C56      1.0000 0.15080  0.25950  0.20910  Biso   1.000  C
  H32      1.0000 0.22650  0.29240  0.21700  Biso   1.000  H
  C57      1.0000 0.13480  0.20010  0.13080  Biso   1.000  C
  C58      1.0000 0.01960  0.15300  0.12120  Biso   1.000  C
  C59      1.0000 0.92190  0.16340  0.18730  Biso   1.000  C
  C60      1.0000 0.24210  0.18770  0.06290  Biso   1.000  C
  C61      1.0000 0.32080  0.28560  0.03620  Biso   1.000  C
  H33      1.0000 0.30860  0.35830  0.06190  Biso   1.000  H
  C62      1.0000 0.41790  0.27540  0.97110  Biso   1.000  C
  H34      1.0000 0.46860  0.34280  0.95350  Biso   1.000  H
  C63      1.0000 0.36780  0.07560  0.95990  Biso   1.000  C
  H35      1.0000 0.38460  0.00300  0.93470  Biso   1.000  H
  C64      1.0000 0.26700  0.07790  0.02420  Biso   1.000  C
  H36      1.0000 0.21800  0.00910  0.04090  Biso   1.000  H
