data_KANDIO_clean
_audit_creation_date              2014-07-02
_audit_creation_method            'Materials Studio'
_symmetry_space_group_name_H-M    'P1'
_symmetry_Int_Tables_number       1
_symmetry_cell_setting            triclinic
loop_
_symmetry_equiv_pos_as_xyz
  x,y,z
_cell_length_a                    10.8850
_cell_length_b                    10.9300
_cell_length_c                    18.5180
_cell_angle_alpha                 87.4200
_cell_angle_beta                  84.9900
_cell_angle_gamma                 70.5700
loop_
_atom_site_label
_atom_site_type_symbol
_atom_site_fract_x
_atom_site_fract_y
_atom_site_fract_z
_atom_site_U_iso_or_equiv
_atom_site_adp_type
_atom_site_occupancy
Zn1    Zn    0.34332   0.24176   0.57692   0.01267  Uiso   1.00
Zn2    Zn    0.31858   0.23809   0.73963   0.01267  Uiso   1.00
H1     H     0.76010   0.21030   0.55170   0.01267  Uiso   1.00
H2     H     0.95950   0.24350   0.55730   0.01267  Uiso   1.00
H3     H     0.90920   0.24980   0.77460   0.01267  Uiso   1.00
H4     H     0.71150   0.21410   0.76910   0.01267  Uiso   1.00
H5     H     0.36060   0.63320   0.54490   0.01267  Uiso   1.00
H6     H     0.36650   0.84350   0.54600   0.01267  Uiso   1.00
H7     H     0.32150   0.83940   0.76490   0.01267  Uiso   1.00
H8     H     0.30900   0.62880   0.76300   0.01267  Uiso   1.00
H9     H     0.35010   0.06950   0.45380   0.01267  Uiso   1.00
H10    H     0.33860   0.07540   0.33180   0.01267  Uiso   1.00
H11    H     0.30440   0.45470   0.33060   0.01267  Uiso   1.00
H12    H     0.31670   0.43760   0.45370   0.01267  Uiso   1.00
H13    H     0.44790   0.08700   0.21780   0.01267  Uiso   1.00
H14    H     0.44210   0.08460   0.09450   0.01267  Uiso   1.00
H15    H     0.50600   0.16140   0.98090   0.01267  Uiso   1.00
H16    H     0.50180   0.15300   0.85680   0.01267  Uiso   1.00
H17    H     0.12890   0.34690   0.86600   0.01267  Uiso   1.00
H18    H     0.12190   0.36360   0.98990   0.01267  Uiso   1.00
C1     C     0.71380   0.21240   0.65990   0.01267  Uiso   1.00
C2     C     0.78910   0.21900   0.59630   0.01267  Uiso   1.00
C3     C     0.90900   0.23880   0.59980   0.01267  Uiso   1.00
C4     C     0.95320   0.25140   0.66580   0.01267  Uiso   1.00
C5     C     0.87940   0.24230   0.73000   0.01267  Uiso   1.00
C6     C     0.76050   0.22170   0.72650   0.01267  Uiso   1.00
C7     C     0.58030   0.19870   0.65700   0.01267  Uiso   1.00
C8     C     0.08460   0.27080   0.66910   0.01267  Uiso   1.00
C9     C     0.33200   0.61250   0.65430   0.01267  Uiso   1.00
C10    C     0.35120   0.67530   0.58870   0.01267  Uiso   1.00
C11    C     0.35580   0.80090   0.58940   0.01267  Uiso   1.00
C12    C     0.34470   0.86340   0.65500   0.01267  Uiso   1.00
C13    C     0.32790   0.79880   0.72100   0.01267  Uiso   1.00
C14    C     0.32100   0.67190   0.71990   0.01267  Uiso   1.00
C15    C     0.32090   0.47740   0.65360   0.01267  Uiso   1.00
C16    C     0.34920   0.00050   0.65560   0.01267  Uiso   1.00
C17    C     0.34070   0.14750   0.42880   0.01267  Uiso   1.00
C18    C     0.33470   0.15020   0.35530   0.01267  Uiso   1.00
C19    C     0.32260   0.26480   0.31510   0.01267  Uiso   1.00
C20    C     0.31430   0.37560   0.35440   0.01267  Uiso   1.00
C21    C     0.32100   0.36450   0.42840   0.01267  Uiso   1.00
C22    C     0.32010   0.26730   0.23490   0.01267  Uiso   1.00
C23    C     0.39460   0.15980   0.19430   0.01267  Uiso   1.00
C24    C     0.39140   0.15840   0.11960   0.01267  Uiso   1.00
C25    C     0.31410   0.26530   0.08100   0.01267  Uiso   1.00
C26    C     0.24040   0.37290   0.12160   0.01267  Uiso   1.00
C27    C     0.24490   0.37590   0.19610   0.01267  Uiso   1.00
C28    C     0.31100   0.25990   0.00110   0.01267  Uiso   1.00
C29    C     0.42790   0.19830   0.95910   0.01267  Uiso   1.00
C30    C     0.42410   0.19370   0.88420   0.01267  Uiso   1.00
C31    C     0.20490   0.30800   0.88940   0.01267  Uiso   1.00
C32    C     0.20000   0.31790   0.96440   0.01267  Uiso   1.00
N1     N     0.33380   0.25170   0.46690   0.01267  Uiso   1.00
N2     N     0.31490   0.24450   0.84950   0.01267  Uiso   1.00
O1     O     0.53950   0.19750   0.59570   0.01267  Uiso   1.00
O2     O     0.51720   0.19480   0.71770   0.01267  Uiso   1.00
O3     O     0.12360   0.27400   0.73130   0.01267  Uiso   1.00
O4     O     0.14540   0.28160   0.60920   0.01267  Uiso   1.00
O5     O     0.33090   0.42750   0.59220   0.01267  Uiso   1.00
O6     O     0.30480   0.42470   0.71350   0.01267  Uiso   1.00
O7     O     0.34220   0.05010   0.71620   0.01267  Uiso   1.00
O8     O     0.35880   0.05270   0.59420   0.01267  Uiso   1.00
F1     F     0.16740   0.48460   0.23090   0.01267  Uiso   1.00
F2     F     0.16430   0.48380   0.08890   0.01267  Uiso   1.00
Zn3    Zn    0.65668   0.75824   0.42308   0.01267  Uiso   1.00
Zn4    Zn    0.68142   0.76191   0.26037   0.01267  Uiso   1.00
H19    H     0.23990   0.78970   0.44830   0.01267  Uiso   1.00
H20    H     0.04050   0.75650   0.44270   0.01267  Uiso   1.00
H21    H     0.09080   0.75020   0.22540   0.01267  Uiso   1.00
H22    H     0.28850   0.78590   0.23090   0.01267  Uiso   1.00
H23    H     0.63940   0.36680   0.45510   0.01267  Uiso   1.00
H24    H     0.63350   0.15650   0.45400   0.01267  Uiso   1.00
H25    H     0.67850   0.16060   0.23510   0.01267  Uiso   1.00
H26    H     0.69100   0.37120   0.23700   0.01267  Uiso   1.00
H27    H     0.64990   0.93050   0.54620   0.01267  Uiso   1.00
H28    H     0.66140   0.92460   0.66820   0.01267  Uiso   1.00
H29    H     0.69560   0.54530   0.66940   0.01267  Uiso   1.00
H30    H     0.68330   0.56240   0.54630   0.01267  Uiso   1.00
H31    H     0.55210   0.91300   0.78220   0.01267  Uiso   1.00
H32    H     0.55790   0.91540   0.90550   0.01267  Uiso   1.00
H33    H     0.49400   0.83860   0.01910   0.01267  Uiso   1.00
H34    H     0.49820   0.84700   0.14320   0.01267  Uiso   1.00
H35    H     0.87110   0.65310   0.13400   0.01267  Uiso   1.00
H36    H     0.87810   0.63640   0.01010   0.01267  Uiso   1.00
C33    C     0.28620   0.78760   0.34010   0.01267  Uiso   1.00
C34    C     0.21090   0.78100   0.40370   0.01267  Uiso   1.00
C35    C     0.09100   0.76120   0.40020   0.01267  Uiso   1.00
C36    C     0.04680   0.74860   0.33420   0.01267  Uiso   1.00
C37    C     0.12060   0.75770   0.27000   0.01267  Uiso   1.00
C38    C     0.23950   0.77830   0.27350   0.01267  Uiso   1.00
C39    C     0.41970   0.80130   0.34300   0.01267  Uiso   1.00
C40    C     0.91540   0.72920   0.33090   0.01267  Uiso   1.00
C41    C     0.66800   0.38750   0.34570   0.01267  Uiso   1.00
C42    C     0.64880   0.32470   0.41130   0.01267  Uiso   1.00
C43    C     0.64420   0.19910   0.41060   0.01267  Uiso   1.00
C44    C     0.65530   0.13660   0.34500   0.01267  Uiso   1.00
C45    C     0.67210   0.20120   0.27900   0.01267  Uiso   1.00
C46    C     0.67900   0.32810   0.28010   0.01267  Uiso   1.00
C47    C     0.67910   0.52260   0.34640   0.01267  Uiso   1.00
C48    C     0.65080   0.99950   0.34440   0.01267  Uiso   1.00
C49    C     0.65930   0.85250   0.57120   0.01267  Uiso   1.00
C50    C     0.66530   0.84980   0.64470   0.01267  Uiso   1.00
C51    C     0.67740   0.73520   0.68490   0.01267  Uiso   1.00
C52    C     0.68570   0.62440   0.64560   0.01267  Uiso   1.00
C53    C     0.67900   0.63550   0.57160   0.01267  Uiso   1.00
C54    C     0.67990   0.73270   0.76510   0.01267  Uiso   1.00
C55    C     0.60540   0.84020   0.80570   0.01267  Uiso   1.00
C56    C     0.60860   0.84160   0.88040   0.01267  Uiso   1.00
C57    C     0.68590   0.73470   0.91900   0.01267  Uiso   1.00
C58    C     0.75960   0.62710   0.87840   0.01267  Uiso   1.00
C59    C     0.75510   0.62410   0.80390   0.01267  Uiso   1.00
C60    C     0.68900   0.74010   0.99890   0.01267  Uiso   1.00
C61    C     0.57210   0.80170   0.04090   0.01267  Uiso   1.00
C62    C     0.57590   0.80630   0.11580   0.01267  Uiso   1.00
C63    C     0.79510   0.69200   0.11060   0.01267  Uiso   1.00
C64    C     0.80000   0.68210   0.03560   0.01267  Uiso   1.00
N3     N     0.66620   0.74830   0.53310   0.01267  Uiso   1.00
N4     N     0.68510   0.75550   0.15050   0.01267  Uiso   1.00
O9     O     0.46050   0.80250   0.40430   0.01267  Uiso   1.00
O10    O     0.48280   0.80520   0.28230   0.01267  Uiso   1.00
O11    O     0.87640   0.72600   0.26870   0.01267  Uiso   1.00
O12    O     0.85460   0.71840   0.39080   0.01267  Uiso   1.00
O13    O     0.66910   0.57250   0.40780   0.01267  Uiso   1.00
O14    O     0.69520   0.57530   0.28650   0.01267  Uiso   1.00
O15    O     0.65780   0.94990   0.28380   0.01267  Uiso   1.00
O16    O     0.64120   0.94730   0.40580   0.01267  Uiso   1.00
F3     F     0.83260   0.51540   0.76910   0.01267  Uiso   1.00
F4     F     0.83570   0.51620   0.91110   0.01267  Uiso   1.00
