data_KAPGUE_clean
_audit_creation_date              2014-07-02
_audit_creation_method            'Materials Studio'
_symmetry_space_group_name_H-M    'P1'
_symmetry_Int_Tables_number       1
_symmetry_cell_setting            triclinic
loop_
_symmetry_equiv_pos_as_xyz
  x,y,z
_cell_length_a                    8.3070
_cell_length_b                    8.7690
_cell_length_c                    9.2040
_cell_angle_alpha                 95.6300
_cell_angle_beta                  115.6100
_cell_angle_gamma                 110.2600
loop_
_atom_site_label
_atom_site_type_symbol
_atom_site_fract_x
_atom_site_fract_y
_atom_site_fract_z
_atom_site_U_iso_or_equiv
_atom_site_adp_type
_atom_site_occupancy
La1    La    0.92008   0.99141   0.73032   0.01267  Uiso   1.00
La2    La    0.07992   0.00859   0.26968   0.01267  Uiso   1.00
C1     C     0.32870   0.99520   0.10760   0.01267  Uiso   1.00
C2     C     0.45340   0.99880   0.03340   0.01267  Uiso   1.00
C3     C     0.15080   0.44510   0.88990   0.01267  Uiso   1.00
C4     C     0.33140   0.57590   0.04010   0.01267  Uiso   1.00
C5     C     0.47580   0.67450   0.16530   0.01267  Uiso   1.00
C6     C     0.65090   0.78990   0.32490   0.01267  Uiso   1.00
C7     C     0.67130   0.00480   0.89240   0.01267  Uiso   1.00
C8     C     0.54660   0.00120   0.96660   0.01267  Uiso   1.00
C9     C     0.84920   0.55490   0.11010   0.01267  Uiso   1.00
C10    C     0.66860   0.42410   0.95990   0.01267  Uiso   1.00
C11    C     0.52420   0.32550   0.83470   0.01267  Uiso   1.00
C12    C     0.34910   0.21010   0.67510   0.01267  Uiso   1.00
O1     O     0.15460   0.97400   0.01130   0.01267  Uiso   1.00
O2     O     0.39590   0.01240   0.26260   0.01267  Uiso   1.00
O3     O     0.09390   0.29880   0.90610   0.01267  Uiso   1.00
O4     O     0.07270   0.48850   0.76310   0.01267  Uiso   1.00
O5     O     0.62890   0.79970   0.45030   0.01267  Uiso   1.00
O6     O     0.80910   0.87050   0.32750   0.01267  Uiso   1.00
O7     O     0.84540   0.02600   0.98870   0.01267  Uiso   1.00
O8     O     0.60410   0.98760   0.73740   0.01267  Uiso   1.00
O9     O     0.90610   0.70120   0.09390   0.01267  Uiso   1.00
O10    O     0.92730   0.51150   0.23690   0.01267  Uiso   1.00
O11    O     0.37110   0.20030   0.54970   0.01267  Uiso   1.00
O12    O     0.19090   0.12950   0.67250   0.01267  Uiso   1.00
