data_image0
_cell_length_a       16.039
_cell_length_b       17.851
_cell_length_c       11.558
_cell_angle_alpha    90
_cell_angle_beta     90
_cell_angle_gamma    90

_symmetry_space_group_name_H-M    "P 1"
_symmetry_int_tables_number       1

loop_
  _symmetry_equiv_pos_as_xyz
  'x, y, z'

loop_
  _atom_site_label
  _atom_site_occupancy
  _atom_site_fract_x
  _atom_site_fract_y
  _atom_site_fract_z
  _atom_site_thermal_displace_type
  _atom_site_B_iso_or_equiv
  _atom_site_type_symbol
  C1       1.0000 0.20010  0.39240  0.82150  Biso   1.000  C
  C2       1.0000 0.46020  0.45060  0.25540  Biso   1.000  C
  H1       1.0000 0.43011  0.41459  0.21497  Biso   1.000  H
  C3       1.0000 0.45920  0.44760  0.37160  Biso   1.000  C
  H2       1.0000 0.43011  0.40895  0.40752  Biso   1.000  H
  C4       1.0000 0.44350  0.13190  0.25530  Biso   1.000  C
  H3       1.0000 0.47336  0.09552  0.21539  Biso   1.000  H
  C5       1.0000 0.44960  0.13160  0.37150  Biso   1.000  C
  H4       1.0000 0.48289  0.09617  0.40807  Biso   1.000  H
  C6       1.0000 0.40720  0.18320  0.43570  Biso   1.000  C
  C7       1.0000 0.36580  0.23600  0.37500  Biso   1.000  C
  H5       1.0000 0.33909  0.27500  0.41345  Biso   1.000  H
  C8       1.0000 0.36310  0.23200  0.25590  Biso   1.000  C
  H6       1.0000 0.33403  0.26887  0.21587  Biso   1.000  H
  N1       1.0000 0.20310  0.39160  0.72170  Biso   1.000  N
  N2       1.0000 0.40040  0.17770  0.19490  Biso   1.000  N
  C9       1.0000 0.79990  0.60760  0.82150  Biso   1.000  C
  C10      1.0000 0.53980  0.54940  0.25540  Biso   1.000  C
  H7       1.0000 0.56989  0.58541  0.21497  Biso   1.000  H
  C11      1.0000 0.54080  0.55240  0.37160  Biso   1.000  C
  H8       1.0000 0.56989  0.59105  0.40752  Biso   1.000  H
  C12      1.0000 0.55650  0.86810  0.25530  Biso   1.000  C
  H9       1.0000 0.52664  0.90448  0.21539  Biso   1.000  H
  C13      1.0000 0.55040  0.86840  0.37150  Biso   1.000  C
  H10      1.0000 0.51711  0.90383  0.40807  Biso   1.000  H
  C14      1.0000 0.59280  0.81680  0.43570  Biso   1.000  C
  C15      1.0000 0.63420  0.76400  0.37500  Biso   1.000  C
  H11      1.0000 0.66091  0.72500  0.41345  Biso   1.000  H
  C16      1.0000 0.63690  0.76800  0.25590  Biso   1.000  C
  H12      1.0000 0.66597  0.73113  0.21587  Biso   1.000  H
  N3       1.0000 0.79690  0.60840  0.72170  Biso   1.000  N
  N4       1.0000 0.59960  0.82230  0.19490  Biso   1.000  N
  C17      1.0000 0.29990  0.89240  0.17850  Biso   1.000  C
  C18      1.0000 0.03980  0.95060  0.74460  Biso   1.000  C
  H13      1.0000 0.06989  0.91459  0.78503  Biso   1.000  H
  C19      1.0000 0.04080  0.94760  0.62840  Biso   1.000  C
  H14      1.0000 0.06989  0.90895  0.59248  Biso   1.000  H
  C20      1.0000 0.05650  0.63190  0.74470  Biso   1.000  C
  H15      1.0000 0.02664  0.59552  0.78461  Biso   1.000  H
  C21      1.0000 0.05040  0.63160  0.62850  Biso   1.000  C
  H16      1.0000 0.01711  0.59617  0.59193  Biso   1.000  H
  C22      1.0000 0.09280  0.68320  0.56430  Biso   1.000  C
  C23      1.0000 0.13420  0.73600  0.62500  Biso   1.000  C
  H17      1.0000 0.16091  0.77500  0.58655  Biso   1.000  H
  C24      1.0000 0.13690  0.73200  0.74410  Biso   1.000  C
  H18      1.0000 0.16597  0.76887  0.78413  Biso   1.000  H
  N5       1.0000 0.29690  0.89160  0.27830  Biso   1.000  N
  N6       1.0000 0.09960  0.67770  0.80510  Biso   1.000  N
  C25      1.0000 0.70010  0.10760  0.17850  Biso   1.000  C
  C26      1.0000 0.96020  0.04940  0.74460  Biso   1.000  C
  H19      1.0000 0.93011  0.08541  0.78503  Biso   1.000  H
  C27      1.0000 0.95920  0.05240  0.62840  Biso   1.000  C
  H20      1.0000 0.93011  0.09105  0.59248  Biso   1.000  H
  C28      1.0000 0.94350  0.36810  0.74470  Biso   1.000  C
  H21      1.0000 0.97336  0.40448  0.78461  Biso   1.000  H
  C29      1.0000 0.94960  0.36840  0.62850  Biso   1.000  C
  H22      1.0000 0.98289  0.40383  0.59193  Biso   1.000  H
  C30      1.0000 0.90720  0.31680  0.56430  Biso   1.000  C
  C31      1.0000 0.86580  0.26400  0.62500  Biso   1.000  C
  H23      1.0000 0.83909  0.22500  0.58655  Biso   1.000  H
  C32      1.0000 0.86310  0.26800  0.74410  Biso   1.000  C
  H24      1.0000 0.83403  0.23113  0.78413  Biso   1.000  H
  N7       1.0000 0.70310  0.10840  0.27830  Biso   1.000  N
  N8       1.0000 0.90040  0.32230  0.80510  Biso   1.000  N
  C33      1.0000 0.79990  0.60760  0.17850  Biso   1.000  C
  C34      1.0000 0.53980  0.54940  0.74460  Biso   1.000  C
  H25      1.0000 0.56989  0.58541  0.78503  Biso   1.000  H
  C35      1.0000 0.54080  0.55240  0.62840  Biso   1.000  C
  H26      1.0000 0.56989  0.59105  0.59248  Biso   1.000  H
  C36      1.0000 0.55650  0.86810  0.74470  Biso   1.000  C
  H27      1.0000 0.52664  0.90448  0.78461  Biso   1.000  H
  C37      1.0000 0.55040  0.86840  0.62850  Biso   1.000  C
  H28      1.0000 0.51711  0.90383  0.59193  Biso   1.000  H
  C38      1.0000 0.59280  0.81680  0.56430  Biso   1.000  C
  C39      1.0000 0.63420  0.76400  0.62500  Biso   1.000  C
  H29      1.0000 0.66091  0.72500  0.58655  Biso   1.000  H
  C40      1.0000 0.63690  0.76800  0.74410  Biso   1.000  C
  H30      1.0000 0.66597  0.73113  0.78413  Biso   1.000  H
  N9       1.0000 0.79690  0.60840  0.27830  Biso   1.000  N
  N10      1.0000 0.59960  0.82230  0.80510  Biso   1.000  N
  C41      1.0000 0.20010  0.39240  0.17850  Biso   1.000  C
  C42      1.0000 0.46020  0.45060  0.74460  Biso   1.000  C
  H31      1.0000 0.43011  0.41459  0.78503  Biso   1.000  H
  C43      1.0000 0.45920  0.44760  0.62840  Biso   1.000  C
  H32      1.0000 0.43011  0.40895  0.59248  Biso   1.000  H
  C44      1.0000 0.44350  0.13190  0.74470  Biso   1.000  C
  H33      1.0000 0.47336  0.09552  0.78461  Biso   1.000  H
  C45      1.0000 0.44960  0.13160  0.62850  Biso   1.000  C
  H34      1.0000 0.48289  0.09617  0.59193  Biso   1.000  H
  C46      1.0000 0.40720  0.18320  0.56430  Biso   1.000  C
  C47      1.0000 0.36580  0.23600  0.62500  Biso   1.000  C
  H35      1.0000 0.33909  0.27500  0.58655  Biso   1.000  H
  C48      1.0000 0.36310  0.23200  0.74410  Biso   1.000  C
  H36      1.0000 0.33403  0.26887  0.78413  Biso   1.000  H
  N11      1.0000 0.20310  0.39160  0.27830  Biso   1.000  N
  N12      1.0000 0.40040  0.17770  0.80510  Biso   1.000  N
  C49      1.0000 0.70010  0.10760  0.82150  Biso   1.000  C
  C50      1.0000 0.96020  0.04940  0.25540  Biso   1.000  C
  H37      1.0000 0.93011  0.08541  0.21497  Biso   1.000  H
  C51      1.0000 0.95920  0.05240  0.37160  Biso   1.000  C
  H38      1.0000 0.93011  0.09105  0.40752  Biso   1.000  H
  C52      1.0000 0.94350  0.36810  0.25530  Biso   1.000  C
  H39      1.0000 0.97336  0.40448  0.21539  Biso   1.000  H
  C53      1.0000 0.94960  0.36840  0.37150  Biso   1.000  C
  H40      1.0000 0.98289  0.40383  0.40807  Biso   1.000  H
  C54      1.0000 0.90720  0.31680  0.43570  Biso   1.000  C
  C55      1.0000 0.86580  0.26400  0.37500  Biso   1.000  C
  H41      1.0000 0.83909  0.22500  0.41345  Biso   1.000  H
  C56      1.0000 0.86310  0.26800  0.25590  Biso   1.000  C
  H42      1.0000 0.83403  0.23113  0.21587  Biso   1.000  H
  N13      1.0000 0.70310  0.10840  0.72170  Biso   1.000  N
  N14      1.0000 0.90040  0.32230  0.19490  Biso   1.000  N
  C57      1.0000 0.29990  0.89240  0.82150  Biso   1.000  C
  C58      1.0000 0.03980  0.95060  0.25540  Biso   1.000  C
  H43      1.0000 0.06989  0.91459  0.21497  Biso   1.000  H
  C59      1.0000 0.04080  0.94760  0.37160  Biso   1.000  C
  H44      1.0000 0.06989  0.90895  0.40752  Biso   1.000  H
  C60      1.0000 0.05650  0.63190  0.25530  Biso   1.000  C
  H45      1.0000 0.02664  0.59552  0.21539  Biso   1.000  H
  C61      1.0000 0.05040  0.63160  0.37150  Biso   1.000  C
  H46      1.0000 0.01711  0.59617  0.40807  Biso   1.000  H
  C62      1.0000 0.09280  0.68320  0.43570  Biso   1.000  C
  C63      1.0000 0.13420  0.73600  0.37500  Biso   1.000  C
  H47      1.0000 0.16091  0.77500  0.41345  Biso   1.000  H
  C64      1.0000 0.13690  0.73200  0.25590  Biso   1.000  C
  H48      1.0000 0.16597  0.76887  0.21587  Biso   1.000  H
  N15      1.0000 0.29690  0.89160  0.72170  Biso   1.000  N
  N16      1.0000 0.09960  0.67770  0.19490  Biso   1.000  N
  C65      1.0000 0.08590  0.34830  0.00000  Biso   1.000  C
  C66      1.0000 0.15690  0.49820  0.00000  Biso   1.000  C
  C67      1.0000 0.25190  0.28950  0.00000  Biso   1.000  C
  C68      1.0000 0.31590  0.43160  0.00000  Biso   1.000  C
  N17      1.0000 0.02020  0.32200  0.00000  Biso   1.000  N
  N18      1.0000 0.13080  0.55710  0.00000  Biso   1.000  N
  N19      1.0000 0.29330  0.23560  0.00000  Biso   1.000  N
  N20      1.0000 0.38190  0.44720  0.00000  Biso   1.000  N
  Mn1      1.0000 0.19965  0.39083  0.00000  Biso   1.000  Mn
  Mn2      1.0000 0.39321  0.16858  0.00000  Biso   1.000  Mn
  C69      1.0000 0.91410  0.65170  0.00000  Biso   1.000  C
  C70      1.0000 0.84310  0.50180  0.00000  Biso   1.000  C
  C71      1.0000 0.74810  0.71050  0.00000  Biso   1.000  C
  C72      1.0000 0.68410  0.56840  0.00000  Biso   1.000  C
  N21      1.0000 0.97980  0.67800  0.00000  Biso   1.000  N
  N22      1.0000 0.86920  0.44290  0.00000  Biso   1.000  N
  N23      1.0000 0.70670  0.76440  0.00000  Biso   1.000  N
  N24      1.0000 0.61810  0.55280  0.00000  Biso   1.000  N
  Mn3      1.0000 0.80035  0.60917  0.00000  Biso   1.000  Mn
  Mn4      1.0000 0.60679  0.83142  0.00000  Biso   1.000  Mn
  C73      1.0000 0.41410  0.84830  0.00000  Biso   1.000  C
  C74      1.0000 0.34310  0.99820  0.00000  Biso   1.000  C
  C75      1.0000 0.24810  0.78950  0.00000  Biso   1.000  C
  C76      1.0000 0.18410  0.93160  0.00000  Biso   1.000  C
  N25      1.0000 0.47980  0.82200  0.00000  Biso   1.000  N
  N26      1.0000 0.36920  0.05710  0.00000  Biso   1.000  N
  N27      1.0000 0.20670  0.73560  0.00000  Biso   1.000  N
  N28      1.0000 0.11810  0.94720  0.00000  Biso   1.000  N
  Mn5      1.0000 0.30035  0.89083  0.00000  Biso   1.000  Mn
  Mn6      1.0000 0.10679  0.66858  0.00000  Biso   1.000  Mn
  C77      1.0000 0.58590  0.15170  0.00000  Biso   1.000  C
  C78      1.0000 0.65690  0.00180  0.00000  Biso   1.000  C
  C79      1.0000 0.75190  0.21050  0.00000  Biso   1.000  C
  C80      1.0000 0.81590  0.06840  0.00000  Biso   1.000  C
  N29      1.0000 0.52020  0.17800  0.00000  Biso   1.000  N
  N30      1.0000 0.63080  0.94290  0.00000  Biso   1.000  N
  N31      1.0000 0.79330  0.26440  0.00000  Biso   1.000  N
  N32      1.0000 0.88190  0.05280  0.00000  Biso   1.000  N
  Mn7      1.0000 0.69965  0.10917  0.00000  Biso   1.000  Mn
  Mn8      1.0000 0.89321  0.33142  0.00000  Biso   1.000  Mn
  C81      1.0000 0.50000  0.50000  0.44020  Biso   1.000  C
  N33      1.0000 0.50000  0.50000  0.19680  Biso   1.000  N
  C82      1.0000 0.00000  0.00000  0.55980  Biso   1.000  C
  N34      1.0000 0.00000  0.00000  0.80320  Biso   1.000  N
  C83      1.0000 0.50000  0.50000  0.55980  Biso   1.000  C
  N35      1.0000 0.50000  0.50000  0.80320  Biso   1.000  N
  C84      1.0000 0.00000  0.00000  0.44020  Biso   1.000  C
  N36      1.0000 0.00000  0.00000  0.19680  Biso   1.000  N
  Mn9      1.0000 0.50000  0.50000  0.00000  Biso   1.000  Mn
  Mn10     1.0000 0.00000  0.00000  0.00000  Biso   1.000  Mn
