data_KAPHOZ_ion_b
_audit_creation_date              2014-07-02
_audit_creation_method            'Materials Studio'
_symmetry_space_group_name_H-M    'P1'
_symmetry_Int_Tables_number       1
_symmetry_cell_setting            triclinic
loop_
_symmetry_equiv_pos_as_xyz
  x,y,z
_cell_length_a                    9.5545
_cell_length_b                    9.5545
_cell_length_c                    11.1085
_cell_angle_alpha                 90.8293
_cell_angle_beta                  90.8293
_cell_angle_gamma                 107.2225
loop_
_atom_site_label
_atom_site_type_symbol
_atom_site_fract_x
_atom_site_fract_y
_atom_site_fract_z
_atom_site_U_iso_or_equiv
_atom_site_adp_type
_atom_site_occupancy
K1     K     0.64219   0.78981   0.49244   0.00000  Uiso   1.00
O2     O     0.44421   0.31999   0.15210   0.00000  Uiso   1.00
O3     O     0.67750   0.38010   0.09900   0.00000  Uiso   1.00
O4     O     0.47222   0.34538   0.87490   0.00000  Uiso   1.00
O5     O     0.50030   0.20450   0.72370   0.00000  Uiso   1.00
C6     C     0.55270   0.29450   0.09940   0.00000  Uiso   1.00
C7     C     0.48930   0.22730   0.83250   0.00000  Uiso   1.00
C8     C     0.52270   0.14310   0.04390   0.00000  Uiso   1.00
C9     C     0.49580   0.11140   0.92120   0.00000  Uiso   1.00
C10    C     0.52620   0.03120   0.12100   0.00000  Uiso   1.00
H11    H     0.54360   0.05220   0.20280   0.00000  Uiso   1.00
K15    K     0.21019   0.35781   0.00756   0.00000  Uiso   1.00
O16    O     0.68001   0.55579   0.34790   0.00000  Uiso   1.00
O17    O     0.61990   0.32250   0.40100   0.00000  Uiso   1.00
O18    O     0.65462   0.52778   0.62510   0.00000  Uiso   1.00
O19    O     0.79550   0.49970   0.77630   0.00000  Uiso   1.00
C20    C     0.70550   0.44730   0.40060   0.00000  Uiso   1.00
C21    C     0.77270   0.51070   0.66750   0.00000  Uiso   1.00
C22    C     0.85690   0.47730   0.45610   0.00000  Uiso   1.00
C23    C     0.88860   0.50420   0.57880   0.00000  Uiso   1.00
C24    C     0.96880   0.47380   0.37900   0.00000  Uiso   1.00
H25    H     0.94780   0.45640   0.29720   0.00000  Uiso   1.00
K29    K     0.35781   0.21019   0.50756   0.00000  Uiso   1.00
O30    O     0.55579   0.68001   0.84790   0.00000  Uiso   1.00
O31    O     0.32250   0.61990   0.90100   0.00000  Uiso   1.00
O32    O     0.52778   0.65462   0.12510   0.00000  Uiso   1.00
O33    O     0.49970   0.79550   0.27630   0.00000  Uiso   1.00
C34    C     0.44730   0.70550   0.90060   0.00000  Uiso   1.00
C35    C     0.51070   0.77270   0.16750   0.00000  Uiso   1.00
C36    C     0.47730   0.85690   0.95610   0.00000  Uiso   1.00
C37    C     0.50420   0.88860   0.07880   0.00000  Uiso   1.00
C38    C     0.47380   0.96880   0.87900   0.00000  Uiso   1.00
H39    H     0.45640   0.94780   0.79720   0.00000  Uiso   1.00
K43    K     0.78981   0.64219   0.99244   0.00000  Uiso   1.00
O44    O     0.31999   0.44421   0.65210   0.00000  Uiso   1.00
O45    O     0.38010   0.67750   0.59900   0.00000  Uiso   1.00
O46    O     0.34538   0.47222   0.37490   0.00000  Uiso   1.00
O47    O     0.20450   0.50030   0.22370   0.00000  Uiso   1.00
C48    C     0.29450   0.55270   0.59940   0.00000  Uiso   1.00
C49    C     0.22730   0.48930   0.33250   0.00000  Uiso   1.00
C50    C     0.14310   0.52270   0.54390   0.00000  Uiso   1.00
C51    C     0.11140   0.49580   0.42120   0.00000  Uiso   1.00
C52    C     0.03120   0.52620   0.62100   0.00000  Uiso   1.00
H53    H     0.05220   0.54360   0.70280   0.00000  Uiso   1.00
Zn57   Zn    0.49675   0.50325   0.25000   0.00000  Uiso   1.00
Zn59   Zn    0.50325   0.49675   0.75000   0.00000  Uiso   1.00
loop_
_geom_bond_atom_site_label_1
_geom_bond_atom_site_label_2
_geom_bond_distance
_geom_bond_site_symmetry_2
_ccdc_geom_bond_type
K1     O16     2.846   .     S
K1     O18     2.955   .     S
K1     O33     2.752   .     S
K1     O45     2.712   .     S
K1     Zn57    3.756   .     S
O2     C6      1.280   .     S
O2     Zn57    1.977   .     S
O2     K15     2.846   .     S
O3     C6      1.230   .     D
O3     K43     2.712   1_554 S
O4     C7      1.272   .     S
O4     Zn59    1.980   .     S
O4     K15     2.955   1_556 S
O5     C7      1.236   .     D
O5     K29     2.752   .     S
C6     C8      1.509   .     S
C7     C9      1.507   .     S
C8     C10     1.387   .     A
C8     C9      1.395   1_554 S
C9     C8      1.395   1_556 S
C9     C38     1.389   1_545 S
C10    H11     0.930   .     S
C10    C37     1.389   1_545 S
K15    O47     2.752   .     S
K15    Zn57    3.756   .     S
K15    O4      2.955   1_554 S
K15    O31     2.712   1_554 S
O16    C20     1.280   .     S
O16    Zn57    1.977   .     S
O17    C20     1.230   .     D
O17    K29     2.712   .     S
O18    C21     1.272   .     S
O18    Zn59    1.980   .     S
O19    C21     1.236   .     D
O19    K43     2.752   .     S
C20    C22     1.509   .     S
C21    C23     1.507   .     S
C22    C23     1.395   .     A
C22    C24     1.387   .     A
C23    C52     1.389   1_655 D
C24    H25     0.930   .     S
C24    C51     1.389   1_655 S
K29    O44     2.846   .     S
K29    O46     2.955   .     S
K29    Zn59    3.756   .     S
O30    C34     1.280   .     S
O30    Zn59    1.977   .     S
O30    K43     2.846   .     S
O31    C34     1.230   .     D
O31    K15     2.712   1_556 S
O32    C35     1.272   .     S
O32    Zn57    1.980   .     S
O32    K43     2.955   1_554 D
O33    C35     1.236   .     D
C34    C36     1.509   .     S
C35    C37     1.507   .     S
C36    C38     1.387   .     A
C36    C37     1.395   1_556 S
C37    C10     1.389   1_565 S
C37    C36     1.395   1_554 S
C38    H39     0.930   .     S
C38    C9      1.389   1_565 S
K43    Zn59    3.756   .     S
K43    O3      2.712   1_556 S
K43    O32     2.955   1_556 D
O44    C48     1.280   .     S
O44    Zn59    1.977   .     S
O45    C48     1.230   .     D
O46    C49     1.272   .     S
O46    Zn57    1.980   .     S
O47    C49     1.236   .     D
C48    C50     1.509   .     S
C49    C51     1.507   .     S
C50    C51     1.395   .     A
C50    C52     1.387   .     A
C51    C24     1.389   1_455 S
C52    H53     0.930   .     S
C52    C23     1.389   1_455 D
