data_image0
_cell_length_a       16.2079
_cell_length_b       17.833
_cell_length_c       11.6508
_cell_angle_alpha    90
_cell_angle_beta     90
_cell_angle_gamma    90

_symmetry_space_group_name_H-M    "P 1"
_symmetry_int_tables_number       1

loop_
  _symmetry_equiv_pos_as_xyz
  'x, y, z'

loop_
  _atom_site_label
  _atom_site_occupancy
  _atom_site_fract_x
  _atom_site_fract_y
  _atom_site_fract_z
  _atom_site_thermal_displace_type
  _atom_site_B_iso_or_equiv
  _atom_site_type_symbol
  C1       1.0000 0.19890  0.39990  0.83570  Biso   1.000  C
  C2       1.0000 0.45930  0.44950  0.74460  Biso   1.000  C
  H1       1.0000 0.42964  0.41305  0.78416  Biso   1.000  H
  C3       1.0000 0.45820  0.44750  0.62660  Biso   1.000  C
  H2       1.0000 0.42870  0.41013  0.58903  Biso   1.000  H
  C4       1.0000 0.43390  0.13000  0.74570  Biso   1.000  C
  H3       1.0000 0.46055  0.09198  0.78586  Biso   1.000  H
  C5       1.0000 0.43880  0.13000  0.62690  Biso   1.000  C
  H4       1.0000 0.46821  0.09249  0.58951  Biso   1.000  H
  C6       1.0000 0.40016  0.18545  0.56370  Biso   1.000  C
  C7       1.0000 0.35920  0.23957  0.62560  Biso   1.000  C
  H5       1.0000 0.33311  0.27884  0.58771  Biso   1.000  H
  C8       1.0000 0.35670  0.23576  0.74440  Biso   1.000  C
  H6       1.0000 0.32828  0.27298  0.78383  Biso   1.000  H
  N1       1.0000 0.20029  0.40081  0.73670  Biso   1.000  N
  N2       1.0000 0.39288  0.18172  0.80501  Biso   1.000  N
  C9       1.0000 0.80110  0.60010  0.83570  Biso   1.000  C
  C10      1.0000 0.54070  0.55050  0.74460  Biso   1.000  C
  H7       1.0000 0.57036  0.58695  0.78416  Biso   1.000  H
  C11      1.0000 0.54180  0.55250  0.62660  Biso   1.000  C
  H8       1.0000 0.57130  0.58987  0.58903  Biso   1.000  H
  C12      1.0000 0.56610  0.87000  0.74570  Biso   1.000  C
  H9       1.0000 0.53945  0.90802  0.78586  Biso   1.000  H
  C13      1.0000 0.56120  0.87000  0.62690  Biso   1.000  C
  H10      1.0000 0.53179  0.90751  0.58951  Biso   1.000  H
  C14      1.0000 0.59984  0.81455  0.56370  Biso   1.000  C
  C15      1.0000 0.64080  0.76043  0.62560  Biso   1.000  C
  H11      1.0000 0.66689  0.72116  0.58771  Biso   1.000  H
  C16      1.0000 0.64330  0.76424  0.74440  Biso   1.000  C
  H12      1.0000 0.67172  0.72702  0.78383  Biso   1.000  H
  N3       1.0000 0.79971  0.59919  0.73670  Biso   1.000  N
  N4       1.0000 0.60712  0.81828  0.80501  Biso   1.000  N
  C17      1.0000 0.30110  0.89990  0.16430  Biso   1.000  C
  C18      1.0000 0.04070  0.94950  0.25540  Biso   1.000  C
  H13      1.0000 0.07036  0.91305  0.21584  Biso   1.000  H
  C19      1.0000 0.04180  0.94750  0.37340  Biso   1.000  C
  H14      1.0000 0.07130  0.91013  0.41097  Biso   1.000  H
  C20      1.0000 0.06610  0.63000  0.25430  Biso   1.000  C
  H15      1.0000 0.03945  0.59198  0.21414  Biso   1.000  H
  C21      1.0000 0.06120  0.63000  0.37310  Biso   1.000  C
  H16      1.0000 0.03179  0.59249  0.41049  Biso   1.000  H
  C22      1.0000 0.09984  0.68545  0.43630  Biso   1.000  C
  C23      1.0000 0.14080  0.73957  0.37440  Biso   1.000  C
  H17      1.0000 0.16689  0.77884  0.41229  Biso   1.000  H
  C24      1.0000 0.14330  0.73576  0.25560  Biso   1.000  C
  H18      1.0000 0.17172  0.77298  0.21617  Biso   1.000  H
  N5       1.0000 0.29971  0.90081  0.26330  Biso   1.000  N
  N6       1.0000 0.10712  0.68172  0.19499  Biso   1.000  N
  C25      1.0000 0.69890  0.10010  0.16430  Biso   1.000  C
  C26      1.0000 0.95930  0.05050  0.25540  Biso   1.000  C
  H19      1.0000 0.92964  0.08695  0.21584  Biso   1.000  H
  C27      1.0000 0.95820  0.05250  0.37340  Biso   1.000  C
  H20      1.0000 0.92870  0.08987  0.41097  Biso   1.000  H
  C28      1.0000 0.93390  0.37000  0.25430  Biso   1.000  C
  H21      1.0000 0.96055  0.40802  0.21414  Biso   1.000  H
  C29      1.0000 0.93880  0.37000  0.37310  Biso   1.000  C
  H22      1.0000 0.96821  0.40751  0.41049  Biso   1.000  H
  C30      1.0000 0.90016  0.31455  0.43630  Biso   1.000  C
  C31      1.0000 0.85920  0.26043  0.37440  Biso   1.000  C
  H23      1.0000 0.83311  0.22116  0.41229  Biso   1.000  H
  C32      1.0000 0.85670  0.26424  0.25560  Biso   1.000  C
  H24      1.0000 0.82828  0.22702  0.21617  Biso   1.000  H
  N7       1.0000 0.70029  0.09919  0.26330  Biso   1.000  N
  N8       1.0000 0.89288  0.31828  0.19499  Biso   1.000  N
  C33      1.0000 0.80110  0.60010  0.16430  Biso   1.000  C
  C34      1.0000 0.54070  0.55050  0.25540  Biso   1.000  C
  H25      1.0000 0.57036  0.58695  0.21584  Biso   1.000  H
  C35      1.0000 0.54180  0.55250  0.37340  Biso   1.000  C
  H26      1.0000 0.57130  0.58987  0.41097  Biso   1.000  H
  C36      1.0000 0.56610  0.87000  0.25430  Biso   1.000  C
  H27      1.0000 0.53945  0.90802  0.21414  Biso   1.000  H
  C37      1.0000 0.56120  0.87000  0.37310  Biso   1.000  C
  H28      1.0000 0.53179  0.90751  0.41049  Biso   1.000  H
  C38      1.0000 0.59984  0.81455  0.43630  Biso   1.000  C
  C39      1.0000 0.64080  0.76043  0.37440  Biso   1.000  C
  H29      1.0000 0.66689  0.72116  0.41229  Biso   1.000  H
  C40      1.0000 0.64330  0.76424  0.25560  Biso   1.000  C
  H30      1.0000 0.67172  0.72702  0.21617  Biso   1.000  H
  N9       1.0000 0.79971  0.59919  0.26330  Biso   1.000  N
  N10      1.0000 0.60712  0.81828  0.19499  Biso   1.000  N
  C41      1.0000 0.19890  0.39990  0.16430  Biso   1.000  C
  C42      1.0000 0.45930  0.44950  0.25540  Biso   1.000  C
  H31      1.0000 0.42964  0.41305  0.21584  Biso   1.000  H
  C43      1.0000 0.45820  0.44750  0.37340  Biso   1.000  C
  H32      1.0000 0.42870  0.41013  0.41097  Biso   1.000  H
  C44      1.0000 0.43390  0.13000  0.25430  Biso   1.000  C
  H33      1.0000 0.46055  0.09198  0.21414  Biso   1.000  H
  C45      1.0000 0.43880  0.13000  0.37310  Biso   1.000  C
  H34      1.0000 0.46821  0.09249  0.41049  Biso   1.000  H
  C46      1.0000 0.40016  0.18545  0.43630  Biso   1.000  C
  C47      1.0000 0.35920  0.23957  0.37440  Biso   1.000  C
  H35      1.0000 0.33311  0.27884  0.41229  Biso   1.000  H
  C48      1.0000 0.35670  0.23576  0.25560  Biso   1.000  C
  H36      1.0000 0.32828  0.27298  0.21617  Biso   1.000  H
  N11      1.0000 0.20029  0.40081  0.26330  Biso   1.000  N
  N12      1.0000 0.39288  0.18172  0.19499  Biso   1.000  N
  C49      1.0000 0.69890  0.10010  0.83570  Biso   1.000  C
  C50      1.0000 0.95930  0.05050  0.74460  Biso   1.000  C
  H37      1.0000 0.92964  0.08695  0.78416  Biso   1.000  H
  C51      1.0000 0.95820  0.05250  0.62660  Biso   1.000  C
  H38      1.0000 0.92870  0.08987  0.58903  Biso   1.000  H
  C52      1.0000 0.93390  0.37000  0.74570  Biso   1.000  C
  H39      1.0000 0.96055  0.40802  0.78586  Biso   1.000  H
  C53      1.0000 0.93880  0.37000  0.62690  Biso   1.000  C
  H40      1.0000 0.96821  0.40751  0.58951  Biso   1.000  H
  C54      1.0000 0.90016  0.31455  0.56370  Biso   1.000  C
  C55      1.0000 0.85920  0.26043  0.62560  Biso   1.000  C
  H41      1.0000 0.83311  0.22116  0.58771  Biso   1.000  H
  C56      1.0000 0.85670  0.26424  0.74440  Biso   1.000  C
  H42      1.0000 0.82828  0.22702  0.78383  Biso   1.000  H
  N13      1.0000 0.70029  0.09919  0.73670  Biso   1.000  N
  N14      1.0000 0.89288  0.31828  0.80501  Biso   1.000  N
  C57      1.0000 0.30110  0.89990  0.83570  Biso   1.000  C
  C58      1.0000 0.04070  0.94950  0.74460  Biso   1.000  C
  H43      1.0000 0.07036  0.91305  0.78416  Biso   1.000  H
  C59      1.0000 0.04180  0.94750  0.62660  Biso   1.000  C
  H44      1.0000 0.07130  0.91013  0.58903  Biso   1.000  H
  C60      1.0000 0.06610  0.63000  0.74570  Biso   1.000  C
  H45      1.0000 0.03945  0.59198  0.78586  Biso   1.000  H
  C61      1.0000 0.06120  0.63000  0.62690  Biso   1.000  C
  H46      1.0000 0.03179  0.59249  0.58951  Biso   1.000  H
  C62      1.0000 0.09984  0.68545  0.56370  Biso   1.000  C
  C63      1.0000 0.14080  0.73957  0.62560  Biso   1.000  C
  H47      1.0000 0.16689  0.77884  0.58771  Biso   1.000  H
  C64      1.0000 0.14330  0.73576  0.74440  Biso   1.000  C
  H48      1.0000 0.17172  0.77298  0.78383  Biso   1.000  H
  N15      1.0000 0.29971  0.90081  0.73670  Biso   1.000  N
  N16      1.0000 0.10712  0.68172  0.80501  Biso   1.000  N
  C65      1.0000 0.08840  0.36889  0.00000  Biso   1.000  C
  C66      1.0000 0.16670  0.50120  0.00000  Biso   1.000  C
  C67      1.0000 0.23850  0.29980  0.00000  Biso   1.000  C
  C68      1.0000 0.30980  0.43146  0.00000  Biso   1.000  C
  N17      1.0000 0.02051  0.35099  0.00000  Biso   1.000  N
  N18      1.0000 0.15060  0.56365  0.00000  Biso   1.000  N
  N19      1.0000 0.27124  0.24251  0.00000  Biso   1.000  N
  N20      1.0000 0.37788  0.44824  0.00000  Biso   1.000  N
  Mn1      1.0000 0.19940  0.39971  0.00000  Biso   1.000  Mn
  Mn2      1.0000 0.38922  0.17837  0.00000  Biso   1.000  Mn
  C69      1.0000 0.91160  0.63111  0.00000  Biso   1.000  C
  C70      1.0000 0.83330  0.49880  0.00000  Biso   1.000  C
  C71      1.0000 0.76150  0.70020  0.00000  Biso   1.000  C
  C72      1.0000 0.69020  0.56854  0.00000  Biso   1.000  C
  N21      1.0000 0.97949  0.64901  0.00000  Biso   1.000  N
  N22      1.0000 0.84940  0.43635  0.00000  Biso   1.000  N
  N23      1.0000 0.72876  0.75749  0.00000  Biso   1.000  N
  N24      1.0000 0.62212  0.55176  0.00000  Biso   1.000  N
  Mn3      1.0000 0.80060  0.60029  0.00000  Biso   1.000  Mn
  Mn4      1.0000 0.61078  0.82163  0.00000  Biso   1.000  Mn
  C73      1.0000 0.41160  0.86889  0.00000  Biso   1.000  C
  C74      1.0000 0.33330  0.00120  0.00000  Biso   1.000  C
  C75      1.0000 0.26150  0.79980  0.00000  Biso   1.000  C
  C76      1.0000 0.19020  0.93146  0.00000  Biso   1.000  C
  N25      1.0000 0.47949  0.85099  0.00000  Biso   1.000  N
  N26      1.0000 0.34940  0.06365  0.00000  Biso   1.000  N
  N27      1.0000 0.22876  0.74251  0.00000  Biso   1.000  N
  N28      1.0000 0.12212  0.94824  0.00000  Biso   1.000  N
  Mn5      1.0000 0.30060  0.89971  0.00000  Biso   1.000  Mn
  Mn6      1.0000 0.11078  0.67837  0.00000  Biso   1.000  Mn
  C77      1.0000 0.58840  0.13111  0.00000  Biso   1.000  C
  C78      1.0000 0.66670  0.99880  0.00000  Biso   1.000  C
  C79      1.0000 0.73850  0.20020  0.00000  Biso   1.000  C
  C80      1.0000 0.80980  0.06854  0.00000  Biso   1.000  C
  N29      1.0000 0.52051  0.14901  0.00000  Biso   1.000  N
  N30      1.0000 0.65060  0.93635  0.00000  Biso   1.000  N
  N31      1.0000 0.77124  0.25749  0.00000  Biso   1.000  N
  N32      1.0000 0.87788  0.05176  0.00000  Biso   1.000  N
  Mn7      1.0000 0.69940  0.10029  0.00000  Biso   1.000  Mn
  Mn8      1.0000 0.88922  0.32163  0.00000  Biso   1.000  Mn
  C81      1.0000 0.50000  0.50000  0.56400  Biso   1.000  C
  N33      1.0000 0.50000  0.50000  0.80510  Biso   1.000  N
  C82      1.0000 0.00000  0.00000  0.43600  Biso   1.000  C
  N34      1.0000 0.00000  0.00000  0.19490  Biso   1.000  N
  C83      1.0000 0.50000  0.50000  0.43600  Biso   1.000  C
  N35      1.0000 0.50000  0.50000  0.19490  Biso   1.000  N
  C84      1.0000 0.00000  0.00000  0.56400  Biso   1.000  C
  N36      1.0000 0.00000  0.00000  0.80510  Biso   1.000  N
  Mn9      1.0000 0.50000  0.50000  0.00000  Biso   1.000  Mn
  Mn10     1.0000 0.00000  0.00000  0.00000  Biso   1.000  Mn
