data_image0
_cell_length_a       20.6494
_cell_length_b       35.261
_cell_length_c       10.1318
_cell_angle_alpha    90
_cell_angle_beta     115.004
_cell_angle_gamma    90

_symmetry_space_group_name_H-M    "P 1"
_symmetry_int_tables_number       1

loop_
  _symmetry_equiv_pos_as_xyz
  'x, y, z'

loop_
  _atom_site_label
  _atom_site_occupancy
  _atom_site_fract_x
  _atom_site_fract_y
  _atom_site_fract_z
  _atom_site_thermal_displace_type
  _atom_site_B_iso_or_equiv
  _atom_site_type_symbol
  Sm1      1.0000 0.63698  0.47008  0.97796  Biso   1.000  Sm
  Sm2      1.0000 0.75699  0.30803  0.01054  Biso   1.000  Sm
  S1       1.0000 0.84478  0.24701  0.32068  Biso   1.000  S
  S2       1.0000 0.70721  0.39034  0.01999  Biso   1.000  S
  S3       1.0000 0.55789  0.53542  0.13942  Biso   1.000  S
  S4       1.0000 0.86733  0.23292  0.94329  Biso   1.000  S
  S5       1.0000 0.75398  0.52691  0.87344  Biso   1.000  S
  S6       1.0000 0.90358  0.34439  0.04318  Biso   1.000  S
  O1       1.0000 0.79969  0.28064  0.25170  Biso   1.000  O
  O2       1.0000 0.81543  0.25314  0.98690  Biso   1.000  O
  O3       1.0000 0.58504  0.52804  0.02850  Biso   1.000  O
  O4       1.0000 0.85010  0.19246  0.94480  Biso   1.000  O
  O5       1.0000 0.73954  0.42673  0.00450  Biso   1.000  O
  O6       1.0000 0.91712  0.25366  0.32990  Biso   1.000  O
  O7       1.0000 0.60020  0.56533  0.24160  Biso   1.000  O
  O8       1.0000 0.89330  0.32447  0.16490  Biso   1.000  O
  O9       1.0000 0.93996  0.24000  0.05460  Biso   1.000  O
  O10      1.0000 0.56510  0.50130  0.22910  Biso   1.000  O
  O11      1.0000 0.75819  0.36847  0.14520  Biso   1.000  O
  O12      1.0000 0.84800  0.24236  0.46600  Biso   1.000  O
  O13      1.0000 0.83656  0.33821  0.91200  Biso   1.000  O
  O14      1.0000 0.64195  0.40127  0.03690  Biso   1.000  O
  O15      1.0000 0.48295  0.54808  0.06330  Biso   1.000  O
  O16      1.0000 0.81450  0.21259  0.23360  Biso   1.000  O
  O17      1.0000 0.68985  0.36559  0.89230  Biso   1.000  O
  O18      1.0000 0.96549  0.32524  0.03690  Biso   1.000  O
  O19      1.0000 0.86030  0.24494  0.80190  Biso   1.000  O
  O20      1.0000 0.91640  0.38465  0.07370  Biso   1.000  O
  O21      1.0000 0.71400  0.51495  0.95740  Biso   1.000  O
  O22      1.0000 0.71000  0.51897  0.71990  Biso   1.000  O
  O23      1.0000 0.77150  0.56645  0.89490  Biso   1.000  O
  O24      1.0000 0.81900  0.50420  0.92190  Biso   1.000  O
  Sm3      1.0000 0.13698  0.97008  0.97796  Biso   1.000  Sm
  Sm4      1.0000 0.25699  0.80803  0.01054  Biso   1.000  Sm
  S7       1.0000 0.34478  0.74701  0.32068  Biso   1.000  S
  S8       1.0000 0.20721  0.89034  0.01999  Biso   1.000  S
  S9       1.0000 0.05789  0.03542  0.13942  Biso   1.000  S
  S10      1.0000 0.36733  0.73292  0.94329  Biso   1.000  S
  S11      1.0000 0.25398  0.02691  0.87344  Biso   1.000  S
  S12      1.0000 0.40358  0.84439  0.04318  Biso   1.000  S
  O25      1.0000 0.29969  0.78064  0.25170  Biso   1.000  O
  O26      1.0000 0.31543  0.75314  0.98690  Biso   1.000  O
  O27      1.0000 0.08504  0.02804  0.02850  Biso   1.000  O
  O28      1.0000 0.35010  0.69246  0.94480  Biso   1.000  O
  O29      1.0000 0.23954  0.92673  0.00450  Biso   1.000  O
  O30      1.0000 0.41712  0.75366  0.32990  Biso   1.000  O
  O31      1.0000 0.10020  0.06533  0.24160  Biso   1.000  O
  O32      1.0000 0.39330  0.82447  0.16490  Biso   1.000  O
  O33      1.0000 0.43996  0.74000  0.05460  Biso   1.000  O
  O34      1.0000 0.06510  0.00130  0.22910  Biso   1.000  O
  O35      1.0000 0.25819  0.86847  0.14520  Biso   1.000  O
  O36      1.0000 0.34800  0.74236  0.46600  Biso   1.000  O
  O37      1.0000 0.33656  0.83821  0.91200  Biso   1.000  O
  O38      1.0000 0.14195  0.90127  0.03690  Biso   1.000  O
  O39      1.0000 0.98295  0.04808  0.06330  Biso   1.000  O
  O40      1.0000 0.31450  0.71259  0.23360  Biso   1.000  O
  O41      1.0000 0.18985  0.86559  0.89230  Biso   1.000  O
  O42      1.0000 0.46549  0.82524  0.03690  Biso   1.000  O
  O43      1.0000 0.36030  0.74494  0.80190  Biso   1.000  O
  O44      1.0000 0.41640  0.88465  0.07370  Biso   1.000  O
  O45      1.0000 0.21400  0.01495  0.95740  Biso   1.000  O
  O46      1.0000 0.21000  0.01897  0.71990  Biso   1.000  O
  O47      1.0000 0.27150  0.06645  0.89490  Biso   1.000  O
  O48      1.0000 0.31900  0.00420  0.92190  Biso   1.000  O
  Sm5      1.0000 0.36302  0.47008  0.52204  Biso   1.000  Sm
  Sm6      1.0000 0.24301  0.30803  0.48946  Biso   1.000  Sm
  S13      1.0000 0.15522  0.24701  0.17932  Biso   1.000  S
  S14      1.0000 0.29279  0.39034  0.48001  Biso   1.000  S
  S15      1.0000 0.44211  0.53542  0.36058  Biso   1.000  S
  S16      1.0000 0.13267  0.23292  0.55671  Biso   1.000  S
  S17      1.0000 0.24602  0.52691  0.62656  Biso   1.000  S
  S18      1.0000 0.09642  0.34439  0.45682  Biso   1.000  S
  O49      1.0000 0.20031  0.28064  0.24830  Biso   1.000  O
  O50      1.0000 0.18457  0.25314  0.51310  Biso   1.000  O
  O51      1.0000 0.41496  0.52804  0.47150  Biso   1.000  O
  O52      1.0000 0.14990  0.19246  0.55520  Biso   1.000  O
  O53      1.0000 0.26046  0.42673  0.49550  Biso   1.000  O
  O54      1.0000 0.08288  0.25366  0.17010  Biso   1.000  O
  O55      1.0000 0.39980  0.56533  0.25840  Biso   1.000  O
  O56      1.0000 0.10670  0.32447  0.33510  Biso   1.000  O
  O57      1.0000 0.06004  0.24000  0.44540  Biso   1.000  O
  O58      1.0000 0.43490  0.50130  0.27090  Biso   1.000  O
  O59      1.0000 0.24181  0.36847  0.35480  Biso   1.000  O
  O60      1.0000 0.15200  0.24236  0.03400  Biso   1.000  O
  O61      1.0000 0.16344  0.33821  0.58800  Biso   1.000  O
  O62      1.0000 0.35805  0.40127  0.46310  Biso   1.000  O
  O63      1.0000 0.51705  0.54808  0.43670  Biso   1.000  O
  O64      1.0000 0.18550  0.21259  0.26640  Biso   1.000  O
  O65      1.0000 0.31015  0.36559  0.60770  Biso   1.000  O
  O66      1.0000 0.03451  0.32524  0.46310  Biso   1.000  O
  O67      1.0000 0.13970  0.24494  0.69810  Biso   1.000  O
  O68      1.0000 0.08360  0.38465  0.42630  Biso   1.000  O
  O69      1.0000 0.28600  0.51495  0.54260  Biso   1.000  O
  O70      1.0000 0.29000  0.51897  0.78010  Biso   1.000  O
  O71      1.0000 0.22850  0.56645  0.60510  Biso   1.000  O
  O72      1.0000 0.18100  0.50420  0.57810  Biso   1.000  O
  Sm7      1.0000 0.86302  0.97008  0.52204  Biso   1.000  Sm
  Sm8      1.0000 0.74301  0.80803  0.48946  Biso   1.000  Sm
  S19      1.0000 0.65522  0.74701  0.17932  Biso   1.000  S
  S20      1.0000 0.79279  0.89034  0.48001  Biso   1.000  S
  S21      1.0000 0.94211  0.03542  0.36058  Biso   1.000  S
  S22      1.0000 0.63267  0.73292  0.55671  Biso   1.000  S
  S23      1.0000 0.74602  0.02691  0.62656  Biso   1.000  S
  S24      1.0000 0.59642  0.84439  0.45682  Biso   1.000  S
  O73      1.0000 0.70031  0.78064  0.24830  Biso   1.000  O
  O74      1.0000 0.68457  0.75314  0.51310  Biso   1.000  O
  O75      1.0000 0.91496  0.02804  0.47150  Biso   1.000  O
  O76      1.0000 0.64990  0.69246  0.55520  Biso   1.000  O
  O77      1.0000 0.76046  0.92673  0.49550  Biso   1.000  O
  O78      1.0000 0.58288  0.75366  0.17010  Biso   1.000  O
  O79      1.0000 0.89980  0.06533  0.25840  Biso   1.000  O
  O80      1.0000 0.60670  0.82447  0.33510  Biso   1.000  O
  O81      1.0000 0.56004  0.74000  0.44540  Biso   1.000  O
  O82      1.0000 0.93490  0.00130  0.27090  Biso   1.000  O
  O83      1.0000 0.74181  0.86847  0.35480  Biso   1.000  O
  O84      1.0000 0.65200  0.74236  0.03400  Biso   1.000  O
  O85      1.0000 0.66344  0.83821  0.58800  Biso   1.000  O
  O86      1.0000 0.85805  0.90127  0.46310  Biso   1.000  O
  O87      1.0000 0.01705  0.04808  0.43670  Biso   1.000  O
  O88      1.0000 0.68550  0.71259  0.26640  Biso   1.000  O
  O89      1.0000 0.81015  0.86559  0.60770  Biso   1.000  O
  O90      1.0000 0.53451  0.82524  0.46310  Biso   1.000  O
  O91      1.0000 0.63970  0.74494  0.69810  Biso   1.000  O
  O92      1.0000 0.58360  0.88465  0.42630  Biso   1.000  O
  O93      1.0000 0.78600  0.01495  0.54260  Biso   1.000  O
  O94      1.0000 0.79000  0.01897  0.78010  Biso   1.000  O
  O95      1.0000 0.72850  0.06645  0.60510  Biso   1.000  O
  O96      1.0000 0.68100  0.00420  0.57810  Biso   1.000  O
  Sm9      1.0000 0.36302  0.52992  0.02204  Biso   1.000  Sm
  Sm10     1.0000 0.24301  0.69197  0.98946  Biso   1.000  Sm
  S25      1.0000 0.15522  0.75299  0.67932  Biso   1.000  S
  S26      1.0000 0.29279  0.60966  0.98001  Biso   1.000  S
  S27      1.0000 0.44211  0.46458  0.86058  Biso   1.000  S
  S28      1.0000 0.13267  0.76708  0.05671  Biso   1.000  S
  S29      1.0000 0.24602  0.47309  0.12656  Biso   1.000  S
  S30      1.0000 0.09642  0.65561  0.95682  Biso   1.000  S
  O97      1.0000 0.20031  0.71936  0.74830  Biso   1.000  O
  O98      1.0000 0.18457  0.74686  0.01310  Biso   1.000  O
  O99      1.0000 0.41496  0.47196  0.97150  Biso   1.000  O
  O100     1.0000 0.14990  0.80754  0.05520  Biso   1.000  O
  O101     1.0000 0.26046  0.57327  0.99550  Biso   1.000  O
  O102     1.0000 0.08288  0.74634  0.67010  Biso   1.000  O
  O103     1.0000 0.39980  0.43467  0.75840  Biso   1.000  O
  O104     1.0000 0.10670  0.67553  0.83510  Biso   1.000  O
  O105     1.0000 0.06004  0.76000  0.94540  Biso   1.000  O
  O106     1.0000 0.43490  0.49870  0.77090  Biso   1.000  O
  O107     1.0000 0.24181  0.63153  0.85480  Biso   1.000  O
  O108     1.0000 0.15200  0.75764  0.53400  Biso   1.000  O
  O109     1.0000 0.16344  0.66179  0.08800  Biso   1.000  O
  O110     1.0000 0.35805  0.59873  0.96310  Biso   1.000  O
  O111     1.0000 0.51705  0.45192  0.93670  Biso   1.000  O
  O112     1.0000 0.18550  0.78741  0.76640  Biso   1.000  O
  O113     1.0000 0.31015  0.63441  0.10770  Biso   1.000  O
  O114     1.0000 0.03451  0.67476  0.96310  Biso   1.000  O
  O115     1.0000 0.13970  0.75506  0.19810  Biso   1.000  O
  O116     1.0000 0.08360  0.61535  0.92630  Biso   1.000  O
  O117     1.0000 0.28600  0.48505  0.04260  Biso   1.000  O
  O118     1.0000 0.29000  0.48103  0.28010  Biso   1.000  O
  O119     1.0000 0.22850  0.43355  0.10510  Biso   1.000  O
  O120     1.0000 0.18100  0.49580  0.07810  Biso   1.000  O
  Sm11     1.0000 0.86302  0.02992  0.02204  Biso   1.000  Sm
  Sm12     1.0000 0.74301  0.19197  0.98946  Biso   1.000  Sm
  S31      1.0000 0.65522  0.25299  0.67932  Biso   1.000  S
  S32      1.0000 0.79279  0.10966  0.98001  Biso   1.000  S
  S33      1.0000 0.94211  0.96458  0.86058  Biso   1.000  S
  S34      1.0000 0.63267  0.26708  0.05671  Biso   1.000  S
  S35      1.0000 0.74602  0.97309  0.12656  Biso   1.000  S
  S36      1.0000 0.59642  0.15561  0.95682  Biso   1.000  S
  O121     1.0000 0.70031  0.21936  0.74830  Biso   1.000  O
  O122     1.0000 0.68457  0.24686  0.01310  Biso   1.000  O
  O123     1.0000 0.91496  0.97196  0.97150  Biso   1.000  O
  O124     1.0000 0.64990  0.30754  0.05520  Biso   1.000  O
  O125     1.0000 0.76046  0.07327  0.99550  Biso   1.000  O
  O126     1.0000 0.58288  0.24634  0.67010  Biso   1.000  O
  O127     1.0000 0.89980  0.93467  0.75840  Biso   1.000  O
  O128     1.0000 0.60670  0.17553  0.83510  Biso   1.000  O
  O129     1.0000 0.56004  0.26000  0.94540  Biso   1.000  O
  O130     1.0000 0.93490  0.99870  0.77090  Biso   1.000  O
  O131     1.0000 0.74181  0.13153  0.85480  Biso   1.000  O
  O132     1.0000 0.65200  0.25764  0.53400  Biso   1.000  O
  O133     1.0000 0.66344  0.16179  0.08800  Biso   1.000  O
  O134     1.0000 0.85805  0.09873  0.96310  Biso   1.000  O
  O135     1.0000 0.01705  0.95192  0.93670  Biso   1.000  O
  O136     1.0000 0.68550  0.28741  0.76640  Biso   1.000  O
  O137     1.0000 0.81015  0.13441  0.10770  Biso   1.000  O
  O138     1.0000 0.53451  0.17476  0.96310  Biso   1.000  O
  O139     1.0000 0.63970  0.25506  0.19810  Biso   1.000  O
  O140     1.0000 0.58360  0.11535  0.92630  Biso   1.000  O
  O141     1.0000 0.78600  0.98505  0.04260  Biso   1.000  O
  O142     1.0000 0.79000  0.98103  0.28010  Biso   1.000  O
  O143     1.0000 0.72850  0.93355  0.10510  Biso   1.000  O
  O144     1.0000 0.68100  0.99580  0.07810  Biso   1.000  O
  Sm13     1.0000 0.63698  0.52992  0.47796  Biso   1.000  Sm
  Sm14     1.0000 0.75699  0.69197  0.51054  Biso   1.000  Sm
  S37      1.0000 0.84478  0.75299  0.82068  Biso   1.000  S
  S38      1.0000 0.70721  0.60966  0.51999  Biso   1.000  S
  S39      1.0000 0.55789  0.46458  0.63942  Biso   1.000  S
  S40      1.0000 0.86733  0.76708  0.44329  Biso   1.000  S
  S41      1.0000 0.75398  0.47309  0.37344  Biso   1.000  S
  S42      1.0000 0.90358  0.65561  0.54318  Biso   1.000  S
  O145     1.0000 0.79969  0.71936  0.75170  Biso   1.000  O
  O146     1.0000 0.81543  0.74686  0.48690  Biso   1.000  O
  O147     1.0000 0.58504  0.47196  0.52850  Biso   1.000  O
  O148     1.0000 0.85010  0.80754  0.44480  Biso   1.000  O
  O149     1.0000 0.73954  0.57327  0.50450  Biso   1.000  O
  O150     1.0000 0.91712  0.74634  0.82990  Biso   1.000  O
  O151     1.0000 0.60020  0.43467  0.74160  Biso   1.000  O
  O152     1.0000 0.89330  0.67553  0.66490  Biso   1.000  O
  O153     1.0000 0.93996  0.76000  0.55460  Biso   1.000  O
  O154     1.0000 0.56510  0.49870  0.72910  Biso   1.000  O
  O155     1.0000 0.75819  0.63153  0.64520  Biso   1.000  O
  O156     1.0000 0.84800  0.75764  0.96600  Biso   1.000  O
  O157     1.0000 0.83656  0.66179  0.41200  Biso   1.000  O
  O158     1.0000 0.64195  0.59873  0.53690  Biso   1.000  O
  O159     1.0000 0.48295  0.45192  0.56330  Biso   1.000  O
  O160     1.0000 0.81450  0.78741  0.73360  Biso   1.000  O
  O161     1.0000 0.68985  0.63441  0.39230  Biso   1.000  O
  O162     1.0000 0.96549  0.67476  0.53690  Biso   1.000  O
  O163     1.0000 0.86030  0.75506  0.30190  Biso   1.000  O
  O164     1.0000 0.91640  0.61535  0.57370  Biso   1.000  O
  O165     1.0000 0.71400  0.48505  0.45740  Biso   1.000  O
  O166     1.0000 0.71000  0.48103  0.21990  Biso   1.000  O
  O167     1.0000 0.77150  0.43355  0.39490  Biso   1.000  O
  O168     1.0000 0.81900  0.49580  0.42190  Biso   1.000  O
  Sm15     1.0000 0.13698  0.02992  0.47796  Biso   1.000  Sm
  Sm16     1.0000 0.25699  0.19197  0.51054  Biso   1.000  Sm
  S43      1.0000 0.34478  0.25299  0.82068  Biso   1.000  S
  S44      1.0000 0.20721  0.10966  0.51999  Biso   1.000  S
  S45      1.0000 0.05789  0.96458  0.63942  Biso   1.000  S
  S46      1.0000 0.36733  0.26708  0.44329  Biso   1.000  S
  S47      1.0000 0.25398  0.97309  0.37344  Biso   1.000  S
  S48      1.0000 0.40358  0.15561  0.54318  Biso   1.000  S
  O169     1.0000 0.29969  0.21936  0.75170  Biso   1.000  O
  O170     1.0000 0.31543  0.24686  0.48690  Biso   1.000  O
  O171     1.0000 0.08504  0.97196  0.52850  Biso   1.000  O
  O172     1.0000 0.35010  0.30754  0.44480  Biso   1.000  O
  O173     1.0000 0.23954  0.07327  0.50450  Biso   1.000  O
  O174     1.0000 0.41712  0.24634  0.82990  Biso   1.000  O
  O175     1.0000 0.10020  0.93467  0.74160  Biso   1.000  O
  O176     1.0000 0.39330  0.17553  0.66490  Biso   1.000  O
  O177     1.0000 0.43996  0.26000  0.55460  Biso   1.000  O
  O178     1.0000 0.06510  0.99870  0.72910  Biso   1.000  O
  O179     1.0000 0.25819  0.13153  0.64520  Biso   1.000  O
  O180     1.0000 0.34800  0.25764  0.96600  Biso   1.000  O
  O181     1.0000 0.33656  0.16179  0.41200  Biso   1.000  O
  O182     1.0000 0.14195  0.09873  0.53690  Biso   1.000  O
  O183     1.0000 0.98295  0.95192  0.56330  Biso   1.000  O
  O184     1.0000 0.31450  0.28741  0.73360  Biso   1.000  O
  O185     1.0000 0.18985  0.13441  0.39230  Biso   1.000  O
  O186     1.0000 0.46549  0.17476  0.53690  Biso   1.000  O
  O187     1.0000 0.36030  0.25506  0.30190  Biso   1.000  O
  O188     1.0000 0.41640  0.11535  0.57370  Biso   1.000  O
  O189     1.0000 0.21400  0.98505  0.45740  Biso   1.000  O
  O190     1.0000 0.21000  0.98103  0.21990  Biso   1.000  O
  O191     1.0000 0.27150  0.93355  0.39490  Biso   1.000  O
  O192     1.0000 0.31900  0.99580  0.42190  Biso   1.000  O
  Sm17     1.0000 0.00000  0.28095  0.25000  Biso   1.000  Sm
  Sm18     1.0000 0.50000  0.78095  0.25000  Biso   1.000  Sm
  Sm19     1.0000 0.00000  0.71905  0.75000  Biso   1.000  Sm
  Sm20     1.0000 0.50000  0.21905  0.75000  Biso   1.000  Sm
