data_image0
_cell_length_a       12.965
_cell_length_b       12.9796
_cell_length_c       20.1038
_cell_angle_alpha    90
_cell_angle_beta     95.1696
_cell_angle_gamma    90

_symmetry_space_group_name_H-M    "P 1"
_symmetry_int_tables_number       1

loop_
  _symmetry_equiv_pos_as_xyz
  'x, y, z'

loop_
  _atom_site_label
  _atom_site_occupancy
  _atom_site_fract_x
  _atom_site_fract_y
  _atom_site_fract_z
  _atom_site_thermal_displace_type
  _atom_site_B_iso_or_equiv
  _atom_site_type_symbol
  Np1      1.0000 0.39955  0.87538  0.36814  Biso   1.000  Np
  Np2      1.0000 0.27940  0.58770  0.30416  Biso   1.000  Np
  Np3      1.0000 0.19840  0.28560  0.33833  Biso   1.000  Np
  Np4      1.0000 0.01119  0.69678  0.37210  Biso   1.000  Np
  Np5      1.0000 0.09828  0.97871  0.30194  Biso   1.000  Np
  Np6      1.0000 0.69516  0.78133  0.33544  Biso   1.000  Np
  Np7      1.0000 0.80141  0.09073  0.34236  Biso   1.000  Np
  Np8      1.0000 0.50905  0.17623  0.33237  Biso   1.000  Np
  Np9      1.0000 0.89281  0.39440  0.33497  Biso   1.000  Np
  Np10     1.0000 0.58494  0.47520  0.33870  Biso   1.000  Np
  O1       1.0000 0.06310  0.32340  0.34800  Biso   1.000  O
  O2       1.0000 0.94560  0.51960  0.36320  Biso   1.000  O
  O3       1.0000 0.46220  0.05280  0.36080  Biso   1.000  O
  O4       1.0000 0.45280  0.52030  0.31250  Biso   1.000  O
  O5       1.0000 0.71990  0.43340  0.36210  Biso   1.000  O
  O6       1.0000 0.49710  0.21870  0.45950  Biso   1.000  O
  O7       1.0000 0.73290  0.91840  0.33910  Biso   1.000  O
  O8       1.0000 0.47570  0.34650  0.75590  Biso   1.000  O
  O9       1.0000 0.74570  0.06740  0.21300  Biso   1.000  O
  O10      1.0000 0.58450  0.00550  0.91950  Biso   1.000  O
  O11      1.0000 0.33470  0.24520  0.33550  Biso   1.000  O
  O12      1.0000 0.33240  0.54410  0.42240  Biso   1.000  O
  O13      1.0000 0.31370  0.51320  0.73360  Biso   1.000  O
  O14      1.0000 0.56370  0.16580  0.95520  Biso   1.000  O
  O15      1.0000 0.63740  0.36240  0.72130  Biso   1.000  O
  O16      1.0000 0.14910  0.11320  0.30240  Biso   1.000  O
  O17      1.0000 0.14610  0.64920  0.37040  Biso   1.000  O
  O18      1.0000 0.60440  0.06970  0.26420  Biso   1.000  O
  O19      1.0000 0.35130  0.99940  0.94910  Biso   1.000  O
  O20      1.0000 0.26680  0.92740  0.35660  Biso   1.000  O
  O21      1.0000 0.53140  0.82500  0.38060  Biso   1.000  O
  O22      1.0000 0.50010  0.37260  0.41260  Biso   1.000  O
  O23      1.0000 0.46540  0.58080  0.72720  Biso   1.000  O
  O24      1.0000 0.92180  0.03960  0.31280  Biso   1.000  O
  O25      1.0000 0.22630  0.45640  0.29520  Biso   1.000  O
  O26      1.0000 0.65390  0.64510  0.32500  Biso   1.000  O
  O27      1.0000 0.58010  0.83410  0.24260  Biso   1.000  O
  O28      1.0000 0.42140  0.84340  0.94020  Biso   1.000  O
  O29      1.0000 0.64510  0.23170  0.11430  Biso   1.000  O
  O30      1.0000 0.26130  0.38750  0.43120  Biso   1.000  O
  C1       1.0000 0.39020  0.52460  0.70240  Biso   1.000  C
  O31      1.0000 0.67970  0.30890  0.55900  Biso   1.000  O
  O32      1.0000 0.68710  0.14380  0.38110  Biso   1.000  O
  O33      1.0000 0.76000  0.14170  0.05810  Biso   1.000  O
  C2       1.0000 0.51760  0.93770  0.15300  Biso   1.000  C
  O34      1.0000 0.40290  0.75040  0.13990  Biso   1.000  O
  O35      1.0000 0.55960  0.29470  0.29560  Biso   1.000  O
  O36      1.0000 0.18920  0.55060  0.53600  Biso   1.000  O
  O37      1.0000 0.28440  0.64030  0.61380  Biso   1.000  O
  O38      1.0000 0.59980  0.18750  0.61550  Biso   1.000  O
  C3       1.0000 0.56960  0.07580  0.96280  Biso   1.000  C
  O39      1.0000 0.84480  0.26310  0.30910  Biso   1.000  O
  C4       1.0000 0.50520  0.88990  0.22210  Biso   1.000  C
  C5       1.0000 0.60870  0.06140  0.08830  Biso   1.000  C
  C6       1.0000 0.51460  0.34360  0.58720  Biso   1.000  C
  C7       1.0000 0.46380  0.90570  0.09620  Biso   1.000  C
  C8       1.0000 0.68080  0.14980  0.08520  Biso   1.000  C
  C9       1.0000 0.47190  0.94990  0.03600  Biso   1.000  C
  O40      1.0000 0.87520  0.73660  0.37180  Biso   1.000  O
  C10      1.0000 0.49000  0.31600  0.46050  Biso   1.000  C
  O41      1.0000 0.42450  0.90700  0.24980  Biso   1.000  O
  O42      1.0000 0.30820  0.82350  0.05630  Biso   1.000  O
  C11      1.0000 0.26770  0.56690  0.57440  Biso   1.000  C
  C12      1.0000 0.53720  0.36410  0.71370  Biso   1.000  C
  C13      1.0000 0.60370  0.27160  0.58840  Biso   1.000  C
  C14      1.0000 0.65150  0.05630  0.21170  Biso   1.000  C
  C15      1.0000 0.38590  0.81800  0.09750  Biso   1.000  C
  C16      1.0000 0.46100  0.36660  0.52340  Biso   1.000  C
  C17      1.0000 0.48580  0.39340  0.64330  Biso   1.000  C
  O43      1.0000 0.04920  0.84460  0.30410  Biso   1.000  O
  C18      1.0000 0.40870  0.46560  0.63890  Biso   1.000  C
  C19      1.0000 0.41020  0.92590  0.97140  Biso   1.000  C
  C20      1.0000 0.32020  0.45620  0.45280  Biso   1.000  C
  C21      1.0000 0.55630  0.02770  0.03140  Biso   1.000  C
  O44      1.0000 0.33530  0.71980  0.31320  Biso   1.000  O
  C22      1.0000 0.37560  0.44010  0.51920  Biso   1.000  C
  C23      1.0000 0.59210  0.01800  0.14890  Biso   1.000  C
  C24      1.0000 0.35350  0.48860  0.57730  Biso   1.000  C
  Np11     1.0000 0.89955  0.12462  0.86814  Biso   1.000  Np
  Np12     1.0000 0.77940  0.41230  0.80416  Biso   1.000  Np
  Np13     1.0000 0.69840  0.71440  0.83833  Biso   1.000  Np
  Np14     1.0000 0.51119  0.30322  0.87210  Biso   1.000  Np
  Np15     1.0000 0.59828  0.02129  0.80194  Biso   1.000  Np
  Np16     1.0000 0.19516  0.21867  0.83544  Biso   1.000  Np
  Np17     1.0000 0.30141  0.90927  0.84236  Biso   1.000  Np
  Np18     1.0000 0.00905  0.82377  0.83237  Biso   1.000  Np
  Np19     1.0000 0.39281  0.60560  0.83497  Biso   1.000  Np
  Np20     1.0000 0.08494  0.52480  0.83870  Biso   1.000  Np
  O45      1.0000 0.56310  0.67660  0.84800  Biso   1.000  O
  O46      1.0000 0.44560  0.48040  0.86320  Biso   1.000  O
  O47      1.0000 0.96220  0.94720  0.86080  Biso   1.000  O
  O48      1.0000 0.95280  0.47970  0.81250  Biso   1.000  O
  O49      1.0000 0.21990  0.56660  0.86210  Biso   1.000  O
  O50      1.0000 0.99710  0.78130  0.95950  Biso   1.000  O
  O51      1.0000 0.23290  0.08160  0.83910  Biso   1.000  O
  O52      1.0000 0.97570  0.65350  0.25590  Biso   1.000  O
  O53      1.0000 0.24570  0.93260  0.71300  Biso   1.000  O
  O54      1.0000 0.08450  0.99450  0.41950  Biso   1.000  O
  O55      1.0000 0.83470  0.75480  0.83550  Biso   1.000  O
  O56      1.0000 0.83240  0.45590  0.92240  Biso   1.000  O
  O57      1.0000 0.81370  0.48680  0.23360  Biso   1.000  O
  O58      1.0000 0.06370  0.83420  0.45520  Biso   1.000  O
  O59      1.0000 0.13740  0.63760  0.22130  Biso   1.000  O
  O60      1.0000 0.64910  0.88680  0.80240  Biso   1.000  O
  O61      1.0000 0.64610  0.35080  0.87040  Biso   1.000  O
  O62      1.0000 0.10440  0.93030  0.76420  Biso   1.000  O
  O63      1.0000 0.85130  0.00060  0.44910  Biso   1.000  O
  O64      1.0000 0.76680  0.07260  0.85660  Biso   1.000  O
  O65      1.0000 0.03140  0.17500  0.88060  Biso   1.000  O
  O66      1.0000 0.00010  0.62740  0.91260  Biso   1.000  O
  O67      1.0000 0.96540  0.41920  0.22720  Biso   1.000  O
  O68      1.0000 0.42180  0.96040  0.81280  Biso   1.000  O
  O69      1.0000 0.72630  0.54360  0.79520  Biso   1.000  O
  O70      1.0000 0.15390  0.35490  0.82500  Biso   1.000  O
  O71      1.0000 0.08010  0.16590  0.74260  Biso   1.000  O
  O72      1.0000 0.92140  0.15660  0.44020  Biso   1.000  O
  O73      1.0000 0.14510  0.76830  0.61430  Biso   1.000  O
  O74      1.0000 0.76130  0.61250  0.93120  Biso   1.000  O
  C25      1.0000 0.89020  0.47540  0.20240  Biso   1.000  C
  O75      1.0000 0.17970  0.69110  0.05900  Biso   1.000  O
  O76      1.0000 0.18710  0.85620  0.88110  Biso   1.000  O
  O77      1.0000 0.26000  0.85830  0.55810  Biso   1.000  O
  C26      1.0000 0.01760  0.06230  0.65300  Biso   1.000  C
  O78      1.0000 0.90290  0.24960  0.63990  Biso   1.000  O
  O79      1.0000 0.05960  0.70530  0.79560  Biso   1.000  O
  O80      1.0000 0.68920  0.44940  0.03600  Biso   1.000  O
  O81      1.0000 0.78440  0.35970  0.11380  Biso   1.000  O
  O82      1.0000 0.09980  0.81250  0.11550  Biso   1.000  O
  C27      1.0000 0.06960  0.92420  0.46280  Biso   1.000  C
  O83      1.0000 0.34480  0.73690  0.80910  Biso   1.000  O
  C28      1.0000 0.00520  0.11010  0.72210  Biso   1.000  C
  C29      1.0000 0.10870  0.93860  0.58830  Biso   1.000  C
  C30      1.0000 0.01460  0.65640  0.08720  Biso   1.000  C
  C31      1.0000 0.96380  0.09430  0.59620  Biso   1.000  C
  C32      1.0000 0.18080  0.85020  0.58520  Biso   1.000  C
  C33      1.0000 0.97190  0.05010  0.53600  Biso   1.000  C
  O84      1.0000 0.37520  0.26340  0.87180  Biso   1.000  O
  C34      1.0000 0.99000  0.68400  0.96050  Biso   1.000  C
  O85      1.0000 0.92450  0.09300  0.74980  Biso   1.000  O
  O86      1.0000 0.80820  0.17650  0.55630  Biso   1.000  O
  C35      1.0000 0.76770  0.43310  0.07440  Biso   1.000  C
  C36      1.0000 0.03720  0.63590  0.21370  Biso   1.000  C
  C37      1.0000 0.10370  0.72840  0.08840  Biso   1.000  C
  C38      1.0000 0.15150  0.94370  0.71170  Biso   1.000  C
  C39      1.0000 0.88590  0.18200  0.59750  Biso   1.000  C
  C40      1.0000 0.96100  0.63340  0.02340  Biso   1.000  C
  C41      1.0000 0.98580  0.60660  0.14330  Biso   1.000  C
  O87      1.0000 0.54920  0.15540  0.80410  Biso   1.000  O
  C42      1.0000 0.90870  0.53440  0.13890  Biso   1.000  C
  C43      1.0000 0.91020  0.07410  0.47140  Biso   1.000  C
  C44      1.0000 0.82020  0.54380  0.95280  Biso   1.000  C
  C45      1.0000 0.05630  0.97230  0.53140  Biso   1.000  C
  O88      1.0000 0.83530  0.28020  0.81320  Biso   1.000  O
  C46      1.0000 0.87560  0.55990  0.01920  Biso   1.000  C
  C47      1.0000 0.09210  0.98200  0.64890  Biso   1.000  C
  C48      1.0000 0.85350  0.51140  0.07730  Biso   1.000  C
