data_KASPOL_clean
_audit_creation_date              2014-07-02
_audit_creation_method            'Materials Studio'
_symmetry_space_group_name_H-M    'P1'
_symmetry_Int_Tables_number       1
_symmetry_cell_setting            triclinic
loop_
_symmetry_equiv_pos_as_xyz
  x,y,z
_cell_length_a                    7.0236
_cell_length_b                    9.8589
_cell_length_c                    10.0665
_cell_angle_alpha                 90.8285
_cell_angle_beta                  110.4180
_cell_angle_gamma                 90.0000
loop_
_atom_site_label
_atom_site_type_symbol
_atom_site_fract_x
_atom_site_fract_y
_atom_site_fract_z
_atom_site_U_iso_or_equiv
_atom_site_adp_type
_atom_site_occupancy
Cu1    Cu    0.06378   0.25000   0.00000   0.01267  Uiso   1.00
Cu2    Cu    0.93622   0.75000   0.00000   0.01267  Uiso   1.00
P1     P     0.91308   0.99309   0.79116   0.01267  Uiso   1.00
P2     P     0.12192   0.50691   0.20884   0.01267  Uiso   1.00
P3     P     0.08692   0.00691   0.20884   0.01267  Uiso   1.00
P4     P     0.87808   0.49309   0.79116   0.01267  Uiso   1.00
H1     H     1.00000   0.79330   0.60700   0.01267  Uiso   1.00
H2     H     0.93970   0.19790   0.60500   0.01267  Uiso   1.00
H3     H     0.50370   0.96920   0.59600   0.01267  Uiso   1.00
H4     H     0.40900   0.03540   0.70100   0.01267  Uiso   1.00
H5     H     0.53360   0.90090   0.74140   0.01267  Uiso   1.00
H6     H     0.39300   0.70670   0.39300   0.01267  Uiso   1.00
H7     H     0.33470   0.30210   0.39500   0.01267  Uiso   1.00
H8     H     0.90770   0.53080   0.40400   0.01267  Uiso   1.00
H9     H     0.70800   0.46460   0.29900   0.01267  Uiso   1.00
H10    H     0.79220   0.59910   0.25860   0.01267  Uiso   1.00
H11    H     1.00000   0.20670   0.39300   0.01267  Uiso   1.00
H12    H     0.06030   0.80210   0.39500   0.01267  Uiso   1.00
H13    H     0.49630   0.03080   0.40400   0.01267  Uiso   1.00
H14    H     0.59100   0.96460   0.29900   0.01267  Uiso   1.00
H15    H     0.46640   0.09910   0.25860   0.01267  Uiso   1.00
H16    H     0.60700   0.29330   0.60700   0.01267  Uiso   1.00
H17    H     0.66530   0.69790   0.60500   0.01267  Uiso   1.00
H18    H     0.09230   0.46920   0.59600   0.01267  Uiso   1.00
H19    H     0.29200   0.53540   0.70100   0.01267  Uiso   1.00
H20    H     0.20780   0.40090   0.74140   0.01267  Uiso   1.00
C1     C     0.96280   0.99480   0.62620   0.01267  Uiso   1.00
C2     C     0.99980   0.87620   0.56400   0.01267  Uiso   1.00
C3     C     0.96370   0.11840   0.56260   0.01267  Uiso   1.00
C4     C     0.52280   0.98580   0.69400   0.01267  Uiso   1.00
C5     C     0.33660   0.50520   0.37380   0.01267  Uiso   1.00
C6     C     0.43580   0.62380   0.43600   0.01267  Uiso   1.00
C7     C     0.40110   0.38160   0.43740   0.01267  Uiso   1.00
C8     C     0.82880   0.51420   0.30600   0.01267  Uiso   1.00
C9     C     0.03720   0.00520   0.37380   0.01267  Uiso   1.00
C10    C     0.00020   0.12380   0.43600   0.01267  Uiso   1.00
C11    C     0.03630   0.88160   0.43740   0.01267  Uiso   1.00
C12    C     0.47720   0.01420   0.30600   0.01267  Uiso   1.00
C13    C     0.66340   0.49480   0.62620   0.01267  Uiso   1.00
C14    C     0.56420   0.37620   0.56400   0.01267  Uiso   1.00
C15    C     0.59890   0.61840   0.56260   0.01267  Uiso   1.00
C16    C     0.17120   0.48580   0.69400   0.01267  Uiso   1.00
O1     O     0.06210   0.08550   0.89480   0.01267  Uiso   1.00
O2     O     0.69800   0.06030   0.75640   0.01267  Uiso   1.00
O3     O     0.90770   0.84700   0.82900   0.01267  Uiso   1.00
O4     O     0.16730   0.41450   0.10520   0.01267  Uiso   1.00
O5     O     0.94160   0.43970   0.24360   0.01267  Uiso   1.00
O6     O     0.07870   0.65300   0.17100   0.01267  Uiso   1.00
O7     O     0.93790   0.91450   0.10520   0.01267  Uiso   1.00
O8     O     0.30200   0.93970   0.24360   0.01267  Uiso   1.00
O9     O     0.09230   0.15300   0.17100   0.01267  Uiso   1.00
O10    O     0.83270   0.58550   0.89480   0.01267  Uiso   1.00
O11    O     0.05840   0.56030   0.75640   0.01267  Uiso   1.00
O12    O     0.92130   0.34700   0.82900   0.01267  Uiso   1.00
