data_image0
_cell_length_a       11.4917
_cell_length_b       18.524
_cell_length_c       25.727
_cell_angle_alpha    90
_cell_angle_beta     96.28
_cell_angle_gamma    90

_symmetry_space_group_name_H-M    "P 1"
_symmetry_int_tables_number       1

loop_
  _symmetry_equiv_pos_as_xyz
  'x, y, z'

loop_
  _atom_site_label
  _atom_site_occupancy
  _atom_site_fract_x
  _atom_site_fract_y
  _atom_site_fract_z
  _atom_site_thermal_displace_type
  _atom_site_B_iso_or_equiv
  _atom_site_type_symbol
  C1       1.0000 0.46340  0.71130  0.19187  Biso   1.000  C
  C2       1.0000 0.57550  0.73130  0.18992  Biso   1.000  C
  C3       1.0000 0.64680  0.76680  0.23472  Biso   1.000  C
  C4       1.0000 0.61100  0.83070  0.25500  Biso   1.000  C
  H1       1.0000 0.53960  0.85220  0.24050  Biso   1.000  H
  C5       1.0000 0.67730  0.86390  0.29590  Biso   1.000  C
  H2       1.0000 0.65120  0.90820  0.30920  Biso   1.000  H
  C6       1.0000 0.78080  0.83390  0.31772  Biso   1.000  C
  C7       1.0000 0.81820  0.77070  0.29734  Biso   1.000  C
  H3       1.0000 0.88930  0.74910  0.31210  Biso   1.000  H
  C8       1.0000 0.75300  0.73820  0.25560  Biso   1.000  C
  H4       1.0000 0.78150  0.69550  0.24090  Biso   1.000  H
  C9       1.0000 0.40510  0.71320  0.24092  Biso   1.000  C
  C10      1.0000 0.45410  0.67780  0.28546  Biso   1.000  C
  H5       1.0000 0.52740  0.65410  0.28560  Biso   1.000  H
  C11      1.0000 0.39540  0.67690  0.33010  Biso   1.000  C
  H6       1.0000 0.42980  0.65250  0.36050  Biso   1.000  H
  C12      1.0000 0.28860  0.71050  0.33126  Biso   1.000  C
  C13      1.0000 0.24090  0.74650  0.28698  Biso   1.000  C
  H7       1.0000 0.16840  0.77100  0.28720  Biso   1.000  H
  C14      1.0000 0.29810  0.74710  0.24227  Biso   1.000  C
  H8       1.0000 0.26310  0.77120  0.21190  Biso   1.000  H
  C15      1.0000 0.38700  0.68450  0.14526  Biso   1.000  C
  C16      1.0000 0.32820  0.61970  0.14800  Biso   1.000  C
  H9       1.0000 0.33880  0.59220  0.17940  Biso   1.000  H
  C17      1.0000 0.25410  0.59390  0.10597  Biso   1.000  C
  H10      1.0000 0.21590  0.54880  0.10850  Biso   1.000  H
  C18      1.0000 0.23580  0.63400  0.06020  Biso   1.000  C
  C19      1.0000 0.29410  0.69950  0.05682  Biso   1.000  C
  H11      1.0000 0.28180  0.72740  0.02570  Biso   1.000  H
  C20      1.0000 0.37040  0.72420  0.09886  Biso   1.000  C
  H12      1.0000 0.41140  0.76830  0.09600  Biso   1.000  H
  C21      1.0000 0.63960  0.71870  0.14348  Biso   1.000  C
  C22      1.0000 0.70270  0.77400  0.12308  Biso   1.000  C
  H13      1.0000 0.70170  0.82100  0.13790  Biso   1.000  H
  C23      1.0000 0.76710  0.76140  0.08141  Biso   1.000  C
  H14      1.0000 0.80830  0.80000  0.06740  Biso   1.000  H
  C24      1.0000 0.77150  0.69350  0.06026  Biso   1.000  C
  C25      1.0000 0.70790  0.63750  0.08016  Biso   1.000  C
  H15      1.0000 0.70940  0.59050  0.06540  Biso   1.000  H
  C26      1.0000 0.64270  0.65050  0.12125  Biso   1.000  C
  H16      1.0000 0.59930  0.61230  0.13450  Biso   1.000  H
  C27      1.0000 0.15070  0.60780  0.01634  Biso   1.000  C
  C28      1.0000 0.22530  0.70870  0.37960  Biso   1.000  C
  C29      1.0000 0.84830  0.86970  0.36323  Biso   1.000  C
  C30      1.0000 0.84730  0.67840  0.01758  Biso   1.000  C
  Cd1      1.0000 0.03830  0.43733  0.05366  Biso   1.000  Cd
  Cd2      1.0000 0.02417  0.75042  0.94172  Biso   1.000  Cd
  O1       1.0000 0.10470  0.54629  0.01959  Biso   1.000  O
  O2       1.0000 0.12380  0.64754  0.97681  Biso   1.000  O
  O3       1.0000 0.86660  0.61228  0.00880  Biso   1.000  O
  O4       1.0000 0.88600  0.73050  0.99471  Biso   1.000  O
  O5       1.0000 0.27580  0.68690  0.42050  Biso   1.000  O
  O6       1.0000 0.12650  0.73270  0.37582  Biso   1.000  O
  O7       1.0000 0.93890  0.83982  0.38560  Biso   1.000  O
  O8       1.0000 0.81410  0.92922  0.37857  Biso   1.000  O
  C31      1.0000 0.53660  0.21130  0.30813  Biso   1.000  C
  C32      1.0000 0.42450  0.23130  0.31008  Biso   1.000  C
  C33      1.0000 0.35320  0.26680  0.26528  Biso   1.000  C
  C34      1.0000 0.38900  0.33070  0.24500  Biso   1.000  C
  H17      1.0000 0.46040  0.35220  0.25950  Biso   1.000  H
  C35      1.0000 0.32270  0.36390  0.20410  Biso   1.000  C
  H18      1.0000 0.34880  0.40820  0.19080  Biso   1.000  H
  C36      1.0000 0.21920  0.33390  0.18228  Biso   1.000  C
  C37      1.0000 0.18180  0.27070  0.20266  Biso   1.000  C
  H19      1.0000 0.11070  0.24910  0.18790  Biso   1.000  H
  C38      1.0000 0.24700  0.23820  0.24440  Biso   1.000  C
  H20      1.0000 0.21850  0.19550  0.25910  Biso   1.000  H
  C39      1.0000 0.59490  0.21320  0.25908  Biso   1.000  C
  C40      1.0000 0.54590  0.17780  0.21454  Biso   1.000  C
  H21      1.0000 0.47260  0.15410  0.21440  Biso   1.000  H
  C41      1.0000 0.60460  0.17690  0.16990  Biso   1.000  C
  H22      1.0000 0.57020  0.15250  0.13950  Biso   1.000  H
  C42      1.0000 0.71140  0.21050  0.16874  Biso   1.000  C
  C43      1.0000 0.75910  0.24650  0.21302  Biso   1.000  C
  H23      1.0000 0.83160  0.27100  0.21280  Biso   1.000  H
  C44      1.0000 0.70190  0.24710  0.25773  Biso   1.000  C
  H24      1.0000 0.73690  0.27120  0.28810  Biso   1.000  H
  C45      1.0000 0.61300  0.18450  0.35474  Biso   1.000  C
  C46      1.0000 0.67180  0.11970  0.35200  Biso   1.000  C
  H25      1.0000 0.66120  0.09220  0.32060  Biso   1.000  H
  C47      1.0000 0.74590  0.09390  0.39403  Biso   1.000  C
  H26      1.0000 0.78410  0.04880  0.39150  Biso   1.000  H
  C48      1.0000 0.76420  0.13400  0.43980  Biso   1.000  C
  C49      1.0000 0.70590  0.19950  0.44318  Biso   1.000  C
  H27      1.0000 0.71820  0.22740  0.47430  Biso   1.000  H
  C50      1.0000 0.62960  0.22420  0.40114  Biso   1.000  C
  H28      1.0000 0.58860  0.26830  0.40400  Biso   1.000  H
  C51      1.0000 0.36040  0.21870  0.35652  Biso   1.000  C
  C52      1.0000 0.29730  0.27400  0.37692  Biso   1.000  C
  H29      1.0000 0.29830  0.32100  0.36210  Biso   1.000  H
  C53      1.0000 0.23290  0.26140  0.41859  Biso   1.000  C
  H30      1.0000 0.19170  0.30000  0.43260  Biso   1.000  H
  C54      1.0000 0.22850  0.19350  0.43974  Biso   1.000  C
  C55      1.0000 0.29210  0.13750  0.41984  Biso   1.000  C
  H31      1.0000 0.29060  0.09050  0.43460  Biso   1.000  H
  C56      1.0000 0.35730  0.15050  0.37875  Biso   1.000  C
  H32      1.0000 0.40070  0.11230  0.36550  Biso   1.000  H
  C57      1.0000 0.84930  0.10780  0.48366  Biso   1.000  C
  C58      1.0000 0.77470  0.20870  0.12040  Biso   1.000  C
  C59      1.0000 0.15170  0.36970  0.13677  Biso   1.000  C
  C60      1.0000 0.15270  0.17840  0.48242  Biso   1.000  C
  Cd3      1.0000 0.96170  0.93733  0.44634  Biso   1.000  Cd
  Cd4      1.0000 0.97583  0.25042  0.55828  Biso   1.000  Cd
  O9       1.0000 0.89530  0.04629  0.48041  Biso   1.000  O
  O10      1.0000 0.87620  0.14754  0.52319  Biso   1.000  O
  O11      1.0000 0.13340  0.11228  0.49120  Biso   1.000  O
  O12      1.0000 0.11400  0.23050  0.50529  Biso   1.000  O
  O13      1.0000 0.72420  0.18690  0.07950  Biso   1.000  O
  O14      1.0000 0.87350  0.23270  0.12418  Biso   1.000  O
  O15      1.0000 0.06110  0.33982  0.11440  Biso   1.000  O
  O16      1.0000 0.18590  0.42922  0.12143  Biso   1.000  O
  C61      1.0000 0.53660  0.28870  0.80813  Biso   1.000  C
  C62      1.0000 0.42450  0.26870  0.81008  Biso   1.000  C
  C63      1.0000 0.35320  0.23320  0.76528  Biso   1.000  C
  C64      1.0000 0.38900  0.16930  0.74500  Biso   1.000  C
  H33      1.0000 0.46040  0.14780  0.75950  Biso   1.000  H
  C65      1.0000 0.32270  0.13610  0.70410  Biso   1.000  C
  H34      1.0000 0.34880  0.09180  0.69080  Biso   1.000  H
  C66      1.0000 0.21920  0.16610  0.68228  Biso   1.000  C
  C67      1.0000 0.18180  0.22930  0.70266  Biso   1.000  C
  H35      1.0000 0.11070  0.25090  0.68790  Biso   1.000  H
  C68      1.0000 0.24700  0.26180  0.74440  Biso   1.000  C
  H36      1.0000 0.21850  0.30450  0.75910  Biso   1.000  H
  C69      1.0000 0.59490  0.28680  0.75908  Biso   1.000  C
  C70      1.0000 0.54590  0.32220  0.71454  Biso   1.000  C
  H37      1.0000 0.47260  0.34590  0.71440  Biso   1.000  H
  C71      1.0000 0.60460  0.32310  0.66990  Biso   1.000  C
  H38      1.0000 0.57020  0.34750  0.63950  Biso   1.000  H
  C72      1.0000 0.71140  0.28950  0.66874  Biso   1.000  C
  C73      1.0000 0.75910  0.25350  0.71302  Biso   1.000  C
  H39      1.0000 0.83160  0.22900  0.71280  Biso   1.000  H
  C74      1.0000 0.70190  0.25290  0.75773  Biso   1.000  C
  H40      1.0000 0.73690  0.22880  0.78810  Biso   1.000  H
  C75      1.0000 0.61300  0.31550  0.85474  Biso   1.000  C
  C76      1.0000 0.67180  0.38030  0.85200  Biso   1.000  C
  H41      1.0000 0.66120  0.40780  0.82060  Biso   1.000  H
  C77      1.0000 0.74590  0.40610  0.89403  Biso   1.000  C
  H42      1.0000 0.78410  0.45120  0.89150  Biso   1.000  H
  C78      1.0000 0.76420  0.36600  0.93980  Biso   1.000  C
  C79      1.0000 0.70590  0.30050  0.94318  Biso   1.000  C
  H43      1.0000 0.71820  0.27260  0.97430  Biso   1.000  H
  C80      1.0000 0.62960  0.27580  0.90114  Biso   1.000  C
  H44      1.0000 0.58860  0.23170  0.90400  Biso   1.000  H
  C81      1.0000 0.36040  0.28130  0.85652  Biso   1.000  C
  C82      1.0000 0.29730  0.22600  0.87692  Biso   1.000  C
  H45      1.0000 0.29830  0.17900  0.86210  Biso   1.000  H
  C83      1.0000 0.23290  0.23860  0.91859  Biso   1.000  C
  H46      1.0000 0.19170  0.20000  0.93260  Biso   1.000  H
  C84      1.0000 0.22850  0.30650  0.93974  Biso   1.000  C
  C85      1.0000 0.29210  0.36250  0.91984  Biso   1.000  C
  H47      1.0000 0.29060  0.40950  0.93460  Biso   1.000  H
  C86      1.0000 0.35730  0.34950  0.87875  Biso   1.000  C
  H48      1.0000 0.40070  0.38770  0.86550  Biso   1.000  H
  C87      1.0000 0.84930  0.39220  0.98366  Biso   1.000  C
  C88      1.0000 0.77470  0.29130  0.62040  Biso   1.000  C
  C89      1.0000 0.15170  0.13030  0.63677  Biso   1.000  C
  C90      1.0000 0.15270  0.32160  0.98242  Biso   1.000  C
  Cd5      1.0000 0.96170  0.56267  0.94634  Biso   1.000  Cd
  Cd6      1.0000 0.97583  0.24958  0.05828  Biso   1.000  Cd
  O17      1.0000 0.89530  0.45371  0.98041  Biso   1.000  O
  O18      1.0000 0.87620  0.35246  0.02319  Biso   1.000  O
  O19      1.0000 0.13340  0.38772  0.99120  Biso   1.000  O
  O20      1.0000 0.11400  0.26950  0.00529  Biso   1.000  O
  O21      1.0000 0.72420  0.31310  0.57950  Biso   1.000  O
  O22      1.0000 0.87350  0.26730  0.62418  Biso   1.000  O
  O23      1.0000 0.06110  0.16018  0.61440  Biso   1.000  O
  O24      1.0000 0.18590  0.07078  0.62143  Biso   1.000  O
  C91      1.0000 0.46340  0.78870  0.69187  Biso   1.000  C
  C92      1.0000 0.57550  0.76870  0.68992  Biso   1.000  C
  C93      1.0000 0.64680  0.73320  0.73472  Biso   1.000  C
  C94      1.0000 0.61100  0.66930  0.75500  Biso   1.000  C
  H49      1.0000 0.53960  0.64780  0.74050  Biso   1.000  H
  C95      1.0000 0.67730  0.63610  0.79590  Biso   1.000  C
  H50      1.0000 0.65120  0.59180  0.80920  Biso   1.000  H
  C96      1.0000 0.78080  0.66610  0.81772  Biso   1.000  C
  C97      1.0000 0.81820  0.72930  0.79734  Biso   1.000  C
  H51      1.0000 0.88930  0.75090  0.81210  Biso   1.000  H
  C98      1.0000 0.75300  0.76180  0.75560  Biso   1.000  C
  H52      1.0000 0.78150  0.80450  0.74090  Biso   1.000  H
  C99      1.0000 0.40510  0.78680  0.74092  Biso   1.000  C
  C100     1.0000 0.45410  0.82220  0.78546  Biso   1.000  C
  H53      1.0000 0.52740  0.84590  0.78560  Biso   1.000  H
  C101     1.0000 0.39540  0.82310  0.83010  Biso   1.000  C
  H54      1.0000 0.42980  0.84750  0.86050  Biso   1.000  H
  C102     1.0000 0.28860  0.78950  0.83126  Biso   1.000  C
  C103     1.0000 0.24090  0.75350  0.78698  Biso   1.000  C
  H55      1.0000 0.16840  0.72900  0.78720  Biso   1.000  H
  C104     1.0000 0.29810  0.75290  0.74227  Biso   1.000  C
  H56      1.0000 0.26310  0.72880  0.71190  Biso   1.000  H
  C105     1.0000 0.38700  0.81550  0.64526  Biso   1.000  C
  C106     1.0000 0.32820  0.88030  0.64800  Biso   1.000  C
  H57      1.0000 0.33880  0.90780  0.67940  Biso   1.000  H
  C107     1.0000 0.25410  0.90610  0.60597  Biso   1.000  C
  H58      1.0000 0.21590  0.95120  0.60850  Biso   1.000  H
  C108     1.0000 0.23580  0.86600  0.56020  Biso   1.000  C
  C109     1.0000 0.29410  0.80050  0.55682  Biso   1.000  C
  H59      1.0000 0.28180  0.77260  0.52570  Biso   1.000  H
  C110     1.0000 0.37040  0.77580  0.59886  Biso   1.000  C
  H60      1.0000 0.41140  0.73170  0.59600  Biso   1.000  H
  C111     1.0000 0.63960  0.78130  0.64348  Biso   1.000  C
  C112     1.0000 0.70270  0.72600  0.62308  Biso   1.000  C
  H61      1.0000 0.70170  0.67900  0.63790  Biso   1.000  H
  C113     1.0000 0.76710  0.73860  0.58141  Biso   1.000  C
  H62      1.0000 0.80830  0.70000  0.56740  Biso   1.000  H
  C114     1.0000 0.77150  0.80650  0.56026  Biso   1.000  C
  C115     1.0000 0.70790  0.86250  0.58016  Biso   1.000  C
  H63      1.0000 0.70940  0.90950  0.56540  Biso   1.000  H
  C116     1.0000 0.64270  0.84950  0.62125  Biso   1.000  C
  H64      1.0000 0.59930  0.88770  0.63450  Biso   1.000  H
  C117     1.0000 0.15070  0.89220  0.51634  Biso   1.000  C
  C118     1.0000 0.22530  0.79130  0.87960  Biso   1.000  C
  C119     1.0000 0.84830  0.63030  0.86323  Biso   1.000  C
  C120     1.0000 0.84730  0.82160  0.51758  Biso   1.000  C
  Cd7      1.0000 0.03830  0.06267  0.55366  Biso   1.000  Cd
  Cd8      1.0000 0.02417  0.74958  0.44172  Biso   1.000  Cd
  O25      1.0000 0.10470  0.95371  0.51959  Biso   1.000  O
  O26      1.0000 0.12380  0.85246  0.47681  Biso   1.000  O
  O27      1.0000 0.86660  0.88772  0.50880  Biso   1.000  O
  O28      1.0000 0.88600  0.76950  0.49471  Biso   1.000  O
  O29      1.0000 0.27580  0.81310  0.92050  Biso   1.000  O
  O30      1.0000 0.12650  0.76730  0.87582  Biso   1.000  O
  O31      1.0000 0.93890  0.66018  0.88560  Biso   1.000  O
  O32      1.0000 0.81410  0.57078  0.87857  Biso   1.000  O
