data_KAVGAQ_clean
_audit_creation_date              2014-07-02
_audit_creation_method            'Materials Studio'
_symmetry_space_group_name_H-M    'P1'
_symmetry_Int_Tables_number       1
_symmetry_cell_setting            triclinic
loop_
_symmetry_equiv_pos_as_xyz
  x,y,z
_cell_length_a                    11.4932
_cell_length_b                    11.6132
_cell_length_c                    11.8182
_cell_angle_alpha                 65.2750
_cell_angle_beta                  81.1740
_cell_angle_gamma                 72.7520
loop_
_atom_site_label
_atom_site_type_symbol
_atom_site_fract_x
_atom_site_fract_y
_atom_site_fract_z
_atom_site_U_iso_or_equiv
_atom_site_adp_type
_atom_site_occupancy
Co1    Co    0.00000   0.00000   0.50000   0.01267  Uiso   1.00
Co2    Co    0.00000   0.50000   0.50000   0.01267  Uiso   1.00
Co3    Co    0.00000   0.00000   0.00000   0.01267  Uiso   1.00
H1     H     0.04400   0.66230   0.17950   0.01267  Uiso   1.00
H2     H     0.83510   0.27560   0.36820   0.01267  Uiso   1.00
H3     H     0.63730   0.40130   0.37080   0.01267  Uiso   1.00
H4     H     0.57880   0.11820   0.70250   0.01267  Uiso   1.00
H5     H     0.77990   0.00130   0.69150   0.01267  Uiso   1.00
H6     H     0.20460   0.36880   0.70460   0.01267  Uiso   1.00
H7     H     0.41280   0.27460   0.71860   0.01267  Uiso   1.00
H8     H     0.44370   0.44470   0.34430   0.01267  Uiso   1.00
H9     H     0.23470   0.53190   0.34120   0.01267  Uiso   1.00
H10    H     0.84170   0.81780   0.01990   0.01267  Uiso   1.00
H11    H     0.64360   0.80930   0.02490   0.01267  Uiso   1.00
H12    H     0.53650   0.19450   0.96010   0.01267  Uiso   1.00
H13    H     0.74030   0.19070   0.95430   0.01267  Uiso   1.00
H14    H     0.95600   0.33770   0.82050   0.01267  Uiso   1.00
H15    H     0.16490   0.72440   0.63180   0.01267  Uiso   1.00
H16    H     0.36270   0.59870   0.62920   0.01267  Uiso   1.00
H17    H     0.42120   0.88180   0.29750   0.01267  Uiso   1.00
H18    H     0.22010   0.99870   0.30850   0.01267  Uiso   1.00
H19    H     0.79540   0.63120   0.29540   0.01267  Uiso   1.00
H20    H     0.58720   0.72540   0.28140   0.01267  Uiso   1.00
H21    H     0.55630   0.55530   0.65570   0.01267  Uiso   1.00
H22    H     0.76530   0.46810   0.65880   0.01267  Uiso   1.00
H23    H     0.15830   0.18220   0.98010   0.01267  Uiso   1.00
H24    H     0.35640   0.19070   0.97510   0.01267  Uiso   1.00
H25    H     0.46350   0.80550   0.03990   0.01267  Uiso   1.00
H26    H     0.25970   0.80930   0.04570   0.01267  Uiso   1.00
C1     C     0.02360   0.71660   0.22520   0.01267  Uiso   1.00
C2     C     0.98150   0.88740   0.26850   0.01267  Uiso   1.00
C3     C     0.97840   0.77800   0.37810   0.01267  Uiso   1.00
C4     C     0.94870   0.75550   0.51090   0.01267  Uiso   1.00
C5     C     0.96190   0.02920   0.23520   0.01267  Uiso   1.00
C6     C     0.78190   0.24260   0.43670   0.01267  Uiso   1.00
C7     C     0.66360   0.31850   0.43740   0.01267  Uiso   1.00
C8     C     0.58420   0.27290   0.53560   0.01267  Uiso   1.00
C9     C     0.62970   0.15240   0.63220   0.01267  Uiso   1.00
C10    C     0.75010   0.08270   0.62460   0.01267  Uiso   1.00
C11    C     0.25340   0.38220   0.62990   0.01267  Uiso   1.00
C12    C     0.37830   0.32540   0.63900   0.01267  Uiso   1.00
C13    C     0.45230   0.34280   0.53260   0.01267  Uiso   1.00
C14    C     0.39640   0.42470   0.42010   0.01267  Uiso   1.00
C15    C     0.27120   0.47680   0.41930   0.01267  Uiso   1.00
C16    C     0.77850   0.89580   0.00820   0.01267  Uiso   1.00
C17    C     0.66020   0.88940   0.01210   0.01267  Uiso   1.00
C18    C     0.56470   0.00150   0.99700   0.01267  Uiso   1.00
C19    C     0.59750   0.11460   0.97380   0.01267  Uiso   1.00
C20    C     0.72000   0.11160   0.97060   0.01267  Uiso   1.00
C21    C     0.97640   0.28340   0.77480   0.01267  Uiso   1.00
C22    C     0.01850   0.11260   0.73150   0.01267  Uiso   1.00
C23    C     0.02160   0.22200   0.62190   0.01267  Uiso   1.00
C24    C     0.05130   0.24450   0.48910   0.01267  Uiso   1.00
C25    C     0.03810   0.97080   0.76480   0.01267  Uiso   1.00
C26    C     0.21810   0.75740   0.56330   0.01267  Uiso   1.00
C27    C     0.33640   0.68150   0.56260   0.01267  Uiso   1.00
C28    C     0.41580   0.72710   0.46440   0.01267  Uiso   1.00
C29    C     0.37030   0.84760   0.36780   0.01267  Uiso   1.00
C30    C     0.24990   0.91730   0.37540   0.01267  Uiso   1.00
C31    C     0.74660   0.61780   0.37010   0.01267  Uiso   1.00
C32    C     0.62170   0.67460   0.36100   0.01267  Uiso   1.00
C33    C     0.54770   0.65720   0.46740   0.01267  Uiso   1.00
C34    C     0.60360   0.57530   0.57990   0.01267  Uiso   1.00
C35    C     0.72880   0.52320   0.58070   0.01267  Uiso   1.00
C36    C     0.22150   0.10420   0.99180   0.01267  Uiso   1.00
C37    C     0.33980   0.11060   0.98790   0.01267  Uiso   1.00
C38    C     0.43530   0.99850   0.00300   0.01267  Uiso   1.00
C39    C     0.40250   0.88540   0.02620   0.01267  Uiso   1.00
C40    C     0.28000   0.88840   0.02940   0.01267  Uiso   1.00
N1     N     0.00570   0.66980   0.34800   0.01267  Uiso   1.00
N2     N     0.01040   0.84570   0.17120   0.01267  Uiso   1.00
N3     N     0.82580   0.12500   0.52760   0.01267  Uiso   1.00
N4     N     0.19900   0.45430   0.52150   0.01267  Uiso   1.00
N5     N     0.81020   0.00250   0.98940   0.01267  Uiso   1.00
N6     N     0.99430   0.33020   0.65200   0.01267  Uiso   1.00
N7     N     0.98960   0.15430   0.82880   0.01267  Uiso   1.00
N8     N     0.17420   0.87500   0.47240   0.01267  Uiso   1.00
N9     N     0.80100   0.54570   0.47850   0.01267  Uiso   1.00
N10    N     0.18980   0.99750   0.01060   0.01267  Uiso   1.00
O1     O     0.95820   0.07530   0.31380   0.01267  Uiso   1.00
O2     O     0.95170   0.10170   0.11900   0.01267  Uiso   1.00
O3     O     0.91860   0.84900   0.54580   0.01267  Uiso   1.00
O4     O     0.95450   0.63770   0.58470   0.01267  Uiso   1.00
O5     O     0.04180   0.92470   0.68620   0.01267  Uiso   1.00
O6     O     0.04830   0.89830   0.88100   0.01267  Uiso   1.00
O7     O     0.08140   0.15100   0.45420   0.01267  Uiso   1.00
O8     O     0.04550   0.36230   0.41530   0.01267  Uiso   1.00
