data_KAVJEX01_clean
_audit_creation_date              2014-07-02
_audit_creation_method            'Materials Studio'
_symmetry_space_group_name_H-M    'P1'
_symmetry_Int_Tables_number       1
_symmetry_cell_setting            triclinic
loop_
_symmetry_equiv_pos_as_xyz
  x,y,z
_cell_length_a                    23.2143
_cell_length_b                    23.2143
_cell_length_c                    23.2143
_cell_angle_alpha                 109.4710
_cell_angle_beta                  109.4710
_cell_angle_gamma                 109.4710
loop_
_atom_site_label
_atom_site_type_symbol
_atom_site_fract_x
_atom_site_fract_y
_atom_site_fract_z
_atom_site_U_iso_or_equiv
_atom_site_adp_type
_atom_site_occupancy
Nd1    Nd    0.50000   0.00000   0.00000   0.01267  Uiso   1.00
Nd2    Nd    0.50000   0.50000   0.50000   0.01267  Uiso   1.00
Nd3    Nd    0.00000   0.50000   0.00000   0.01267  Uiso   1.00
Nd4    Nd    0.00000   0.00000   0.50000   0.01267  Uiso   1.00
Nd5    Nd    0.33167   0.00000   0.00000   0.01267  Uiso   1.00
Nd6    Nd    0.50000   0.33167   0.50000   0.01267  Uiso   1.00
Nd7    Nd    0.00000   0.50000   0.83167   0.01267  Uiso   1.00
Nd8    Nd    0.16833   0.16833   0.66833   0.01267  Uiso   1.00
Nd9    Nd    0.66833   0.00000   0.00000   0.01267  Uiso   1.00
Nd10   Nd    0.50000   0.66833   0.50000   0.01267  Uiso   1.00
Nd11   Nd    0.00000   0.50000   0.16833   0.01267  Uiso   1.00
Nd12   Nd    0.83167   0.83167   0.33167   0.01267  Uiso   1.00
H1     H     0.36100   0.76620   0.98820   0.01267  Uiso   1.00
H2     H     0.14210   0.70560   0.81650   0.01267  Uiso   1.00
H3     H     0.24150   0.81010   0.85800   0.01267  Uiso   1.00
H4     H     0.27800   0.37280   0.51180   0.01267  Uiso   1.00
H5     H     0.38910   0.32560   0.68350   0.01267  Uiso   1.00
H6     H     0.45210   0.38350   0.64200   0.01267  Uiso   1.00
H7     H     0.22200   0.73380   0.09480   0.01267  Uiso   1.00
H8     H     0.11090   0.79440   0.93650   0.01267  Uiso   1.00
H9     H     0.04790   0.68990   0.93140   0.01267  Uiso   1.00
H10    H     0.13900   0.12720   0.40520   0.01267  Uiso   1.00
H11    H     0.35790   0.17440   0.56350   0.01267  Uiso   1.00
H12    H     0.25850   0.11650   0.56860   0.01267  Uiso   1.00
H13    H     0.59480   0.22200   0.23380   0.01267  Uiso   1.00
H14    H     0.43650   0.11090   0.29440   0.01267  Uiso   1.00
H15    H     0.43140   0.04790   0.18990   0.01267  Uiso   1.00
H16    H     0.90520   0.13900   0.62720   0.01267  Uiso   1.00
H17    H     0.06350   0.35790   0.67440   0.01267  Uiso   1.00
H18    H     0.06860   0.25850   0.61650   0.01267  Uiso   1.00
H19    H     0.48820   0.36100   0.26620   0.01267  Uiso   1.00
H20    H     0.31650   0.14210   0.20560   0.01267  Uiso   1.00
H21    H     0.35800   0.24150   0.31010   0.01267  Uiso   1.00
H22    H     0.01180   0.27800   0.87280   0.01267  Uiso   1.00
H23    H     0.18350   0.38910   0.82560   0.01267  Uiso   1.00
H24    H     0.14200   0.45210   0.88350   0.01267  Uiso   1.00
H25    H     0.37280   0.01180   0.77800   0.01267  Uiso   1.00
H26    H     0.32560   0.18350   0.88910   0.01267  Uiso   1.00
H27    H     0.38350   0.14200   0.95210   0.01267  Uiso   1.00
H28    H     0.76620   0.48820   0.86100   0.01267  Uiso   1.00
H29    H     0.70560   0.31650   0.64210   0.01267  Uiso   1.00
H30    H     0.81010   0.35800   0.74150   0.01267  Uiso   1.00
H31    H     0.12720   0.90520   0.63900   0.01267  Uiso   1.00
H32    H     0.17440   0.06350   0.85790   0.01267  Uiso   1.00
H33    H     0.11650   0.06860   0.75850   0.01267  Uiso   1.00
H34    H     0.73380   0.59480   0.72200   0.01267  Uiso   1.00
H35    H     0.79440   0.43650   0.61090   0.01267  Uiso   1.00
H36    H     0.68990   0.43140   0.54790   0.01267  Uiso   1.00
H37    H     0.63900   0.23380   0.01180   0.01267  Uiso   1.00
H38    H     0.85790   0.29440   0.18350   0.01267  Uiso   1.00
H39    H     0.75850   0.18990   0.14200   0.01267  Uiso   1.00
H40    H     0.72200   0.62720   0.48820   0.01267  Uiso   1.00
H41    H     0.61090   0.67440   0.31650   0.01267  Uiso   1.00
H42    H     0.54790   0.61650   0.35800   0.01267  Uiso   1.00
H43    H     0.77800   0.26620   0.90520   0.01267  Uiso   1.00
H44    H     0.88910   0.20560   0.06350   0.01267  Uiso   1.00
H45    H     0.95210   0.31010   0.06860   0.01267  Uiso   1.00
H46    H     0.86100   0.87280   0.59480   0.01267  Uiso   1.00
H47    H     0.64210   0.82560   0.43650   0.01267  Uiso   1.00
H48    H     0.74150   0.88350   0.43140   0.01267  Uiso   1.00
H49    H     0.40520   0.77800   0.76620   0.01267  Uiso   1.00
H50    H     0.56350   0.88910   0.70560   0.01267  Uiso   1.00
H51    H     0.56860   0.95210   0.81010   0.01267  Uiso   1.00
H52    H     0.09480   0.86100   0.37280   0.01267  Uiso   1.00
H53    H     0.93650   0.64210   0.32560   0.01267  Uiso   1.00
H54    H     0.93140   0.74150   0.38350   0.01267  Uiso   1.00
H55    H     0.51180   0.63900   0.73380   0.01267  Uiso   1.00
H56    H     0.68350   0.85790   0.79440   0.01267  Uiso   1.00
H57    H     0.64200   0.75850   0.68990   0.01267  Uiso   1.00
H58    H     0.98820   0.72200   0.12720   0.01267  Uiso   1.00
H59    H     0.81650   0.61090   0.17440   0.01267  Uiso   1.00
H60    H     0.85800   0.54790   0.11650   0.01267  Uiso   1.00
H61    H     0.62720   0.98820   0.22200   0.01267  Uiso   1.00
H62    H     0.67440   0.81650   0.11090   0.01267  Uiso   1.00
H63    H     0.61650   0.85800   0.04790   0.01267  Uiso   1.00
H64    H     0.23380   0.51180   0.13900   0.01267  Uiso   1.00
H65    H     0.29440   0.68350   0.35790   0.01267  Uiso   1.00
H66    H     0.18990   0.64200   0.25850   0.01267  Uiso   1.00
H67    H     0.87280   0.09480   0.36100   0.01267  Uiso   1.00
H68    H     0.82560   0.93650   0.14210   0.01267  Uiso   1.00
H69    H     0.88350   0.93140   0.24150   0.01267  Uiso   1.00
H70    H     0.26620   0.40520   0.27800   0.01267  Uiso   1.00
H71    H     0.20560   0.56350   0.38910   0.01267  Uiso   1.00
H72    H     0.31010   0.56860   0.45210   0.01267  Uiso   1.00
C1     C     0.37333   0.86802   0.95669   0.01267  Uiso   1.00
C2     C     0.31038   0.79925   0.92865   0.01267  Uiso   1.00
C3     C     0.12672   0.61121   0.85939   0.01267  Uiso   1.00
C4     C     0.19123   0.67449   0.88014   0.01267  Uiso   1.00
C5     C     0.25617   0.69326   0.93165   0.01267  Uiso   1.00
C6     C     0.31607   0.75482   0.95459   0.01267  Uiso   1.00
C7     C     0.18639   0.71839   0.85248   0.01267  Uiso   1.00
C8     C     0.24540   0.78022   0.87688   0.01267  Uiso   1.00
C9     C     0.41133   0.41664   0.54331   0.01267  Uiso   1.00
C10    C     0.37060   0.38173   0.57135   0.01267  Uiso   1.00
C11    C     0.25182   0.26733   0.64061   0.01267  Uiso   1.00
C12    C     0.29435   0.31109   0.61986   0.01267  Uiso   1.00
C13    C     0.26161   0.32452   0.56835   0.01267  Uiso   1.00
C14    C     0.30023   0.36148   0.54541   0.01267  Uiso   1.00
C15    C     0.36591   0.33391   0.64752   0.01267  Uiso   1.00
C16    C     0.40334   0.36852   0.62312   0.01267  Uiso   1.00
C17    C     0.08867   0.63198   0.00531   0.01267  Uiso   1.00
C18    C     0.12940   0.70075   0.01113   0.01267  Uiso   1.00
C19    C     0.24818   0.88879   0.01551   0.01267  Uiso   1.00
C20    C     0.20565   0.82551   0.01674   0.01267  Uiso   1.00
C21    C     0.23839   0.80674   0.06291   0.01267  Uiso   1.00
C22    C     0.19977   0.74518   0.06125   0.01267  Uiso   1.00
C23    C     0.13409   0.78161   0.96800   0.01267  Uiso   1.00
C24    C     0.09666   0.71978   0.96518   0.01267  Uiso   1.00
C25    C     0.12667   0.08336   0.49469   0.01267  Uiso   1.00
C26    C     0.18962   0.11827   0.48887   0.01267  Uiso   1.00
C27    C     0.37328   0.23267   0.48449   0.01267  Uiso   1.00
C28    C     0.30877   0.18891   0.48326   0.01267  Uiso   1.00
C29    C     0.24383   0.17548   0.43709   0.01267  Uiso   1.00
C30    C     0.18393   0.13852   0.43875   0.01267  Uiso   1.00
C31    C     0.31361   0.16609   0.53200   0.01267  Uiso   1.00
C32    C     0.25460   0.13148   0.53482   0.01267  Uiso   1.00
C33    C     0.50531   0.08867   0.13198   0.01267  Uiso   1.00
C34    C     0.51113   0.12940   0.20075   0.01267  Uiso   1.00
C35    C     0.51551   0.24818   0.38879   0.01267  Uiso   1.00
C36    C     0.51674   0.20565   0.32551   0.01267  Uiso   1.00
C37    C     0.56291   0.23839   0.30674   0.01267  Uiso   1.00
C38    C     0.56125   0.19977   0.24518   0.01267  Uiso   1.00
C39    C     0.46800   0.13409   0.28161   0.01267  Uiso   1.00
C40    C     0.46518   0.09666   0.21978   0.01267  Uiso   1.00
C41    C     0.99469   0.12667   0.58336   0.01267  Uiso   1.00
C42    C     0.98887   0.18962   0.61827   0.01267  Uiso   1.00
C43    C     0.98449   0.37328   0.73267   0.01267  Uiso   1.00
C44    C     0.98326   0.30877   0.68891   0.01267  Uiso   1.00
C45    C     0.93709   0.24383   0.67548   0.01267  Uiso   1.00
C46    C     0.93875   0.18393   0.63852   0.01267  Uiso   1.00
C47    C     0.03200   0.31361   0.66609   0.01267  Uiso   1.00
C48    C     0.03482   0.25460   0.63148   0.01267  Uiso   1.00
C49    C     0.45669   0.37333   0.36802   0.01267  Uiso   1.00
C50    C     0.42865   0.31038   0.29925   0.01267  Uiso   1.00
C51    C     0.35939   0.12672   0.11121   0.01267  Uiso   1.00
C52    C     0.38014   0.19123   0.17449   0.01267  Uiso   1.00
C53    C     0.43165   0.25617   0.19326   0.01267  Uiso   1.00
C54    C     0.45459   0.31607   0.25482   0.01267  Uiso   1.00
C55    C     0.35248   0.18639   0.21839   0.01267  Uiso   1.00
C56    C     0.37688   0.24540   0.28022   0.01267  Uiso   1.00
C57    C     0.04331   0.41133   0.91664   0.01267  Uiso   1.00
C58    C     0.07135   0.37060   0.88173   0.01267  Uiso   1.00
C59    C     0.14061   0.25182   0.76733   0.01267  Uiso   1.00
C60    C     0.11986   0.29435   0.81109   0.01267  Uiso   1.00
C61    C     0.06835   0.26161   0.82452   0.01267  Uiso   1.00
C62    C     0.04541   0.30023   0.86148   0.01267  Uiso   1.00
C63    C     0.14752   0.36591   0.83391   0.01267  Uiso   1.00
C64    C     0.12312   0.40334   0.86852   0.01267  Uiso   1.00
C65    C     0.41664   0.04331   0.91133   0.01267  Uiso   1.00
C66    C     0.38173   0.07135   0.87060   0.01267  Uiso   1.00
C67    C     0.26733   0.14061   0.75182   0.01267  Uiso   1.00
C68    C     0.31109   0.11986   0.79435   0.01267  Uiso   1.00
C69    C     0.32452   0.06835   0.76161   0.01267  Uiso   1.00
C70    C     0.36148   0.04541   0.80023   0.01267  Uiso   1.00
C71    C     0.33391   0.14752   0.86591   0.01267  Uiso   1.00
C72    C     0.36852   0.12312   0.90334   0.01267  Uiso   1.00
C73    C     0.86802   0.45669   0.87333   0.01267  Uiso   1.00
C74    C     0.79925   0.42865   0.81038   0.01267  Uiso   1.00
C75    C     0.61121   0.35939   0.62672   0.01267  Uiso   1.00
C76    C     0.67449   0.38014   0.69123   0.01267  Uiso   1.00
C77    C     0.69326   0.43165   0.75617   0.01267  Uiso   1.00
C78    C     0.75482   0.45459   0.81607   0.01267  Uiso   1.00
C79    C     0.71839   0.35248   0.68639   0.01267  Uiso   1.00
C80    C     0.78022   0.37688   0.74540   0.01267  Uiso   1.00
C81    C     0.08336   0.99469   0.62667   0.01267  Uiso   1.00
C82    C     0.11827   0.98887   0.68962   0.01267  Uiso   1.00
C83    C     0.23267   0.98449   0.87328   0.01267  Uiso   1.00
C84    C     0.18891   0.98326   0.80877   0.01267  Uiso   1.00
C85    C     0.17548   0.93709   0.74383   0.01267  Uiso   1.00
C86    C     0.13852   0.93875   0.68393   0.01267  Uiso   1.00
C87    C     0.16609   0.03200   0.81361   0.01267  Uiso   1.00
C88    C     0.13148   0.03482   0.75460   0.01267  Uiso   1.00
C89    C     0.63198   0.50531   0.58867   0.01267  Uiso   1.00
C90    C     0.70075   0.51113   0.62940   0.01267  Uiso   1.00
C91    C     0.88879   0.51551   0.74818   0.01267  Uiso   1.00
C92    C     0.82551   0.51674   0.70565   0.01267  Uiso   1.00
C93    C     0.80674   0.56291   0.73839   0.01267  Uiso   1.00
C94    C     0.74518   0.56125   0.69977   0.01267  Uiso   1.00
C95    C     0.78161   0.46800   0.63409   0.01267  Uiso   1.00
C96    C     0.71978   0.46518   0.59666   0.01267  Uiso   1.00
C97    C     0.62667   0.13198   0.04331   0.01267  Uiso   1.00
C98    C     0.68962   0.20075   0.07135   0.01267  Uiso   1.00
C99    C     0.87328   0.38879   0.14061   0.01267  Uiso   1.00
C100   C     0.80877   0.32551   0.11986   0.01267  Uiso   1.00
C101   C     0.74383   0.30674   0.06835   0.01267  Uiso   1.00
C102   C     0.68393   0.24518   0.04541   0.01267  Uiso   1.00
C103   C     0.81361   0.28161   0.14752   0.01267  Uiso   1.00
C104   C     0.75460   0.21978   0.12312   0.01267  Uiso   1.00
C105   C     0.58867   0.58336   0.45669   0.01267  Uiso   1.00
C106   C     0.62940   0.61827   0.42865   0.01267  Uiso   1.00
C107   C     0.74818   0.73267   0.35939   0.01267  Uiso   1.00
C108   C     0.70565   0.68891   0.38014   0.01267  Uiso   1.00
C109   C     0.73839   0.67548   0.43165   0.01267  Uiso   1.00
C110   C     0.69977   0.63852   0.45459   0.01267  Uiso   1.00
C111   C     0.63409   0.66609   0.35248   0.01267  Uiso   1.00
C112   C     0.59666   0.63148   0.37688   0.01267  Uiso   1.00
C113   C     0.91133   0.36802   0.99469   0.01267  Uiso   1.00
C114   C     0.87060   0.29925   0.98887   0.01267  Uiso   1.00
C115   C     0.75182   0.11121   0.98449   0.01267  Uiso   1.00
C116   C     0.79435   0.17449   0.98326   0.01267  Uiso   1.00
C117   C     0.76161   0.19326   0.93709   0.01267  Uiso   1.00
C118   C     0.80023   0.25482   0.93875   0.01267  Uiso   1.00
C119   C     0.86591   0.21839   0.03200   0.01267  Uiso   1.00
C120   C     0.90334   0.28022   0.03482   0.01267  Uiso   1.00
C121   C     0.87333   0.91664   0.50531   0.01267  Uiso   1.00
C122   C     0.81038   0.88173   0.51113   0.01267  Uiso   1.00
C123   C     0.62672   0.76733   0.51551   0.01267  Uiso   1.00
C124   C     0.69123   0.81109   0.51674   0.01267  Uiso   1.00
C125   C     0.75617   0.82452   0.56291   0.01267  Uiso   1.00
C126   C     0.81607   0.86148   0.56125   0.01267  Uiso   1.00
C127   C     0.68639   0.83391   0.46800   0.01267  Uiso   1.00
C128   C     0.74540   0.86852   0.46518   0.01267  Uiso   1.00
C129   C     0.49469   0.91133   0.86802   0.01267  Uiso   1.00
C130   C     0.48887   0.87060   0.79925   0.01267  Uiso   1.00
C131   C     0.48449   0.75182   0.61121   0.01267  Uiso   1.00
C132   C     0.48326   0.79435   0.67449   0.01267  Uiso   1.00
C133   C     0.43709   0.76161   0.69326   0.01267  Uiso   1.00
C134   C     0.43875   0.80023   0.75482   0.01267  Uiso   1.00
C135   C     0.53200   0.86591   0.71839   0.01267  Uiso   1.00
C136   C     0.53482   0.90334   0.78022   0.01267  Uiso   1.00
C137   C     0.00531   0.87333   0.41664   0.01267  Uiso   1.00
C138   C     0.01113   0.81038   0.38173   0.01267  Uiso   1.00
C139   C     0.01551   0.62672   0.26733   0.01267  Uiso   1.00
C140   C     0.01674   0.69123   0.31109   0.01267  Uiso   1.00
C141   C     0.06291   0.75617   0.32452   0.01267  Uiso   1.00
C142   C     0.06125   0.81607   0.36148   0.01267  Uiso   1.00
C143   C     0.96800   0.68639   0.33391   0.01267  Uiso   1.00
C144   C     0.96518   0.74540   0.36852   0.01267  Uiso   1.00
C145   C     0.54331   0.62667   0.63198   0.01267  Uiso   1.00
C146   C     0.57135   0.68962   0.70075   0.01267  Uiso   1.00
C147   C     0.64061   0.87328   0.88879   0.01267  Uiso   1.00
C148   C     0.61986   0.80877   0.82551   0.01267  Uiso   1.00
C149   C     0.56835   0.74383   0.80674   0.01267  Uiso   1.00
C150   C     0.54541   0.68393   0.74518   0.01267  Uiso   1.00
C151   C     0.64752   0.81361   0.78161   0.01267  Uiso   1.00
C152   C     0.62312   0.75460   0.71978   0.01267  Uiso   1.00
C153   C     0.95669   0.58867   0.08336   0.01267  Uiso   1.00
C154   C     0.92865   0.62940   0.11827   0.01267  Uiso   1.00
C155   C     0.85939   0.74818   0.23267   0.01267  Uiso   1.00
C156   C     0.88014   0.70565   0.18891   0.01267  Uiso   1.00
C157   C     0.93165   0.73839   0.17548   0.01267  Uiso   1.00
C158   C     0.95459   0.69977   0.13852   0.01267  Uiso   1.00
C159   C     0.85248   0.63409   0.16609   0.01267  Uiso   1.00
C160   C     0.87688   0.59666   0.13148   0.01267  Uiso   1.00
C161   C     0.58336   0.95669   0.08867   0.01267  Uiso   1.00
C162   C     0.61827   0.92865   0.12940   0.01267  Uiso   1.00
C163   C     0.73267   0.85939   0.24818   0.01267  Uiso   1.00
C164   C     0.68891   0.88014   0.20565   0.01267  Uiso   1.00
C165   C     0.67548   0.93165   0.23839   0.01267  Uiso   1.00
C166   C     0.63852   0.95459   0.19977   0.01267  Uiso   1.00
C167   C     0.66609   0.85248   0.13409   0.01267  Uiso   1.00
C168   C     0.63148   0.87688   0.09666   0.01267  Uiso   1.00
C169   C     0.13198   0.54331   0.12667   0.01267  Uiso   1.00
C170   C     0.20075   0.57135   0.18962   0.01267  Uiso   1.00
C171   C     0.38879   0.64061   0.37328   0.01267  Uiso   1.00
C172   C     0.32551   0.61986   0.30877   0.01267  Uiso   1.00
C173   C     0.30674   0.56835   0.24383   0.01267  Uiso   1.00
C174   C     0.24518   0.54541   0.18393   0.01267  Uiso   1.00
C175   C     0.28161   0.64752   0.31361   0.01267  Uiso   1.00
C176   C     0.21978   0.62312   0.25460   0.01267  Uiso   1.00
C177   C     0.91664   0.00531   0.37333   0.01267  Uiso   1.00
C178   C     0.88173   0.01113   0.31038   0.01267  Uiso   1.00
C179   C     0.76733   0.01551   0.12672   0.01267  Uiso   1.00
C180   C     0.81109   0.01674   0.19123   0.01267  Uiso   1.00
C181   C     0.82452   0.06291   0.25617   0.01267  Uiso   1.00
C182   C     0.86148   0.06125   0.31607   0.01267  Uiso   1.00
C183   C     0.83391   0.96800   0.18639   0.01267  Uiso   1.00
C184   C     0.86852   0.96518   0.24540   0.01267  Uiso   1.00
C185   C     0.36802   0.49469   0.41133   0.01267  Uiso   1.00
C186   C     0.29925   0.48887   0.37060   0.01267  Uiso   1.00
C187   C     0.11121   0.48449   0.25182   0.01267  Uiso   1.00
C188   C     0.17449   0.48326   0.29435   0.01267  Uiso   1.00
C189   C     0.19326   0.43709   0.26161   0.01267  Uiso   1.00
C190   C     0.25482   0.43875   0.30023   0.01267  Uiso   1.00
C191   C     0.21839   0.53200   0.36591   0.01267  Uiso   1.00
C192   C     0.28022   0.53482   0.40334   0.01267  Uiso   1.00
N1     N     0.27040   0.65050   0.96090   0.01267  Uiso   1.00
N2     N     0.18960   0.30950   0.53910   0.01267  Uiso   1.00
N3     N     0.31040   0.84950   0.11990   0.01267  Uiso   1.00
N4     N     0.22960   0.19050   0.38010   0.01267  Uiso   1.00
N5     N     0.61990   0.31040   0.34950   0.01267  Uiso   1.00
N6     N     0.88010   0.22960   0.69050   0.01267  Uiso   1.00
N7     N     0.46090   0.27040   0.15050   0.01267  Uiso   1.00
N8     N     0.03910   0.18960   0.80950   0.01267  Uiso   1.00
N9     N     0.30950   0.03910   0.68960   0.01267  Uiso   1.00
N10    N     0.65050   0.46090   0.77040   0.01267  Uiso   1.00
N11    N     0.19050   0.88010   0.72960   0.01267  Uiso   1.00
N12    N     0.84950   0.61990   0.81040   0.01267  Uiso   1.00
N13    N     0.72960   0.34950   0.03910   0.01267  Uiso   1.00
N14    N     0.81040   0.69050   0.46090   0.01267  Uiso   1.00
N15    N     0.68960   0.15050   0.88010   0.01267  Uiso   1.00
N16    N     0.77040   0.80950   0.61990   0.01267  Uiso   1.00
N17    N     0.38010   0.68960   0.65050   0.01267  Uiso   1.00
N18    N     0.11990   0.77040   0.30950   0.01267  Uiso   1.00
N19    N     0.53910   0.72960   0.84950   0.01267  Uiso   1.00
N20    N     0.96090   0.81040   0.19050   0.01267  Uiso   1.00
N21    N     0.69050   0.96090   0.31040   0.01267  Uiso   1.00
N22    N     0.34950   0.53910   0.22960   0.01267  Uiso   1.00
N23    N     0.80950   0.11990   0.27040   0.01267  Uiso   1.00
N24    N     0.15050   0.38010   0.18960   0.01267  Uiso   1.00
O1     O     0.43400   0.87913   0.99147   0.01267  Uiso   1.00
O2     O     0.36440   0.91522   0.94568   0.01267  Uiso   1.00
O3     O     0.13078   0.57514   0.88992   0.01267  Uiso   1.00
O4     O     0.06627   0.59345   0.81176   0.01267  Uiso   1.00
O5     O     0.38766   0.44253   0.50853   0.01267  Uiso   1.00
O6     O     0.46954   0.41872   0.55432   0.01267  Uiso   1.00
O7     O     0.18522   0.24086   0.61008   0.01267  Uiso   1.00
O8     O     0.28169   0.25451   0.68824   0.01267  Uiso   1.00
O9     O     0.11234   0.62087   0.05487   0.01267  Uiso   1.00
O10    O     0.03046   0.58478   0.94918   0.01267  Uiso   1.00
O11    O     0.31478   0.92486   0.05564   0.01267  Uiso   1.00
O12    O     0.21831   0.90655   0.97282   0.01267  Uiso   1.00
O13    O     0.06600   0.05747   0.44513   0.01267  Uiso   1.00
O14    O     0.13560   0.08128   0.55082   0.01267  Uiso   1.00
O15    O     0.36922   0.25914   0.44436   0.01267  Uiso   1.00
O16    O     0.43373   0.24549   0.52718   0.01267  Uiso   1.00
O17    O     0.55487   0.11234   0.12087   0.01267  Uiso   1.00
O18    O     0.44918   0.03046   0.08478   0.01267  Uiso   1.00
O19    O     0.55564   0.31478   0.42486   0.01267  Uiso   1.00
O20    O     0.47282   0.21831   0.40655   0.01267  Uiso   1.00
O21    O     0.94513   0.06600   0.55747   0.01267  Uiso   1.00
O22    O     0.05082   0.13560   0.58128   0.01267  Uiso   1.00
O23    O     0.94436   0.36922   0.75914   0.01267  Uiso   1.00
O24    O     0.02718   0.43373   0.74549   0.01267  Uiso   1.00
O25    O     0.49147   0.43400   0.37913   0.01267  Uiso   1.00
O26    O     0.44568   0.36440   0.41522   0.01267  Uiso   1.00
O27    O     0.38992   0.13078   0.07514   0.01267  Uiso   1.00
O28    O     0.31176   0.06627   0.09345   0.01267  Uiso   1.00
O29    O     0.00853   0.38766   0.94253   0.01267  Uiso   1.00
O30    O     0.05432   0.46954   0.91872   0.01267  Uiso   1.00
O31    O     0.11008   0.18522   0.74086   0.01267  Uiso   1.00
O32    O     0.18824   0.28169   0.75451   0.01267  Uiso   1.00
O33    O     0.44253   0.00853   0.88766   0.01267  Uiso   1.00
O34    O     0.41872   0.05432   0.96954   0.01267  Uiso   1.00
O35    O     0.24086   0.11008   0.68522   0.01267  Uiso   1.00
O36    O     0.25451   0.18824   0.78169   0.01267  Uiso   1.00
O37    O     0.87913   0.49147   0.93400   0.01267  Uiso   1.00
O38    O     0.91522   0.44568   0.86440   0.01267  Uiso   1.00
O39    O     0.57514   0.38992   0.63078   0.01267  Uiso   1.00
O40    O     0.59345   0.31176   0.56627   0.01267  Uiso   1.00
O41    O     0.05747   0.94513   0.56600   0.01267  Uiso   1.00
O42    O     0.08128   0.05082   0.63560   0.01267  Uiso   1.00
O43    O     0.25914   0.94436   0.86922   0.01267  Uiso   1.00
O44    O     0.24549   0.02718   0.93373   0.01267  Uiso   1.00
O45    O     0.62087   0.55487   0.61234   0.01267  Uiso   1.00
O46    O     0.58478   0.44918   0.53046   0.01267  Uiso   1.00
O47    O     0.92486   0.55564   0.81478   0.01267  Uiso   1.00
O48    O     0.90655   0.47282   0.71831   0.01267  Uiso   1.00
O49    O     0.56600   0.12087   0.00853   0.01267  Uiso   1.00
O50    O     0.63560   0.08478   0.05432   0.01267  Uiso   1.00
O51    O     0.86922   0.42486   0.11008   0.01267  Uiso   1.00
O52    O     0.93373   0.40655   0.18824   0.01267  Uiso   1.00
O53    O     0.61234   0.55747   0.49147   0.01267  Uiso   1.00
O54    O     0.53046   0.58128   0.44568   0.01267  Uiso   1.00
O55    O     0.81478   0.75914   0.38992   0.01267  Uiso   1.00
O56    O     0.71831   0.74549   0.31176   0.01267  Uiso   1.00
O57    O     0.88766   0.37913   0.94513   0.01267  Uiso   1.00
O58    O     0.96954   0.41522   0.05082   0.01267  Uiso   1.00
O59    O     0.68522   0.07514   0.94436   0.01267  Uiso   1.00
O60    O     0.78169   0.09345   0.02718   0.01267  Uiso   1.00
O61    O     0.93400   0.94253   0.55487   0.01267  Uiso   1.00
O62    O     0.86440   0.91872   0.44918   0.01267  Uiso   1.00
O63    O     0.63078   0.74086   0.55564   0.01267  Uiso   1.00
O64    O     0.56627   0.75451   0.47282   0.01267  Uiso   1.00
O65    O     0.44513   0.88766   0.87913   0.01267  Uiso   1.00
O66    O     0.55082   0.96954   0.91522   0.01267  Uiso   1.00
O67    O     0.44436   0.68522   0.57514   0.01267  Uiso   1.00
O68    O     0.52718   0.78169   0.59345   0.01267  Uiso   1.00
O69    O     0.05487   0.93400   0.44253   0.01267  Uiso   1.00
O70    O     0.94918   0.86440   0.41872   0.01267  Uiso   1.00
O71    O     0.05564   0.63078   0.24086   0.01267  Uiso   1.00
O72    O     0.97282   0.56627   0.25451   0.01267  Uiso   1.00
O73    O     0.50853   0.56600   0.62087   0.01267  Uiso   1.00
O74    O     0.55432   0.63560   0.58478   0.01267  Uiso   1.00
O75    O     0.61008   0.86922   0.92486   0.01267  Uiso   1.00
O76    O     0.68824   0.93373   0.90655   0.01267  Uiso   1.00
O77    O     0.99147   0.61234   0.05747   0.01267  Uiso   1.00
O78    O     0.94568   0.53046   0.08128   0.01267  Uiso   1.00
O79    O     0.88992   0.81478   0.25914   0.01267  Uiso   1.00
O80    O     0.81176   0.71831   0.24549   0.01267  Uiso   1.00
O81    O     0.55747   0.99147   0.11234   0.01267  Uiso   1.00
O82    O     0.58128   0.94568   0.03046   0.01267  Uiso   1.00
O83    O     0.75914   0.88992   0.31478   0.01267  Uiso   1.00
O84    O     0.74549   0.81176   0.21831   0.01267  Uiso   1.00
O85    O     0.12087   0.50853   0.06600   0.01267  Uiso   1.00
O86    O     0.08478   0.55432   0.13560   0.01267  Uiso   1.00
O87    O     0.42486   0.61008   0.36922   0.01267  Uiso   1.00
O88    O     0.40655   0.68824   0.43373   0.01267  Uiso   1.00
O89    O     0.94253   0.05487   0.43400   0.01267  Uiso   1.00
O90    O     0.91872   0.94918   0.36440   0.01267  Uiso   1.00
O91    O     0.74086   0.05564   0.13078   0.01267  Uiso   1.00
O92    O     0.75451   0.97282   0.06627   0.01267  Uiso   1.00
O93    O     0.37913   0.44513   0.38766   0.01267  Uiso   1.00
O94    O     0.41522   0.55082   0.46954   0.01267  Uiso   1.00
O95    O     0.07514   0.44436   0.18522   0.01267  Uiso   1.00
O96    O     0.09345   0.52718   0.28169   0.01267  Uiso   1.00
