data_KAVKIC_clean
_audit_creation_date              2014-07-02
_audit_creation_method            'Materials Studio'
_symmetry_space_group_name_H-M    'P1'
_symmetry_Int_Tables_number       1
_symmetry_cell_setting            triclinic
loop_
_symmetry_equiv_pos_as_xyz
  x,y,z
_cell_length_a                    15.9919
_cell_length_b                    16.3613
_cell_length_c                    16.3613
_cell_angle_alpha                 76.1819
_cell_angle_beta                  60.7440
_cell_angle_gamma                 60.7440
loop_
_atom_site_label
_atom_site_type_symbol
_atom_site_fract_x
_atom_site_fract_y
_atom_site_fract_z
_atom_site_U_iso_or_equiv
_atom_site_adp_type
_atom_site_occupancy
Dy1    Dy    0.58236   0.62015   0.03358   0.01267  Uiso   1.00
Dy2    Dy    0.12480   0.88703   0.02495   0.01267  Uiso   1.00
Dy3    Dy    0.73609   0.87985   0.46642   0.01267  Uiso   1.00
Dy4    Dy    0.53678   0.61297   0.47505   0.01267  Uiso   1.00
Dy5    Dy    0.61594   0.96642   0.12015   0.01267  Uiso   1.00
Dy6    Dy    0.14975   0.97505   0.38703   0.01267  Uiso   1.00
Dy7    Dy    0.20251   0.53358   0.37985   0.01267  Uiso   1.00
Dy8    Dy    0.01183   0.52495   0.11297   0.01267  Uiso   1.00
Dy9    Dy    0.41764   0.37985   0.96642   0.01267  Uiso   1.00
Dy10   Dy    0.87520   0.11297   0.97505   0.01267  Uiso   1.00
Dy11   Dy    0.26391   0.12015   0.53358   0.01267  Uiso   1.00
Dy12   Dy    0.46322   0.38703   0.52495   0.01267  Uiso   1.00
Dy13   Dy    0.38406   0.03358   0.87985   0.01267  Uiso   1.00
Dy14   Dy    0.85025   0.02495   0.61297   0.01267  Uiso   1.00
Dy15   Dy    0.79749   0.46642   0.62015   0.01267  Uiso   1.00
Dy16   Dy    0.98817   0.47505   0.88703   0.01267  Uiso   1.00
H1     H     0.05270   0.75260   0.25360   0.01267  Uiso   1.00
H2     H     0.48060   0.59810   0.28350   0.01267  Uiso   1.00
H3     H     0.55890   0.74740   0.24640   0.01267  Uiso   1.00
H4     H     0.86220   0.90190   0.21650   0.01267  Uiso   1.00
H5     H     0.30630   0.74640   0.25260   0.01267  Uiso   1.00
H6     H     0.76410   0.71650   0.09810   0.01267  Uiso   1.00
H7     H     0.80530   0.75360   0.24740   0.01267  Uiso   1.00
H8     H     0.07870   0.78350   0.40190   0.01267  Uiso   1.00
H9     H     0.94730   0.24740   0.74640   0.01267  Uiso   1.00
H10    H     0.51940   0.40190   0.71650   0.01267  Uiso   1.00
H11    H     0.44110   0.25260   0.75360   0.01267  Uiso   1.00
H12    H     0.13780   0.09810   0.78350   0.01267  Uiso   1.00
H13    H     0.69370   0.25360   0.74740   0.01267  Uiso   1.00
H14    H     0.23590   0.28350   0.90190   0.01267  Uiso   1.00
H15    H     0.19470   0.24640   0.75260   0.01267  Uiso   1.00
H16    H     0.92130   0.21650   0.59810   0.01267  Uiso   1.00
C1     C     0.12630   0.72580   0.21780   0.01267  Uiso   1.00
C2     C     0.29200   0.63250   0.17170   0.01267  Uiso   1.00
C3     C     0.28080   0.70340   0.10640   0.01267  Uiso   1.00
C4     C     0.35370   0.72450   0.01590   0.01267  Uiso   1.00
C5     C     0.38420   0.55260   0.18000   0.01267  Uiso   1.00
C6     C     0.55210   0.58430   0.25990   0.01267  Uiso   1.00
C7     C     0.71410   0.55660   0.16320   0.01267  Uiso   1.00
C8     C     0.70200   0.54790   0.25410   0.01267  Uiso   1.00
C9     C     0.77390   0.53170   0.29410   0.01267  Uiso   1.00
C10    C     0.80200   0.54570   0.06810   0.01267  Uiso   1.00
C11    C     0.56990   0.77420   0.28220   0.01267  Uiso   1.00
C12    C     0.59620   0.86750   0.32830   0.01267  Uiso   1.00
C13    C     0.59060   0.79660   0.39360   0.01267  Uiso   1.00
C14    C     0.59410   0.77550   0.48410   0.01267  Uiso   1.00
C15    C     0.61680   0.94740   0.32000   0.01267  Uiso   1.00
C16    C     0.89630   0.91570   0.24010   0.01267  Uiso   1.00
C17    C     0.93390   0.94340   0.33680   0.01267  Uiso   1.00
C18    C     0.00400   0.95210   0.24590   0.01267  Uiso   1.00
C19    C     0.09970   0.96830   0.20590   0.01267  Uiso   1.00
C20    C     0.91580   0.95430   0.43190   0.01267  Uiso   1.00
C21    C     0.34410   0.78220   0.22580   0.01267  Uiso   1.00
C22    C     0.46370   0.82830   0.13250   0.01267  Uiso   1.00
C23    C     0.38720   0.89360   0.20340   0.01267  Uiso   1.00
C24    C     0.36960   0.98410   0.22450   0.01267  Uiso   1.00
C25    C     0.56420   0.82000   0.05260   0.01267  Uiso   1.00
C26    C     0.81200   0.74010   0.08430   0.01267  Uiso   1.00
C27    C     0.87730   0.83680   0.05660   0.01267  Uiso   1.00
C28    C     0.95610   0.74590   0.04790   0.01267  Uiso   1.00
C29    C     0.06800   0.70590   0.03170   0.01267  Uiso   1.00
C30    C     0.87010   0.93190   0.04570   0.01267  Uiso   1.00
C31    C     0.85210   0.71780   0.27420   0.01267  Uiso   1.00
C32    C     0.92450   0.67170   0.36750   0.01267  Uiso   1.00
C33    C     0.98420   0.60640   0.29660   0.01267  Uiso   1.00
C34    C     0.07820   0.51590   0.27550   0.01267  Uiso   1.00
C35    C     0.93680   0.68000   0.44740   0.01267  Uiso   1.00
C36    C     0.13640   0.75990   0.41570   0.01267  Uiso   1.00
C37    C     0.27070   0.66320   0.44340   0.01267  Uiso   1.00
C38    C     0.24990   0.75410   0.45210   0.01267  Uiso   1.00
C39    C     0.30560   0.79410   0.46830   0.01267  Uiso   1.00
C40    C     0.34770   0.56810   0.45430   0.01267  Uiso   1.00
C41    C     0.87370   0.27420   0.78220   0.01267  Uiso   1.00
C42    C     0.70800   0.36750   0.82830   0.01267  Uiso   1.00
C43    C     0.71920   0.29660   0.89360   0.01267  Uiso   1.00
C44    C     0.64630   0.27550   0.98410   0.01267  Uiso   1.00
C45    C     0.61580   0.44740   0.82000   0.01267  Uiso   1.00
C46    C     0.44790   0.41570   0.74010   0.01267  Uiso   1.00
C47    C     0.28590   0.44340   0.83680   0.01267  Uiso   1.00
C48    C     0.29800   0.45210   0.74590   0.01267  Uiso   1.00
C49    C     0.22610   0.46830   0.70590   0.01267  Uiso   1.00
C50    C     0.19800   0.45430   0.93190   0.01267  Uiso   1.00
C51    C     0.43010   0.22580   0.71780   0.01267  Uiso   1.00
C52    C     0.40380   0.13250   0.67170   0.01267  Uiso   1.00
C53    C     0.40940   0.20340   0.60640   0.01267  Uiso   1.00
C54    C     0.40590   0.22450   0.51590   0.01267  Uiso   1.00
C55    C     0.38320   0.05260   0.68000   0.01267  Uiso   1.00
C56    C     0.10370   0.08430   0.75990   0.01267  Uiso   1.00
C57    C     0.06610   0.05660   0.66320   0.01267  Uiso   1.00
C58    C     0.99600   0.04790   0.75410   0.01267  Uiso   1.00
C59    C     0.90030   0.03170   0.79410   0.01267  Uiso   1.00
C60    C     0.08420   0.04570   0.56810   0.01267  Uiso   1.00
C61    C     0.65590   0.21780   0.77420   0.01267  Uiso   1.00
C62    C     0.53630   0.17170   0.86750   0.01267  Uiso   1.00
C63    C     0.61280   0.10640   0.79660   0.01267  Uiso   1.00
C64    C     0.63040   0.01590   0.77550   0.01267  Uiso   1.00
C65    C     0.43580   0.18000   0.94740   0.01267  Uiso   1.00
C66    C     0.18800   0.25990   0.91570   0.01267  Uiso   1.00
C67    C     0.12270   0.16320   0.94340   0.01267  Uiso   1.00
C68    C     0.04390   0.25410   0.95210   0.01267  Uiso   1.00
C69    C     0.93200   0.29410   0.96830   0.01267  Uiso   1.00
C70    C     0.12990   0.06810   0.95430   0.01267  Uiso   1.00
C71    C     0.14790   0.28220   0.72580   0.01267  Uiso   1.00
C72    C     0.07550   0.32830   0.63250   0.01267  Uiso   1.00
C73    C     0.01580   0.39360   0.70340   0.01267  Uiso   1.00
C74    C     0.92180   0.48410   0.72450   0.01267  Uiso   1.00
C75    C     0.06320   0.32000   0.55260   0.01267  Uiso   1.00
C76    C     0.86360   0.24010   0.58430   0.01267  Uiso   1.00
C77    C     0.72930   0.33680   0.55660   0.01267  Uiso   1.00
C78    C     0.75010   0.24590   0.54790   0.01267  Uiso   1.00
C79    C     0.69440   0.20590   0.53170   0.01267  Uiso   1.00
C80    C     0.65230   0.43190   0.54570   0.01267  Uiso   1.00
N1     N     0.17390   0.76290   0.13710   0.01267  Uiso   1.00
N2     N     0.19260   0.64660   0.24340   0.01267  Uiso   1.00
N3     N     0.61580   0.58090   0.16810   0.01267  Uiso   1.00
N4     N     0.59850   0.56670   0.31510   0.01267  Uiso   1.00
N5     N     0.57390   0.73710   0.36290   0.01267  Uiso   1.00
N6     N     0.58260   0.85340   0.25660   0.01267  Uiso   1.00
N7     N     0.86480   0.91910   0.33190   0.01267  Uiso   1.00
N8     N     0.98030   0.93330   0.18490   0.01267  Uiso   1.00
N9     N     0.31100   0.86290   0.26290   0.01267  Uiso   1.00
N10    N     0.43600   0.75660   0.14660   0.01267  Uiso   1.00
N11    N     0.78390   0.83190   0.08090   0.01267  Uiso   1.00
N12    N     0.91360   0.68490   0.06670   0.01267  Uiso   1.00
N13    N     0.93680   0.63710   0.23710   0.01267  Uiso   1.00
N14    N     0.83920   0.74340   0.35340   0.01267  Uiso   1.00
N15    N     0.19670   0.66810   0.41910   0.01267  Uiso   1.00
N16    N     0.16520   0.81510   0.43330   0.01267  Uiso   1.00
N17    N     0.82610   0.23710   0.86290   0.01267  Uiso   1.00
N18    N     0.80740   0.35340   0.75660   0.01267  Uiso   1.00
N19    N     0.38420   0.41910   0.83190   0.01267  Uiso   1.00
N20    N     0.40150   0.43330   0.68490   0.01267  Uiso   1.00
N21    N     0.42610   0.26290   0.63710   0.01267  Uiso   1.00
N22    N     0.41740   0.14660   0.74340   0.01267  Uiso   1.00
N23    N     0.13520   0.08090   0.66810   0.01267  Uiso   1.00
N24    N     0.01970   0.06670   0.81510   0.01267  Uiso   1.00
N25    N     0.68900   0.13710   0.73710   0.01267  Uiso   1.00
N26    N     0.56400   0.24340   0.85340   0.01267  Uiso   1.00
N27    N     0.21610   0.16810   0.91910   0.01267  Uiso   1.00
N28    N     0.08640   0.31510   0.93330   0.01267  Uiso   1.00
N29    N     0.06320   0.36290   0.76290   0.01267  Uiso   1.00
N30    N     0.16080   0.25660   0.64660   0.01267  Uiso   1.00
N31    N     0.80330   0.33190   0.58090   0.01267  Uiso   1.00
N32    N     0.83480   0.18490   0.56670   0.01267  Uiso   1.00
O1     O     0.30967   0.79396   0.97110   0.01267  Uiso   1.00
O2     O     0.45336   0.67912   0.98276   0.01267  Uiso   1.00
O3     O     0.47680   0.54460   0.12860   0.01267  Uiso   1.00
O4     O     0.36520   0.49210   0.24250   0.01267  Uiso   1.00
O5     O     0.72903   0.54340   0.38194   0.01267  Uiso   1.00
O6     O     0.87172   0.50588   0.24348   0.01267  Uiso   1.00
O7     O     0.89886   0.51329   0.05419   0.01267  Uiso   1.00
O8     O     0.77851   0.56806   0.00052   0.01267  Uiso   1.00
O9     O     0.57473   0.70604   0.52890   0.01267  Uiso   1.00
O10    O     0.61524   0.82088   0.51724   0.01267  Uiso   1.00
O11    O     0.65000   0.95540   0.37140   0.01267  Uiso   1.00
O12    O     0.59980   0.00790   0.25750   0.01267  Uiso   1.00
O13    O     0.15437   0.95660   0.11806   0.01267  Uiso   1.00
O14    O     0.12108   0.99412   0.25652   0.01267  Uiso   1.00
O15    O     0.96634   0.98671   0.44581   0.01267  Uiso   1.00
O16    O     0.84709   0.93194   0.49948   0.01267  Uiso   1.00
O17    O     0.28077   0.02890   0.29396   0.01267  Uiso   1.00
O18    O     0.43612   0.01724   0.17912   0.01267  Uiso   1.00
O19    O     0.60540   0.87140   0.04460   0.01267  Uiso   1.00
O20    O     0.60770   0.75750   0.99210   0.01267  Uiso   1.00
O21    O     0.11097   0.61806   0.04340   0.01267  Uiso   1.00
O22    O     0.11520   0.75652   0.00588   0.01267  Uiso   1.00
O23    O     0.95305   0.94581   0.01329   0.01267  Uiso   1.00
O24    O     0.77903   0.99948   0.06806   0.01267  Uiso   1.00
O25    O     0.10363   0.47110   0.20604   0.01267  Uiso   1.00
O26    O     0.13248   0.48276   0.32088   0.01267  Uiso   1.00
O27    O     0.02140   0.62860   0.45540   0.01267  Uiso   1.00
O28    O     0.85730   0.74250   0.50790   0.01267  Uiso   1.00
O29    O     0.27243   0.88194   0.45660   0.01267  Uiso   1.00
O30    O     0.37760   0.74348   0.49412   0.01267  Uiso   1.00
O31    O     0.41215   0.55419   0.48671   0.01267  Uiso   1.00
O32    O     0.34657   0.50052   0.43194   0.01267  Uiso   1.00
O33    O     0.69033   0.20604   0.02890   0.01267  Uiso   1.00
O34    O     0.54664   0.32088   0.01724   0.01267  Uiso   1.00
O35    O     0.52320   0.45540   0.87140   0.01267  Uiso   1.00
O36    O     0.63480   0.50790   0.75750   0.01267  Uiso   1.00
O37    O     0.27097   0.45660   0.61806   0.01267  Uiso   1.00
O38    O     0.12828   0.49412   0.75652   0.01267  Uiso   1.00
O39    O     0.10114   0.48671   0.94581   0.01267  Uiso   1.00
O40    O     0.22149   0.43194   0.99948   0.01267  Uiso   1.00
O41    O     0.42527   0.29396   0.47110   0.01267  Uiso   1.00
O42    O     0.38476   0.17912   0.48276   0.01267  Uiso   1.00
O43    O     0.35000   0.04460   0.62860   0.01267  Uiso   1.00
O44    O     0.40020   0.99210   0.74250   0.01267  Uiso   1.00
O45    O     0.84563   0.04340   0.88194   0.01267  Uiso   1.00
O46    O     0.87892   0.00588   0.74348   0.01267  Uiso   1.00
O47    O     0.03366   0.01329   0.55419   0.01267  Uiso   1.00
O48    O     0.15291   0.06806   0.50052   0.01267  Uiso   1.00
O49    O     0.71923   0.97110   0.70604   0.01267  Uiso   1.00
O50    O     0.56388   0.98276   0.82088   0.01267  Uiso   1.00
O51    O     0.39460   0.12860   0.95540   0.01267  Uiso   1.00
O52    O     0.39230   0.24250   0.00790   0.01267  Uiso   1.00
O53    O     0.88903   0.38194   0.95660   0.01267  Uiso   1.00
O54    O     0.88480   0.24348   0.99412   0.01267  Uiso   1.00
O55    O     0.04695   0.05419   0.98671   0.01267  Uiso   1.00
O56    O     0.22097   0.00052   0.93194   0.01267  Uiso   1.00
O57    O     0.89637   0.52890   0.79396   0.01267  Uiso   1.00
O58    O     0.86752   0.51724   0.67912   0.01267  Uiso   1.00
O59    O     0.97860   0.37140   0.54460   0.01267  Uiso   1.00
O60    O     0.14270   0.25750   0.49210   0.01267  Uiso   1.00
O61    O     0.72757   0.11806   0.54340   0.01267  Uiso   1.00
O62    O     0.62240   0.25652   0.50588   0.01267  Uiso   1.00
O63    O     0.58785   0.44581   0.51329   0.01267  Uiso   1.00
O64    O     0.65343   0.49948   0.56806   0.01267  Uiso   1.00
