data_image0
_cell_length_a       32.207
_cell_length_b       13.378
_cell_length_c       15.871
_cell_angle_alpha    90
_cell_angle_beta     91.05
_cell_angle_gamma    90

_symmetry_space_group_name_H-M    "P 1"
_symmetry_int_tables_number       1

loop_
  _symmetry_equiv_pos_as_xyz
  'x, y, z'

loop_
  _atom_site_label
  _atom_site_occupancy
  _atom_site_fract_x
  _atom_site_fract_y
  _atom_site_fract_z
  _atom_site_thermal_displace_type
  _atom_site_B_iso_or_equiv
  _atom_site_type_symbol
  Cd1      1.0000 0.60601  0.69508  0.23557  Biso   1.000  Cd
  O1       1.0000 0.55887  0.77050  0.34230  Biso   1.000  O
  O2       1.0000 0.62626  0.80150  0.34670  Biso   1.000  O
  O3       1.0000 0.53108  0.11650  0.66720  Biso   1.000  O
  O4       1.0000 0.59681  0.16800  0.65410  Biso   1.000  O
  O5       1.0000 0.59067  0.58670  0.12300  Biso   1.000  O
  O6       1.0000 0.53544  0.64710  0.18520  Biso   1.000  O
  N1       1.0000 0.61699  0.55660  0.32150  Biso   1.000  N
  N2       1.0000 0.82423  0.19890  0.30170  Biso   1.000  N
  C1       1.0000 0.58404  0.89000  0.44340  Biso   1.000  C
  C2       1.0000 0.61620  0.95450  0.46670  Biso   1.000  C
  H1       1.0000 0.64220  0.94960  0.43950  Biso   1.000  H
  C3       1.0000 0.61085  0.02510  0.52830  Biso   1.000  C
  H2       1.0000 0.63290  0.06970  0.54220  Biso   1.000  H
  C4       1.0000 0.57333  0.03200  0.57080  Biso   1.000  C
  C5       1.0000 0.54208  0.96490  0.55020  Biso   1.000  C
  H3       1.0000 0.51690  0.96670  0.58040  Biso   1.000  H
  C6       1.0000 0.54670  0.89400  0.48540  Biso   1.000  C
  H4       1.0000 0.52460  0.84980  0.47070  Biso   1.000  H
  C7       1.0000 0.59020  0.81610  0.37300  Biso   1.000  C
  C8       1.0000 0.56661  0.11300  0.63640  Biso   1.000  C
  C9       1.0000 0.52497  0.54780  0.06090  Biso   1.000  C
  C10      1.0000 0.54218  0.48310  0.00400  Biso   1.000  C
  H5       1.0000 0.57130  0.47120  0.00680  Biso   1.000  H
  C11      1.0000 0.48180  0.56580  0.05790  Biso   1.000  C
  H6       1.0000 0.46930  0.60990  0.09680  Biso   1.000  H
  C12      1.0000 0.55159  0.59710  0.12630  Biso   1.000  C
  C13      1.0000 0.64360  0.55900  0.38790  Biso   1.000  C
  H7       1.0000 0.65640  0.62070  0.40270  Biso   1.000  H
  C14      1.0000 0.65320  0.47410  0.43580  Biso   1.000  C
  H8       1.0000 0.67290  0.47830  0.48090  Biso   1.000  H
  C15      1.0000 0.63400  0.38420  0.41800  Biso   1.000  C
  C16      1.0000 0.60570  0.38330  0.35250  Biso   1.000  C
  H9       1.0000 0.59070  0.32400  0.33930  Biso   1.000  H
  C17      1.0000 0.59910  0.47010  0.30520  Biso   1.000  C
  H10      1.0000 0.58040  0.46640  0.25830  Biso   1.000  H
  C18      1.0000 0.80530  0.28700  0.30380  Biso   1.000  C
  H11      1.0000 0.82090  0.34600  0.29340  Biso   1.000  H
  C19      1.0000 0.76390  0.29480  0.32070  Biso   1.000  C
  H12      1.0000 0.75080  0.35840  0.31850  Biso   1.000  H
  C20      1.0000 0.74060  0.21040  0.34130  Biso   1.000  C
  C21      1.0000 0.76180  0.12010  0.34250  Biso   1.000  C
  H13      1.0000 0.74800  0.05980  0.35670  Biso   1.000  H
  C22      1.0000 0.80270  0.11950  0.32300  Biso   1.000  C
  H14      1.0000 0.81680  0.05710  0.32490  Biso   1.000  H
  C23      1.0000 0.64420  0.29030  0.46710  Biso   1.000  C
  H15      1.0000 0.62510  0.23600  0.44910  Biso   1.000  H
  H16      1.0000 0.64020  0.30250  0.52790  Biso   1.000  H
  C24      1.0000 0.68940  0.25780  0.45260  Biso   1.000  C
  H17      1.0000 0.70820  0.31510  0.46310  Biso   1.000  H
  H18      1.0000 0.69710  0.20400  0.49280  Biso   1.000  H
  C25      1.0000 0.69470  0.22050  0.36310  Biso   1.000  C
  H19      1.0000 0.68110  0.26780  0.32330  Biso   1.000  H
  H20      1.0000 0.68100  0.15480  0.35660  Biso   1.000  H
  Cd2      1.0000 0.10601  0.19508  0.23557  Biso   1.000  Cd
  O7       1.0000 0.05887  0.27050  0.34230  Biso   1.000  O
  O8       1.0000 0.12626  0.30150  0.34670  Biso   1.000  O
  O9       1.0000 0.03108  0.61650  0.66720  Biso   1.000  O
  O10      1.0000 0.09681  0.66800  0.65410  Biso   1.000  O
  O11      1.0000 0.09067  0.08670  0.12300  Biso   1.000  O
  O12      1.0000 0.03544  0.14710  0.18520  Biso   1.000  O
  N3       1.0000 0.11699  0.05660  0.32150  Biso   1.000  N
  N4       1.0000 0.32423  0.69890  0.30170  Biso   1.000  N
  C26      1.0000 0.08404  0.39000  0.44340  Biso   1.000  C
  C27      1.0000 0.11620  0.45450  0.46670  Biso   1.000  C
  H21      1.0000 0.14220  0.44960  0.43950  Biso   1.000  H
  C28      1.0000 0.11085  0.52510  0.52830  Biso   1.000  C
  H22      1.0000 0.13290  0.56970  0.54220  Biso   1.000  H
  C29      1.0000 0.07333  0.53200  0.57080  Biso   1.000  C
  C30      1.0000 0.04208  0.46490  0.55020  Biso   1.000  C
  H23      1.0000 0.01690  0.46670  0.58040  Biso   1.000  H
  C31      1.0000 0.04670  0.39400  0.48540  Biso   1.000  C
  H24      1.0000 0.02460  0.34980  0.47070  Biso   1.000  H
  C32      1.0000 0.09020  0.31610  0.37300  Biso   1.000  C
  C33      1.0000 0.06661  0.61300  0.63640  Biso   1.000  C
  C34      1.0000 0.02497  0.04780  0.06090  Biso   1.000  C
  C35      1.0000 0.04218  0.98310  0.00400  Biso   1.000  C
  H25      1.0000 0.07130  0.97120  0.00680  Biso   1.000  H
  C36      1.0000 0.98180  0.06580  0.05790  Biso   1.000  C
  H26      1.0000 0.96930  0.10990  0.09680  Biso   1.000  H
  C37      1.0000 0.05159  0.09710  0.12630  Biso   1.000  C
  C38      1.0000 0.14360  0.05900  0.38790  Biso   1.000  C
  H27      1.0000 0.15640  0.12070  0.40270  Biso   1.000  H
  C39      1.0000 0.15320  0.97410  0.43580  Biso   1.000  C
  H28      1.0000 0.17290  0.97830  0.48090  Biso   1.000  H
  C40      1.0000 0.13400  0.88420  0.41800  Biso   1.000  C
  C41      1.0000 0.10570  0.88330  0.35250  Biso   1.000  C
  H29      1.0000 0.09070  0.82400  0.33930  Biso   1.000  H
  C42      1.0000 0.09910  0.97010  0.30520  Biso   1.000  C
  H30      1.0000 0.08040  0.96640  0.25830  Biso   1.000  H
  C43      1.0000 0.30530  0.78700  0.30380  Biso   1.000  C
  H31      1.0000 0.32090  0.84600  0.29340  Biso   1.000  H
  C44      1.0000 0.26390  0.79480  0.32070  Biso   1.000  C
  H32      1.0000 0.25080  0.85840  0.31850  Biso   1.000  H
  C45      1.0000 0.24060  0.71040  0.34130  Biso   1.000  C
  C46      1.0000 0.26180  0.62010  0.34250  Biso   1.000  C
  H33      1.0000 0.24800  0.55980  0.35670  Biso   1.000  H
  C47      1.0000 0.30270  0.61950  0.32300  Biso   1.000  C
  H34      1.0000 0.31680  0.55710  0.32490  Biso   1.000  H
  C48      1.0000 0.14420  0.79030  0.46710  Biso   1.000  C
  H35      1.0000 0.12510  0.73600  0.44910  Biso   1.000  H
  H36      1.0000 0.14020  0.80250  0.52790  Biso   1.000  H
  C49      1.0000 0.18940  0.75780  0.45260  Biso   1.000  C
  H37      1.0000 0.20820  0.81510  0.46310  Biso   1.000  H
  H38      1.0000 0.19710  0.70400  0.49280  Biso   1.000  H
  C50      1.0000 0.19470  0.72050  0.36310  Biso   1.000  C
  H39      1.0000 0.18110  0.76780  0.32330  Biso   1.000  H
  H40      1.0000 0.18100  0.65480  0.35660  Biso   1.000  H
  Cd3      1.0000 0.39399  0.69508  0.26443  Biso   1.000  Cd
  O13      1.0000 0.44113  0.77050  0.15770  Biso   1.000  O
  O14      1.0000 0.37374  0.80150  0.15330  Biso   1.000  O
  O15      1.0000 0.46892  0.11650  0.83280  Biso   1.000  O
  O16      1.0000 0.40319  0.16800  0.84590  Biso   1.000  O
  O17      1.0000 0.40933  0.58670  0.37700  Biso   1.000  O
  O18      1.0000 0.46456  0.64710  0.31480  Biso   1.000  O
  N5       1.0000 0.38301  0.55660  0.17850  Biso   1.000  N
  N6       1.0000 0.17577  0.19890  0.19830  Biso   1.000  N
  C51      1.0000 0.41596  0.89000  0.05660  Biso   1.000  C
  C52      1.0000 0.38380  0.95450  0.03330  Biso   1.000  C
  H41      1.0000 0.35780  0.94960  0.06050  Biso   1.000  H
  C53      1.0000 0.38915  0.02510  0.97170  Biso   1.000  C
  H42      1.0000 0.36710  0.06970  0.95780  Biso   1.000  H
  C54      1.0000 0.42667  0.03200  0.92920  Biso   1.000  C
  C55      1.0000 0.45792  0.96490  0.94980  Biso   1.000  C
  H43      1.0000 0.48310  0.96670  0.91960  Biso   1.000  H
  C56      1.0000 0.45330  0.89400  0.01460  Biso   1.000  C
  H44      1.0000 0.47540  0.84980  0.02930  Biso   1.000  H
  C57      1.0000 0.40980  0.81610  0.12700  Biso   1.000  C
  C58      1.0000 0.43339  0.11300  0.86360  Biso   1.000  C
  C59      1.0000 0.47503  0.54780  0.43910  Biso   1.000  C
  C60      1.0000 0.45782  0.48310  0.49600  Biso   1.000  C
  H45      1.0000 0.42870  0.47120  0.49320  Biso   1.000  H
  C61      1.0000 0.51820  0.56580  0.44210  Biso   1.000  C
  H46      1.0000 0.53070  0.60990  0.40320  Biso   1.000  H
  C62      1.0000 0.44841  0.59710  0.37370  Biso   1.000  C
  C63      1.0000 0.35640  0.55900  0.11210  Biso   1.000  C
  H47      1.0000 0.34360  0.62070  0.09730  Biso   1.000  H
  C64      1.0000 0.34680  0.47410  0.06420  Biso   1.000  C
  H48      1.0000 0.32710  0.47830  0.01910  Biso   1.000  H
  C65      1.0000 0.36600  0.38420  0.08200  Biso   1.000  C
  C66      1.0000 0.39430  0.38330  0.14750  Biso   1.000  C
  H49      1.0000 0.40930  0.32400  0.16070  Biso   1.000  H
  C67      1.0000 0.40090  0.47010  0.19480  Biso   1.000  C
  H50      1.0000 0.41960  0.46640  0.24170  Biso   1.000  H
  C68      1.0000 0.19470  0.28700  0.19620  Biso   1.000  C
  H51      1.0000 0.17910  0.34600  0.20660  Biso   1.000  H
  C69      1.0000 0.23610  0.29480  0.17930  Biso   1.000  C
  H52      1.0000 0.24920  0.35840  0.18150  Biso   1.000  H
  C70      1.0000 0.25940  0.21040  0.15870  Biso   1.000  C
  C71      1.0000 0.23820  0.12010  0.15750  Biso   1.000  C
  H53      1.0000 0.25200  0.05980  0.14330  Biso   1.000  H
  C72      1.0000 0.19730  0.11950  0.17700  Biso   1.000  C
  H54      1.0000 0.18320  0.05710  0.17510  Biso   1.000  H
  C73      1.0000 0.35580  0.29030  0.03290  Biso   1.000  C
  H55      1.0000 0.37490  0.23600  0.05090  Biso   1.000  H
  H56      1.0000 0.35980  0.30250  0.97210  Biso   1.000  H
  C74      1.0000 0.31060  0.25780  0.04740  Biso   1.000  C
  H57      1.0000 0.29180  0.31510  0.03690  Biso   1.000  H
  H58      1.0000 0.30290  0.20400  0.00720  Biso   1.000  H
  C75      1.0000 0.30530  0.22050  0.13690  Biso   1.000  C
  H59      1.0000 0.31890  0.26780  0.17670  Biso   1.000  H
  H60      1.0000 0.31900  0.15480  0.14340  Biso   1.000  H
  Cd4      1.0000 0.89399  0.19508  0.26443  Biso   1.000  Cd
  O19      1.0000 0.94113  0.27050  0.15770  Biso   1.000  O
  O20      1.0000 0.87374  0.30150  0.15330  Biso   1.000  O
  O21      1.0000 0.96892  0.61650  0.83280  Biso   1.000  O
  O22      1.0000 0.90319  0.66800  0.84590  Biso   1.000  O
  O23      1.0000 0.90933  0.08670  0.37700  Biso   1.000  O
  O24      1.0000 0.96456  0.14710  0.31480  Biso   1.000  O
  N7       1.0000 0.88301  0.05660  0.17850  Biso   1.000  N
  N8       1.0000 0.67577  0.69890  0.19830  Biso   1.000  N
  C76      1.0000 0.91596  0.39000  0.05660  Biso   1.000  C
  C77      1.0000 0.88380  0.45450  0.03330  Biso   1.000  C
  H61      1.0000 0.85780  0.44960  0.06050  Biso   1.000  H
  C78      1.0000 0.88915  0.52510  0.97170  Biso   1.000  C
  H62      1.0000 0.86710  0.56970  0.95780  Biso   1.000  H
  C79      1.0000 0.92667  0.53200  0.92920  Biso   1.000  C
  C80      1.0000 0.95792  0.46490  0.94980  Biso   1.000  C
  H63      1.0000 0.98310  0.46670  0.91960  Biso   1.000  H
  C81      1.0000 0.95330  0.39400  0.01460  Biso   1.000  C
  H64      1.0000 0.97540  0.34980  0.02930  Biso   1.000  H
  C82      1.0000 0.90980  0.31610  0.12700  Biso   1.000  C
  C83      1.0000 0.93339  0.61300  0.86360  Biso   1.000  C
  C84      1.0000 0.97503  0.04780  0.43910  Biso   1.000  C
  C85      1.0000 0.95782  0.98310  0.49600  Biso   1.000  C
  H65      1.0000 0.92870  0.97120  0.49320  Biso   1.000  H
  C86      1.0000 0.01820  0.06580  0.44210  Biso   1.000  C
  H66      1.0000 0.03070  0.10990  0.40320  Biso   1.000  H
  C87      1.0000 0.94841  0.09710  0.37370  Biso   1.000  C
  C88      1.0000 0.85640  0.05900  0.11210  Biso   1.000  C
  H67      1.0000 0.84360  0.12070  0.09730  Biso   1.000  H
  C89      1.0000 0.84680  0.97410  0.06420  Biso   1.000  C
  H68      1.0000 0.82710  0.97830  0.01910  Biso   1.000  H
  C90      1.0000 0.86600  0.88420  0.08200  Biso   1.000  C
  C91      1.0000 0.89430  0.88330  0.14750  Biso   1.000  C
  H69      1.0000 0.90930  0.82400  0.16070  Biso   1.000  H
  C92      1.0000 0.90090  0.97010  0.19480  Biso   1.000  C
  H70      1.0000 0.91960  0.96640  0.24170  Biso   1.000  H
  C93      1.0000 0.69470  0.78700  0.19620  Biso   1.000  C
  H71      1.0000 0.67910  0.84600  0.20660  Biso   1.000  H
  C94      1.0000 0.73610  0.79480  0.17930  Biso   1.000  C
  H72      1.0000 0.74920  0.85840  0.18150  Biso   1.000  H
  C95      1.0000 0.75940  0.71040  0.15870  Biso   1.000  C
  C96      1.0000 0.73820  0.62010  0.15750  Biso   1.000  C
  H73      1.0000 0.75200  0.55980  0.14330  Biso   1.000  H
  C97      1.0000 0.69730  0.61950  0.17700  Biso   1.000  C
  H74      1.0000 0.68320  0.55710  0.17510  Biso   1.000  H
  C98      1.0000 0.85580  0.79030  0.03290  Biso   1.000  C
  H75      1.0000 0.87490  0.73600  0.05090  Biso   1.000  H
  H76      1.0000 0.85980  0.80250  0.97210  Biso   1.000  H
  C99      1.0000 0.81060  0.75780  0.04740  Biso   1.000  C
  H77      1.0000 0.79180  0.81510  0.03690  Biso   1.000  H
  H78      1.0000 0.80290  0.70400  0.00720  Biso   1.000  H
  C100     1.0000 0.80530  0.72050  0.13690  Biso   1.000  C
  H79      1.0000 0.81890  0.76780  0.17670  Biso   1.000  H
  H80      1.0000 0.81900  0.65480  0.14340  Biso   1.000  H
  Cd5      1.0000 0.39399  0.30492  0.76443  Biso   1.000  Cd
  O25      1.0000 0.44113  0.22950  0.65770  Biso   1.000  O
  O26      1.0000 0.37374  0.19850  0.65330  Biso   1.000  O
  O27      1.0000 0.46892  0.88350  0.33280  Biso   1.000  O
  O28      1.0000 0.40319  0.83200  0.34590  Biso   1.000  O
  O29      1.0000 0.40933  0.41330  0.87700  Biso   1.000  O
  O30      1.0000 0.46456  0.35290  0.81480  Biso   1.000  O
  N9       1.0000 0.38301  0.44340  0.67850  Biso   1.000  N
  N10      1.0000 0.17577  0.80110  0.69830  Biso   1.000  N
  C101     1.0000 0.41596  0.11000  0.55660  Biso   1.000  C
  C102     1.0000 0.38380  0.04550  0.53330  Biso   1.000  C
  H81      1.0000 0.35780  0.05040  0.56050  Biso   1.000  H
  C103     1.0000 0.38915  0.97490  0.47170  Biso   1.000  C
  H82      1.0000 0.36710  0.93030  0.45780  Biso   1.000  H
  C104     1.0000 0.42667  0.96800  0.42920  Biso   1.000  C
  C105     1.0000 0.45792  0.03510  0.44980  Biso   1.000  C
  H83      1.0000 0.48310  0.03330  0.41960  Biso   1.000  H
  C106     1.0000 0.45330  0.10600  0.51460  Biso   1.000  C
  H84      1.0000 0.47540  0.15020  0.52930  Biso   1.000  H
  C107     1.0000 0.40980  0.18390  0.62700  Biso   1.000  C
  C108     1.0000 0.43339  0.88700  0.36360  Biso   1.000  C
  C109     1.0000 0.47503  0.45220  0.93910  Biso   1.000  C
  C110     1.0000 0.45782  0.51690  0.99600  Biso   1.000  C
  H85      1.0000 0.42870  0.52880  0.99320  Biso   1.000  H
  C111     1.0000 0.51820  0.43420  0.94210  Biso   1.000  C
  H86      1.0000 0.53070  0.39010  0.90320  Biso   1.000  H
  C112     1.0000 0.44841  0.40290  0.87370  Biso   1.000  C
  C113     1.0000 0.35640  0.44100  0.61210  Biso   1.000  C
  H87      1.0000 0.34360  0.37930  0.59730  Biso   1.000  H
  C114     1.0000 0.34680  0.52590  0.56420  Biso   1.000  C
  H88      1.0000 0.32710  0.52170  0.51910  Biso   1.000  H
  C115     1.0000 0.36600  0.61580  0.58200  Biso   1.000  C
  C116     1.0000 0.39430  0.61670  0.64750  Biso   1.000  C
  H89      1.0000 0.40930  0.67600  0.66070  Biso   1.000  H
  C117     1.0000 0.40090  0.52990  0.69480  Biso   1.000  C
  H90      1.0000 0.41960  0.53360  0.74170  Biso   1.000  H
  C118     1.0000 0.19470  0.71300  0.69620  Biso   1.000  C
  H91      1.0000 0.17910  0.65400  0.70660  Biso   1.000  H
  C119     1.0000 0.23610  0.70520  0.67930  Biso   1.000  C
  H92      1.0000 0.24920  0.64160  0.68150  Biso   1.000  H
  C120     1.0000 0.25940  0.78960  0.65870  Biso   1.000  C
  C121     1.0000 0.23820  0.87990  0.65750  Biso   1.000  C
  H93      1.0000 0.25200  0.94020  0.64330  Biso   1.000  H
  C122     1.0000 0.19730  0.88050  0.67700  Biso   1.000  C
  H94      1.0000 0.18320  0.94290  0.67510  Biso   1.000  H
  C123     1.0000 0.35580  0.70970  0.53290  Biso   1.000  C
  H95      1.0000 0.37490  0.76400  0.55090  Biso   1.000  H
  H96      1.0000 0.35980  0.69750  0.47210  Biso   1.000  H
  C124     1.0000 0.31060  0.74220  0.54740  Biso   1.000  C
  H97      1.0000 0.29180  0.68490  0.53690  Biso   1.000  H
  H98      1.0000 0.30290  0.79600  0.50720  Biso   1.000  H
  C125     1.0000 0.30530  0.77950  0.63690  Biso   1.000  C
  H99      1.0000 0.31890  0.73220  0.67670  Biso   1.000  H
  H100     1.0000 0.31900  0.84520  0.64340  Biso   1.000  H
  Cd6      1.0000 0.89399  0.80492  0.76443  Biso   1.000  Cd
  O31      1.0000 0.94113  0.72950  0.65770  Biso   1.000  O
  O32      1.0000 0.87374  0.69850  0.65330  Biso   1.000  O
  O33      1.0000 0.96892  0.38350  0.33280  Biso   1.000  O
  O34      1.0000 0.90319  0.33200  0.34590  Biso   1.000  O
  O35      1.0000 0.90933  0.91330  0.87700  Biso   1.000  O
  O36      1.0000 0.96456  0.85290  0.81480  Biso   1.000  O
  N11      1.0000 0.88301  0.94340  0.67850  Biso   1.000  N
  N12      1.0000 0.67577  0.30110  0.69830  Biso   1.000  N
  C126     1.0000 0.91596  0.61000  0.55660  Biso   1.000  C
  C127     1.0000 0.88380  0.54550  0.53330  Biso   1.000  C
  H101     1.0000 0.85780  0.55040  0.56050  Biso   1.000  H
  C128     1.0000 0.88915  0.47490  0.47170  Biso   1.000  C
  H102     1.0000 0.86710  0.43030  0.45780  Biso   1.000  H
  C129     1.0000 0.92667  0.46800  0.42920  Biso   1.000  C
  C130     1.0000 0.95792  0.53510  0.44980  Biso   1.000  C
  H103     1.0000 0.98310  0.53330  0.41960  Biso   1.000  H
  C131     1.0000 0.95330  0.60600  0.51460  Biso   1.000  C
  H104     1.0000 0.97540  0.65020  0.52930  Biso   1.000  H
  C132     1.0000 0.90980  0.68390  0.62700  Biso   1.000  C
  C133     1.0000 0.93339  0.38700  0.36360  Biso   1.000  C
  C134     1.0000 0.97503  0.95220  0.93910  Biso   1.000  C
  C135     1.0000 0.95782  0.01690  0.99600  Biso   1.000  C
  H105     1.0000 0.92870  0.02880  0.99320  Biso   1.000  H
  C136     1.0000 0.01820  0.93420  0.94210  Biso   1.000  C
  H106     1.0000 0.03070  0.89010  0.90320  Biso   1.000  H
  C137     1.0000 0.94841  0.90290  0.87370  Biso   1.000  C
  C138     1.0000 0.85640  0.94100  0.61210  Biso   1.000  C
  H107     1.0000 0.84360  0.87930  0.59730  Biso   1.000  H
  C139     1.0000 0.84680  0.02590  0.56420  Biso   1.000  C
  H108     1.0000 0.82710  0.02170  0.51910  Biso   1.000  H
  C140     1.0000 0.86600  0.11580  0.58200  Biso   1.000  C
  C141     1.0000 0.89430  0.11670  0.64750  Biso   1.000  C
  H109     1.0000 0.90930  0.17600  0.66070  Biso   1.000  H
  C142     1.0000 0.90090  0.02990  0.69480  Biso   1.000  C
  H110     1.0000 0.91960  0.03360  0.74170  Biso   1.000  H
  C143     1.0000 0.69470  0.21300  0.69620  Biso   1.000  C
  H111     1.0000 0.67910  0.15400  0.70660  Biso   1.000  H
  C144     1.0000 0.73610  0.20520  0.67930  Biso   1.000  C
  H112     1.0000 0.74920  0.14160  0.68150  Biso   1.000  H
  C145     1.0000 0.75940  0.28960  0.65870  Biso   1.000  C
  C146     1.0000 0.73820  0.37990  0.65750  Biso   1.000  C
  H113     1.0000 0.75200  0.44020  0.64330  Biso   1.000  H
  C147     1.0000 0.69730  0.38050  0.67700  Biso   1.000  C
  H114     1.0000 0.68320  0.44290  0.67510  Biso   1.000  H
  C148     1.0000 0.85580  0.20970  0.53290  Biso   1.000  C
  H115     1.0000 0.87490  0.26400  0.55090  Biso   1.000  H
  H116     1.0000 0.85980  0.19750  0.47210  Biso   1.000  H
  C149     1.0000 0.81060  0.24220  0.54740  Biso   1.000  C
  H117     1.0000 0.79180  0.18490  0.53690  Biso   1.000  H
  H118     1.0000 0.80290  0.29600  0.50720  Biso   1.000  H
  C150     1.0000 0.80530  0.27950  0.63690  Biso   1.000  C
  H119     1.0000 0.81890  0.23220  0.67670  Biso   1.000  H
  H120     1.0000 0.81900  0.34520  0.64340  Biso   1.000  H
  Cd7      1.0000 0.60601  0.30492  0.73557  Biso   1.000  Cd
  O37      1.0000 0.55887  0.22950  0.84230  Biso   1.000  O
  O38      1.0000 0.62626  0.19850  0.84670  Biso   1.000  O
  O39      1.0000 0.53108  0.88350  0.16720  Biso   1.000  O
  O40      1.0000 0.59681  0.83200  0.15410  Biso   1.000  O
  O41      1.0000 0.59067  0.41330  0.62300  Biso   1.000  O
  O42      1.0000 0.53544  0.35290  0.68520  Biso   1.000  O
  N13      1.0000 0.61699  0.44340  0.82150  Biso   1.000  N
  N14      1.0000 0.82423  0.80110  0.80170  Biso   1.000  N
  C151     1.0000 0.58404  0.11000  0.94340  Biso   1.000  C
  C152     1.0000 0.61620  0.04550  0.96670  Biso   1.000  C
  H121     1.0000 0.64220  0.05040  0.93950  Biso   1.000  H
  C153     1.0000 0.61085  0.97490  0.02830  Biso   1.000  C
  H122     1.0000 0.63290  0.93030  0.04220  Biso   1.000  H
  C154     1.0000 0.57333  0.96800  0.07080  Biso   1.000  C
  C155     1.0000 0.54208  0.03510  0.05020  Biso   1.000  C
  H123     1.0000 0.51690  0.03330  0.08040  Biso   1.000  H
  C156     1.0000 0.54670  0.10600  0.98540  Biso   1.000  C
  H124     1.0000 0.52460  0.15020  0.97070  Biso   1.000  H
  C157     1.0000 0.59020  0.18390  0.87300  Biso   1.000  C
  C158     1.0000 0.56661  0.88700  0.13640  Biso   1.000  C
  C159     1.0000 0.52497  0.45220  0.56090  Biso   1.000  C
  C160     1.0000 0.54218  0.51690  0.50400  Biso   1.000  C
  H125     1.0000 0.57130  0.52880  0.50680  Biso   1.000  H
  C161     1.0000 0.48180  0.43420  0.55790  Biso   1.000  C
  H126     1.0000 0.46930  0.39010  0.59680  Biso   1.000  H
  C162     1.0000 0.55159  0.40290  0.62630  Biso   1.000  C
  C163     1.0000 0.64360  0.44100  0.88790  Biso   1.000  C
  H127     1.0000 0.65640  0.37930  0.90270  Biso   1.000  H
  C164     1.0000 0.65320  0.52590  0.93580  Biso   1.000  C
  H128     1.0000 0.67290  0.52170  0.98090  Biso   1.000  H
  C165     1.0000 0.63400  0.61580  0.91800  Biso   1.000  C
  C166     1.0000 0.60570  0.61670  0.85250  Biso   1.000  C
  H129     1.0000 0.59070  0.67600  0.83930  Biso   1.000  H
  C167     1.0000 0.59910  0.52990  0.80520  Biso   1.000  C
  H130     1.0000 0.58040  0.53360  0.75830  Biso   1.000  H
  C168     1.0000 0.80530  0.71300  0.80380  Biso   1.000  C
  H131     1.0000 0.82090  0.65400  0.79340  Biso   1.000  H
  C169     1.0000 0.76390  0.70520  0.82070  Biso   1.000  C
  H132     1.0000 0.75080  0.64160  0.81850  Biso   1.000  H
  C170     1.0000 0.74060  0.78960  0.84130  Biso   1.000  C
  C171     1.0000 0.76180  0.87990  0.84250  Biso   1.000  C
  H133     1.0000 0.74800  0.94020  0.85670  Biso   1.000  H
  C172     1.0000 0.80270  0.88050  0.82300  Biso   1.000  C
  H134     1.0000 0.81680  0.94290  0.82490  Biso   1.000  H
  C173     1.0000 0.64420  0.70970  0.96710  Biso   1.000  C
  H135     1.0000 0.62510  0.76400  0.94910  Biso   1.000  H
  H136     1.0000 0.64020  0.69750  0.02790  Biso   1.000  H
  C174     1.0000 0.68940  0.74220  0.95260  Biso   1.000  C
  H137     1.0000 0.70820  0.68490  0.96310  Biso   1.000  H
  H138     1.0000 0.69710  0.79600  0.99280  Biso   1.000  H
  C175     1.0000 0.69470  0.77950  0.86310  Biso   1.000  C
  H139     1.0000 0.68110  0.73220  0.82330  Biso   1.000  H
  H140     1.0000 0.68100  0.84520  0.85660  Biso   1.000  H
  Cd8      1.0000 0.10601  0.80492  0.73557  Biso   1.000  Cd
  O43      1.0000 0.05887  0.72950  0.84230  Biso   1.000  O
  O44      1.0000 0.12626  0.69850  0.84670  Biso   1.000  O
  O45      1.0000 0.03108  0.38350  0.16720  Biso   1.000  O
  O46      1.0000 0.09681  0.33200  0.15410  Biso   1.000  O
  O47      1.0000 0.09067  0.91330  0.62300  Biso   1.000  O
  O48      1.0000 0.03544  0.85290  0.68520  Biso   1.000  O
  N15      1.0000 0.11699  0.94340  0.82150  Biso   1.000  N
  N16      1.0000 0.32423  0.30110  0.80170  Biso   1.000  N
  C176     1.0000 0.08404  0.61000  0.94340  Biso   1.000  C
  C177     1.0000 0.11620  0.54550  0.96670  Biso   1.000  C
  H141     1.0000 0.14220  0.55040  0.93950  Biso   1.000  H
  C178     1.0000 0.11085  0.47490  0.02830  Biso   1.000  C
  H142     1.0000 0.13290  0.43030  0.04220  Biso   1.000  H
  C179     1.0000 0.07333  0.46800  0.07080  Biso   1.000  C
  C180     1.0000 0.04208  0.53510  0.05020  Biso   1.000  C
  H143     1.0000 0.01690  0.53330  0.08040  Biso   1.000  H
  C181     1.0000 0.04670  0.60600  0.98540  Biso   1.000  C
  H144     1.0000 0.02460  0.65020  0.97070  Biso   1.000  H
  C182     1.0000 0.09020  0.68390  0.87300  Biso   1.000  C
  C183     1.0000 0.06661  0.38700  0.13640  Biso   1.000  C
  C184     1.0000 0.02497  0.95220  0.56090  Biso   1.000  C
  C185     1.0000 0.04218  0.01690  0.50400  Biso   1.000  C
  H145     1.0000 0.07130  0.02880  0.50680  Biso   1.000  H
  C186     1.0000 0.98180  0.93420  0.55790  Biso   1.000  C
  H146     1.0000 0.96930  0.89010  0.59680  Biso   1.000  H
  C187     1.0000 0.05159  0.90290  0.62630  Biso   1.000  C
  C188     1.0000 0.14360  0.94100  0.88790  Biso   1.000  C
  H147     1.0000 0.15640  0.87930  0.90270  Biso   1.000  H
  C189     1.0000 0.15320  0.02590  0.93580  Biso   1.000  C
  H148     1.0000 0.17290  0.02170  0.98090  Biso   1.000  H
  C190     1.0000 0.13400  0.11580  0.91800  Biso   1.000  C
  C191     1.0000 0.10570  0.11670  0.85250  Biso   1.000  C
  H149     1.0000 0.09070  0.17600  0.83930  Biso   1.000  H
  C192     1.0000 0.09910  0.02990  0.80520  Biso   1.000  C
  H150     1.0000 0.08040  0.03360  0.75830  Biso   1.000  H
  C193     1.0000 0.30530  0.21300  0.80380  Biso   1.000  C
  H151     1.0000 0.32090  0.15400  0.79340  Biso   1.000  H
  C194     1.0000 0.26390  0.20520  0.82070  Biso   1.000  C
  H152     1.0000 0.25080  0.14160  0.81850  Biso   1.000  H
  C195     1.0000 0.24060  0.28960  0.84130  Biso   1.000  C
  C196     1.0000 0.26180  0.37990  0.84250  Biso   1.000  C
  H153     1.0000 0.24800  0.44020  0.85670  Biso   1.000  H
  C197     1.0000 0.30270  0.38050  0.82300  Biso   1.000  C
  H154     1.0000 0.31680  0.44290  0.82490  Biso   1.000  H
  C198     1.0000 0.14420  0.20970  0.96710  Biso   1.000  C
  H155     1.0000 0.12510  0.26400  0.94910  Biso   1.000  H
  H156     1.0000 0.14020  0.19750  0.02790  Biso   1.000  H
  C199     1.0000 0.18940  0.24220  0.95260  Biso   1.000  C
  H157     1.0000 0.20820  0.18490  0.96310  Biso   1.000  H
  H158     1.0000 0.19710  0.29600  0.99280  Biso   1.000  H
  C200     1.0000 0.19470  0.27950  0.86310  Biso   1.000  C
  H159     1.0000 0.18110  0.23220  0.82330  Biso   1.000  H
  H160     1.0000 0.18100  0.34520  0.85660  Biso   1.000  H
  Cd9      1.0000 0.50000  0.77497  0.25000  Biso   1.000  Cd
  Cd10     1.0000 0.00000  0.27497  0.25000  Biso   1.000  Cd
  Cd11     1.0000 0.50000  0.22503  0.75000  Biso   1.000  Cd
  Cd12     1.0000 0.00000  0.72503  0.75000  Biso   1.000  Cd
