data_KAWBOB_clean
_audit_creation_date              2014-07-02
_audit_creation_method            'Materials Studio'
_symmetry_space_group_name_H-M    'P1'
_symmetry_Int_Tables_number       1
_symmetry_cell_setting            triclinic
loop_
_symmetry_equiv_pos_as_xyz
  x,y,z
_cell_length_a                    9.5565
_cell_length_b                    12.4706
_cell_length_c                    22.7571
_cell_angle_alpha                 90.0000
_cell_angle_beta                  101.5940
_cell_angle_gamma                 90.0000
loop_
_atom_site_label
_atom_site_type_symbol
_atom_site_fract_x
_atom_site_fract_y
_atom_site_fract_z
_atom_site_U_iso_or_equiv
_atom_site_adp_type
_atom_site_occupancy
Mn1    Mn    0.94217   0.19349   0.30921   0.01267  Uiso   1.00
Mn2    Mn    0.61508   0.35649   0.28271   0.01267  Uiso   1.00
Mn3    Mn    0.21739   0.33013   0.27397   0.01267  Uiso   1.00
Mn4    Mn    0.44217   0.80651   0.80921   0.01267  Uiso   1.00
Mn5    Mn    0.11508   0.64351   0.78271   0.01267  Uiso   1.00
Mn6    Mn    0.71739   0.66987   0.77397   0.01267  Uiso   1.00
H1     H     0.41620   0.19420   0.25950   0.01267  Uiso   1.00
H2     H     0.44310   0.21900   0.31940   0.01267  Uiso   1.00
H3     H     0.14930   0.95320   0.13830   0.01267  Uiso   1.00
H4     H     0.20090   0.88130   0.19700   0.01267  Uiso   1.00
H5     H     0.97760   0.03820   0.18620   0.01267  Uiso   1.00
H6     H     0.03370   0.96830   0.24500   0.01267  Uiso   1.00
H7     H     0.74580   0.57080   0.18610   0.01267  Uiso   1.00
H8     H     0.82650   0.63760   0.24300   0.01267  Uiso   1.00
H9     H     0.04410   0.54980   0.23680   0.01267  Uiso   1.00
H10    H     0.96180   0.48190   0.18060   0.01267  Uiso   1.00
H11    H     0.72210   0.87000   0.00180   0.01267  Uiso   1.00
H12    H     0.63400   0.76420   0.01140   0.01267  Uiso   1.00
H13    H     0.89050   0.76980   0.96590   0.01267  Uiso   1.00
H14    H     0.82170   0.66030   0.98290   0.01267  Uiso   1.00
H15    H     0.64700   0.16010   0.49530   0.01267  Uiso   1.00
H16    H     0.72580   0.05090   0.48370   0.01267  Uiso   1.00
H17    H     0.83960   0.25520   0.45980   0.01267  Uiso   1.00
H18    H     0.88670   0.14150   0.43780   0.01267  Uiso   1.00
H19    H     0.03980   0.36230   0.68600   0.01267  Uiso   1.00
H20    H     0.91590   0.40580   0.63360   0.01267  Uiso   1.00
H21    H     0.86520   0.31000   0.73970   0.01267  Uiso   1.00
H22    H     0.74560   0.36230   0.68810   0.01267  Uiso   1.00
H23    H     0.19660   0.97910   0.60870   0.01267  Uiso   1.00
H24    H     0.22150   0.02630   0.67550   0.01267  Uiso   1.00
H25    H     0.03400   0.86150   0.62590   0.01267  Uiso   1.00
H26    H     0.00860   0.92400   0.68400   0.01267  Uiso   1.00
H27    H     0.91620   0.80580   0.75950   0.01267  Uiso   1.00
H28    H     0.94310   0.78100   0.81940   0.01267  Uiso   1.00
H29    H     0.64930   0.04680   0.63830   0.01267  Uiso   1.00
H30    H     0.70090   0.11870   0.69700   0.01267  Uiso   1.00
H31    H     0.47760   0.96180   0.68620   0.01267  Uiso   1.00
H32    H     0.53370   0.03170   0.74500   0.01267  Uiso   1.00
H33    H     0.24580   0.42920   0.68610   0.01267  Uiso   1.00
H34    H     0.32650   0.36240   0.74300   0.01267  Uiso   1.00
H35    H     0.54410   0.45020   0.73680   0.01267  Uiso   1.00
H36    H     0.46180   0.51810   0.68060   0.01267  Uiso   1.00
H37    H     0.22210   0.13000   0.50180   0.01267  Uiso   1.00
H38    H     0.13400   0.23580   0.51140   0.01267  Uiso   1.00
H39    H     0.39050   0.23020   0.46590   0.01267  Uiso   1.00
H40    H     0.32170   0.33970   0.48290   0.01267  Uiso   1.00
H41    H     0.14700   0.83990   0.99530   0.01267  Uiso   1.00
H42    H     0.22580   0.94910   0.98370   0.01267  Uiso   1.00
H43    H     0.33960   0.74480   0.95980   0.01267  Uiso   1.00
H44    H     0.38670   0.85850   0.93780   0.01267  Uiso   1.00
H45    H     0.53980   0.63770   0.18600   0.01267  Uiso   1.00
H46    H     0.41590   0.59420   0.13360   0.01267  Uiso   1.00
H47    H     0.36520   0.69000   0.23970   0.01267  Uiso   1.00
H48    H     0.24560   0.63770   0.18810   0.01267  Uiso   1.00
H49    H     0.69660   0.02090   0.10870   0.01267  Uiso   1.00
H50    H     0.72150   0.97370   0.17550   0.01267  Uiso   1.00
H51    H     0.53400   0.13850   0.12590   0.01267  Uiso   1.00
H52    H     0.50860   0.07600   0.18400   0.01267  Uiso   1.00
C1     C     0.97702   0.76230   0.18842   0.01267  Uiso   1.00
C2     C     0.79154   0.69490   0.10754   0.01267  Uiso   1.00
C3     C     0.92784   0.85520   0.09264   0.01267  Uiso   1.00
C4     C     0.11760   0.91850   0.17250   0.01267  Uiso   1.00
C5     C     0.06340   0.00410   0.21070   0.01267  Uiso   1.00
C6     C     0.16820   0.08920   0.23410   0.01267  Uiso   1.00
C7     C     0.83830   0.60370   0.20500   0.01267  Uiso   1.00
C8     C     0.95120   0.51720   0.21840   0.01267  Uiso   1.00
C9     C     0.90924   0.43400   0.26114   0.01267  Uiso   1.00
C10    C     0.73097   0.79300   0.01247   0.01267  Uiso   1.00
C11    C     0.79910   0.73400   0.96790   0.01267  Uiso   1.00
C12    C     0.71071   0.72720   0.90531   0.01267  Uiso   1.00
C13    C     0.82670   0.22950   0.58600   0.01267  Uiso   1.00
C14    C     0.03791   0.17170   0.65761   0.01267  Uiso   1.00
C15    C     0.94567   0.06530   0.56777   0.01267  Uiso   1.00
C16    C     0.74077   0.12790   0.49357   0.01267  Uiso   1.00
C17    C     0.80390   0.18370   0.44490   0.01267  Uiso   1.00
C18    C     0.70261   0.19690   0.38781   0.01267  Uiso   1.00
C19    C     0.93940   0.35060   0.66530   0.01267  Uiso   1.00
C20    C     0.84690   0.36720   0.70890   0.01267  Uiso   1.00
C21    C     0.87360   0.47590   0.73940   0.01267  Uiso   1.00
C22    C     0.14830   0.99810   0.64190   0.01267  Uiso   1.00
C23    C     0.08280   0.90110   0.66190   0.01267  Uiso   1.00
C24    C     0.18240   0.82450   0.70130   0.01267  Uiso   1.00
C25    C     0.47702   0.23770   0.68842   0.01267  Uiso   1.00
C26    C     0.29154   0.30510   0.60754   0.01267  Uiso   1.00
C27    C     0.42784   0.14480   0.59264   0.01267  Uiso   1.00
C28    C     0.61760   0.08150   0.67250   0.01267  Uiso   1.00
C29    C     0.56340   0.99590   0.71070   0.01267  Uiso   1.00
C30    C     0.66820   0.91080   0.73410   0.01267  Uiso   1.00
C31    C     0.33830   0.39630   0.70500   0.01267  Uiso   1.00
C32    C     0.45120   0.48280   0.71840   0.01267  Uiso   1.00
C33    C     0.40924   0.56600   0.76114   0.01267  Uiso   1.00
C34    C     0.23097   0.20700   0.51247   0.01267  Uiso   1.00
C35    C     0.29910   0.26600   0.46790   0.01267  Uiso   1.00
C36    C     0.21071   0.27280   0.40531   0.01267  Uiso   1.00
C37    C     0.32670   0.77050   0.08600   0.01267  Uiso   1.00
C38    C     0.53791   0.82830   0.15761   0.01267  Uiso   1.00
C39    C     0.44567   0.93470   0.06777   0.01267  Uiso   1.00
C40    C     0.24077   0.87210   0.99357   0.01267  Uiso   1.00
C41    C     0.30390   0.81630   0.94490   0.01267  Uiso   1.00
C42    C     0.20261   0.80310   0.88781   0.01267  Uiso   1.00
C43    C     0.43940   0.64940   0.16530   0.01267  Uiso   1.00
C44    C     0.34690   0.63280   0.20890   0.01267  Uiso   1.00
C45    C     0.37360   0.52410   0.23940   0.01267  Uiso   1.00
C46    C     0.64830   0.00190   0.14190   0.01267  Uiso   1.00
C47    C     0.58280   0.09890   0.16190   0.01267  Uiso   1.00
C48    C     0.68240   0.17550   0.20130   0.01267  Uiso   1.00
N1     N     0.00553   0.84030   0.15003   0.01267  Uiso   1.00
N2     N     0.87659   0.68630   0.16469   0.01267  Uiso   1.00
N3     N     0.81870   0.78070   0.07380   0.01267  Uiso   1.00
N4     N     0.83895   0.13940   0.55295   0.01267  Uiso   1.00
N5     N     0.92879   0.24420   0.63659   0.01267  Uiso   1.00
N6     N     0.04043   0.08200   0.62143   0.01267  Uiso   1.00
N7     N     0.50553   0.15970   0.65003   0.01267  Uiso   1.00
N8     N     0.37659   0.31370   0.66469   0.01267  Uiso   1.00
N9     N     0.31870   0.21930   0.57380   0.01267  Uiso   1.00
N10    N     0.33895   0.86060   0.05295   0.01267  Uiso   1.00
N11    N     0.42879   0.75580   0.13659   0.01267  Uiso   1.00
N12    N     0.54043   0.91800   0.12143   0.01267  Uiso   1.00
O1     O     0.03825   0.75760   0.24025   0.01267  Uiso   1.00
O2     O     0.69770   0.63190   0.08860   0.01267  Uiso   1.00
O3     O     0.95054   0.92860   0.06044   0.01267  Uiso   1.00
O4     O     0.12837   0.16140   0.26737   0.01267  Uiso   1.00
O5     O     0.28978   0.08640   0.22148   0.01267  Uiso   1.00
O6     O     0.79958   0.44850   0.28098   0.01267  Uiso   1.00
O7     O     0.99013   0.35220   0.27323   0.01267  Uiso   1.00
O8     O     0.76118   0.67150   0.86888   0.01267  Uiso   1.00
O9     O     0.59233   0.77740   0.89343   0.01267  Uiso   1.00
O10    O     0.73152   0.29410   0.56972   0.01267  Uiso   1.00
O11    O     0.12362   0.18640   0.70132   0.01267  Uiso   1.00
O12    O     0.96068   0.98920   0.53558   0.01267  Uiso   1.00
O13    O     0.74941   0.23610   0.34321   0.01267  Uiso   1.00
O14    O     0.57408   0.17180   0.38538   0.01267  Uiso   1.00
O15    O     0.98256   0.52690   0.73186   0.01267  Uiso   1.00
O16    O     0.78452   0.50900   0.76992   0.01267  Uiso   1.00
O17    O     0.29797   0.86280   0.73017   0.01267  Uiso   1.00
O18    O     0.13974   0.73080   0.70544   0.01267  Uiso   1.00
O19    O     0.42739   0.24580   0.28439   0.01267  Uiso   1.00
O20    O     0.53825   0.24240   0.74025   0.01267  Uiso   1.00
O21    O     0.19770   0.36810   0.58860   0.01267  Uiso   1.00
O22    O     0.45054   0.07140   0.56044   0.01267  Uiso   1.00
O23    O     0.62837   0.83860   0.76737   0.01267  Uiso   1.00
O24    O     0.78978   0.91360   0.72148   0.01267  Uiso   1.00
O25    O     0.29958   0.55150   0.78098   0.01267  Uiso   1.00
O26    O     0.49013   0.64780   0.77323   0.01267  Uiso   1.00
O27    O     0.26118   0.32850   0.36888   0.01267  Uiso   1.00
O28    O     0.09233   0.22260   0.39343   0.01267  Uiso   1.00
O29    O     0.23152   0.70590   0.06972   0.01267  Uiso   1.00
O30    O     0.62362   0.81360   0.20132   0.01267  Uiso   1.00
O31    O     0.46068   0.01080   0.03558   0.01267  Uiso   1.00
O32    O     0.24941   0.76390   0.84321   0.01267  Uiso   1.00
O33    O     0.07408   0.82820   0.88538   0.01267  Uiso   1.00
O34    O     0.48256   0.47310   0.23186   0.01267  Uiso   1.00
O35    O     0.28452   0.49100   0.26992   0.01267  Uiso   1.00
O36    O     0.79797   0.13720   0.23017   0.01267  Uiso   1.00
O37    O     0.63974   0.26920   0.20544   0.01267  Uiso   1.00
O38    O     0.92739   0.75420   0.78439   0.01267  Uiso   1.00
