data_KAXZUG_clean
_audit_creation_date              2014-07-02
_audit_creation_method            'Materials Studio'
_symmetry_space_group_name_H-M    'P1'
_symmetry_Int_Tables_number       1
_symmetry_cell_setting            triclinic
loop_
_symmetry_equiv_pos_as_xyz
  x,y,z
_cell_length_a                    9.6398
_cell_length_b                    13.0650
_cell_length_c                    21.0540
_cell_angle_alpha                 102.4600
_cell_angle_beta                  102.3900
_cell_angle_gamma                 99.5200
loop_
_atom_site_label
_atom_site_type_symbol
_atom_site_fract_x
_atom_site_fract_y
_atom_site_fract_z
_atom_site_U_iso_or_equiv
_atom_site_adp_type
_atom_site_occupancy
Cd1    Cd    0.08026   0.83052   0.10420   0.01267  Uiso   1.00
Cd2    Cd    0.83287   0.10745   0.54436   0.01267  Uiso   1.00
Cd3    Cd    0.91974   0.16948   0.89580   0.01267  Uiso   1.00
Cd4    Cd    0.16713   0.89255   0.45564   0.01267  Uiso   1.00
H1     H     0.54260   0.73480   0.17120   0.01267  Uiso   1.00
H2     H     0.75370   0.72590   0.24410   0.01267  Uiso   1.00
H3     H     0.46670   0.95200   0.31800   0.01267  Uiso   1.00
H4     H     0.76630   0.64690   0.10720   0.01267  Uiso   1.00
H5     H     0.16120   0.61980   0.17200   0.01267  Uiso   1.00
H6     H     0.05910   0.40250   0.17860   0.01267  Uiso   1.00
H7     H     0.09230   0.48450   0.24910   0.01267  Uiso   1.00
H8     H     0.99830   0.56230   0.31020   0.01267  Uiso   1.00
H9     H     0.85340   0.56960   0.33160   0.01267  Uiso   1.00
H10    H     0.97220   0.52370   0.37310   0.01267  Uiso   1.00
H11    H     0.92900   0.20520   0.11500   0.01267  Uiso   1.00
H12    H     0.76810   0.20520   0.08030   0.01267  Uiso   1.00
H13    H     0.89010   0.31030   0.09910   0.01267  Uiso   1.00
H14    H     0.55310   0.20460   0.31860   0.01267  Uiso   1.00
H15    H     0.50750   0.12610   0.24620   0.01267  Uiso   1.00
H16    H     0.63890   0.11500   0.30090   0.01267  Uiso   1.00
H17    H     0.60640   0.35940   0.35960   0.01267  Uiso   1.00
H18    H     0.73260   0.46240   0.38050   0.01267  Uiso   1.00
H19    H     0.63730   0.24880   0.44720   0.01267  Uiso   1.00
H20    H     0.05570   0.31910   0.51270   0.01267  Uiso   1.00
H21    H     0.64210   0.09630   0.10990   0.01267  Uiso   1.00
H22    H     0.58210   0.06340   0.16790   0.01267  Uiso   1.00
H23    H     0.80610   0.97150   0.07390   0.01267  Uiso   1.00
H24    H     0.97350   0.92240   0.24560   0.01267  Uiso   1.00
H25    H     0.91410   0.58220   0.98530   0.01267  Uiso   1.00
H26    H     0.84500   0.85870   0.96710   0.01267  Uiso   1.00
H27    H     0.54780   0.69440   0.85530   0.01267  Uiso   1.00
H28    H     0.65020   0.80040   0.85450   0.01267  Uiso   1.00
H29    H     0.51120   0.43230   0.78100   0.01267  Uiso   1.00
H30    H     0.51070   0.53970   0.83140   0.01267  Uiso   1.00
H31    H     0.38750   0.49400   0.76400   0.01267  Uiso   1.00
H32    H     0.77690   0.88940   0.76430   0.01267  Uiso   1.00
H33    H     0.83380   0.85730   0.83110   0.01267  Uiso   1.00
H34    H     0.92400   0.85140   0.77720   0.01267  Uiso   1.00
H35    H     0.76460   0.49390   0.58210   0.01267  Uiso   1.00
H36    H     0.59390   0.46520   0.55950   0.01267  Uiso   1.00
H37    H     0.68010   0.57570   0.55590   0.01267  Uiso   1.00
H38    H     0.44530   0.40140   0.60420   0.01267  Uiso   1.00
H39    H     0.42990   0.38220   0.67370   0.01267  Uiso   1.00
H40    H     0.52330   0.22850   0.55180   0.01267  Uiso   1.00
H41    H     0.84450   0.23580   0.69890   0.01267  Uiso   1.00
H42    H     0.88270   0.68170   0.62020   0.01267  Uiso   1.00
H43    H     0.95040   0.76970   0.68850   0.01267  Uiso   1.00
H44    H     0.98030   0.91900   0.62050   0.01267  Uiso   1.00
H45    H     0.56950   0.91170   0.55860   0.01267  Uiso   1.00
H46    H     0.45740   0.26520   0.82880   0.01267  Uiso   1.00
H47    H     0.24630   0.27410   0.75590   0.01267  Uiso   1.00
H48    H     0.53330   0.04800   0.68200   0.01267  Uiso   1.00
H49    H     0.23370   0.35310   0.89280   0.01267  Uiso   1.00
H50    H     0.83880   0.38020   0.82800   0.01267  Uiso   1.00
H51    H     0.94090   0.59750   0.82140   0.01267  Uiso   1.00
H52    H     0.90770   0.51550   0.75090   0.01267  Uiso   1.00
H53    H     0.00170   0.43770   0.68980   0.01267  Uiso   1.00
H54    H     0.14660   0.43040   0.66840   0.01267  Uiso   1.00
H55    H     0.02780   0.47630   0.62690   0.01267  Uiso   1.00
H56    H     0.07100   0.79480   0.88500   0.01267  Uiso   1.00
H57    H     0.23190   0.79480   0.91970   0.01267  Uiso   1.00
H58    H     0.10990   0.68970   0.90090   0.01267  Uiso   1.00
H59    H     0.44690   0.79540   0.68140   0.01267  Uiso   1.00
H60    H     0.49250   0.87390   0.75380   0.01267  Uiso   1.00
H61    H     0.36110   0.88500   0.69910   0.01267  Uiso   1.00
H62    H     0.39360   0.64060   0.64040   0.01267  Uiso   1.00
H63    H     0.26740   0.53760   0.61950   0.01267  Uiso   1.00
H64    H     0.36270   0.75120   0.55280   0.01267  Uiso   1.00
H65    H     0.94430   0.68090   0.48730   0.01267  Uiso   1.00
H66    H     0.35790   0.90370   0.89010   0.01267  Uiso   1.00
H67    H     0.41790   0.93660   0.83210   0.01267  Uiso   1.00
H68    H     0.19390   0.02850   0.92610   0.01267  Uiso   1.00
H69    H     0.02650   0.07760   0.75440   0.01267  Uiso   1.00
H70    H     0.08590   0.41780   0.01470   0.01267  Uiso   1.00
H71    H     0.15500   0.14130   0.03290   0.01267  Uiso   1.00
H72    H     0.45220   0.30560   0.14470   0.01267  Uiso   1.00
H73    H     0.34980   0.19960   0.14550   0.01267  Uiso   1.00
H74    H     0.48880   0.56770   0.21900   0.01267  Uiso   1.00
H75    H     0.48930   0.46030   0.16860   0.01267  Uiso   1.00
H76    H     0.61250   0.50600   0.23600   0.01267  Uiso   1.00
H77    H     0.22310   0.11060   0.23570   0.01267  Uiso   1.00
H78    H     0.16620   0.14270   0.16890   0.01267  Uiso   1.00
H79    H     0.07600   0.14860   0.22280   0.01267  Uiso   1.00
H80    H     0.23540   0.50610   0.41790   0.01267  Uiso   1.00
H81    H     0.40610   0.53480   0.44050   0.01267  Uiso   1.00
H82    H     0.31990   0.42430   0.44410   0.01267  Uiso   1.00
H83    H     0.55470   0.59860   0.39580   0.01267  Uiso   1.00
H84    H     0.57010   0.61780   0.32630   0.01267  Uiso   1.00
H85    H     0.47670   0.77150   0.44820   0.01267  Uiso   1.00
H86    H     0.15550   0.76420   0.30110   0.01267  Uiso   1.00
H87    H     0.11730   0.31830   0.37980   0.01267  Uiso   1.00
H88    H     0.04960   0.23030   0.31150   0.01267  Uiso   1.00
H89    H     0.01970   0.08100   0.37950   0.01267  Uiso   1.00
H90    H     0.43050   0.08830   0.44140   0.01267  Uiso   1.00
C1     C     0.33850   0.84040   0.19170   0.01267  Uiso   1.00
C2     C     0.48160   0.84240   0.23760   0.01267  Uiso   1.00
C3     C     0.56920   0.77620   0.21560   0.01267  Uiso   1.00
C4     C     0.69590   0.77120   0.25910   0.01267  Uiso   1.00
C5     C     0.73740   0.83360   0.32536   0.01267  Uiso   1.00
C6     C     0.65440   0.90580   0.34714   0.01267  Uiso   1.00
C7     C     0.52520   0.90710   0.30325   0.01267  Uiso   1.00
C8     C     0.86770   0.81960   0.37340   0.01267  Uiso   1.00
C9     C     0.70780   0.98200   0.41615   0.01267  Uiso   1.00
C10    C     0.84590   0.62250   0.12700   0.01267  Uiso   1.00
C11    C     0.06030   0.60930   0.16210   0.01267  Uiso   1.00
C12    C     0.01710   0.44910   0.20780   0.01267  Uiso   1.00
C13    C     0.89440   0.38070   0.22440   0.01267  Uiso   1.00
C14    C     0.85630   0.41650   0.28420   0.01267  Uiso   1.00
C15    C     0.75270   0.34680   0.30240   0.01267  Uiso   1.00
C16    C     0.69130   0.24180   0.26140   0.01267  Uiso   1.00
C17    C     0.72810   0.20880   0.20060   0.01267  Uiso   1.00
C18    C     0.82650   0.27960   0.18090   0.01267  Uiso   1.00
C19    C     0.92640   0.52820   0.32880   0.01267  Uiso   1.00
C20    C     0.85610   0.24710   0.11260   0.01267  Uiso   1.00
C21    C     0.58820   0.16480   0.28380   0.01267  Uiso   1.00
C22    C     0.71050   0.38450   0.36710   0.01267  Uiso   1.00
C23    C     0.73570   0.27800   0.45390   0.01267  Uiso   1.00
C24    C     0.96200   0.31750   0.48870   0.01267  Uiso   1.00
C25    C     0.66910   0.09490   0.15680   0.01267  Uiso   1.00
C26    C     0.82960   0.97320   0.11930   0.01267  Uiso   1.00
C27    C     0.91900   0.94800   0.21290   0.01267  Uiso   1.00
C28    C     0.87700   0.63470   0.96800   0.01267  Uiso   1.00
C29    C     0.84160   0.78540   0.95940   0.01267  Uiso   1.00
C30    C     0.64300   0.72420   0.85060   0.01267  Uiso   1.00
C31    C     0.65600   0.67060   0.78186   0.01267  Uiso   1.00
C32    C     0.57900   0.56450   0.75000   0.01267  Uiso   1.00
C33    C     0.58690   0.51670   0.68460   0.01267  Uiso   1.00
C34    C     0.67420   0.57280   0.65230   0.01267  Uiso   1.00
C35    C     0.75580   0.67670   0.68630   0.01267  Uiso   1.00
C36    C     0.74570   0.72640   0.75010   0.01267  Uiso   1.00
C37    C     0.48900   0.50200   0.78480   0.01267  Uiso   1.00
C38    C     0.82760   0.84170   0.78380   0.01267  Uiso   1.00
C39    C     0.67860   0.52230   0.58090   0.01267  Uiso   1.00
C40    C     0.49940   0.40310   0.64910   0.01267  Uiso   1.00
C41    C     0.59090   0.24680   0.59350   0.01267  Uiso   1.00
C42    C     0.76330   0.25210   0.67380   0.01267  Uiso   1.00
C43    C     0.86030   0.73440   0.65440   0.01267  Uiso   1.00
C44    C     0.87930   0.89940   0.61060   0.01267  Uiso   1.00
C45    C     0.65560   0.89350   0.57710   0.01267  Uiso   1.00
C46    C     0.66150   0.15960   0.80830   0.01267  Uiso   1.00
C47    C     0.51840   0.15760   0.76240   0.01267  Uiso   1.00
C48    C     0.43080   0.22380   0.78440   0.01267  Uiso   1.00
C49    C     0.30410   0.22880   0.74090   0.01267  Uiso   1.00
C50    C     0.26260   0.16640   0.67464   0.01267  Uiso   1.00
C51    C     0.34560   0.09420   0.65286   0.01267  Uiso   1.00
C52    C     0.47480   0.09290   0.69675   0.01267  Uiso   1.00
C53    C     0.13230   0.18040   0.62660   0.01267  Uiso   1.00
C54    C     0.29220   0.01800   0.58385   0.01267  Uiso   1.00
C55    C     0.15410   0.37750   0.87300   0.01267  Uiso   1.00
C56    C     0.93970   0.39070   0.83790   0.01267  Uiso   1.00
C57    C     0.98290   0.55090   0.79220   0.01267  Uiso   1.00
C58    C     0.10560   0.61930   0.77560   0.01267  Uiso   1.00
C59    C     0.14370   0.58350   0.71580   0.01267  Uiso   1.00
C60    C     0.24730   0.65320   0.69760   0.01267  Uiso   1.00
C61    C     0.30870   0.75820   0.73860   0.01267  Uiso   1.00
C62    C     0.27190   0.79120   0.79940   0.01267  Uiso   1.00
C63    C     0.17350   0.72040   0.81910   0.01267  Uiso   1.00
C64    C     0.07360   0.47180   0.67120   0.01267  Uiso   1.00
C65    C     0.14390   0.75290   0.88740   0.01267  Uiso   1.00
C66    C     0.41180   0.83520   0.71620   0.01267  Uiso   1.00
C67    C     0.28950   0.61550   0.63290   0.01267  Uiso   1.00
C68    C     0.26430   0.72200   0.54610   0.01267  Uiso   1.00
C69    C     0.03800   0.68250   0.51130   0.01267  Uiso   1.00
C70    C     0.33090   0.90510   0.84320   0.01267  Uiso   1.00
C71    C     0.17040   0.02680   0.88070   0.01267  Uiso   1.00
C72    C     0.08100   0.05200   0.78710   0.01267  Uiso   1.00
C73    C     0.12300   0.36530   0.03200   0.01267  Uiso   1.00
C74    C     0.15840   0.21460   0.04060   0.01267  Uiso   1.00
C75    C     0.35700   0.27580   0.14940   0.01267  Uiso   1.00
C76    C     0.34400   0.32940   0.21814   0.01267  Uiso   1.00
C77    C     0.42100   0.43550   0.25000   0.01267  Uiso   1.00
C78    C     0.41310   0.48330   0.31540   0.01267  Uiso   1.00
C79    C     0.32580   0.42720   0.34770   0.01267  Uiso   1.00
C80    C     0.24420   0.32330   0.31370   0.01267  Uiso   1.00
C81    C     0.25430   0.27360   0.24990   0.01267  Uiso   1.00
C82    C     0.51100   0.49800   0.21520   0.01267  Uiso   1.00
C83    C     0.17240   0.15830   0.21620   0.01267  Uiso   1.00
C84    C     0.32140   0.47770   0.41910   0.01267  Uiso   1.00
C85    C     0.50060   0.59690   0.35090   0.01267  Uiso   1.00
C86    C     0.40910   0.75320   0.40650   0.01267  Uiso   1.00
C87    C     0.23670   0.74790   0.32620   0.01267  Uiso   1.00
C88    C     0.13970   0.26560   0.34560   0.01267  Uiso   1.00
C89    C     0.12070   0.10060   0.38940   0.01267  Uiso   1.00
C90    C     0.34440   0.10650   0.42290   0.01267  Uiso   1.00
N1     N     0.98400   0.67020   0.13335   0.01267  Uiso   1.00
N2     N     0.97280   0.53180   0.17457   0.01267  Uiso   1.00
N3     N     0.83360   0.53710   0.15140   0.01267  Uiso   1.00
N4     N     0.78760   0.34500   0.42144   0.01267  Uiso   1.00
N5     N     0.93570   0.37290   0.44400   0.01267  Uiso   1.00
N6     N     0.84190   0.25820   0.49701   0.01267  Uiso   1.00
N7     N     0.77570   0.02830   0.16566   0.01267  Uiso   1.00
N8     N     0.83250   0.01390   0.22680   0.01267  Uiso   1.00
N9     N     0.92210   0.92100   0.14791   0.01267  Uiso   1.00
N10    N     0.92110   0.74080   0.99997   0.01267  Uiso   1.00
N11    N     0.75590   0.71060   0.90590   0.01267  Uiso   1.00
N12    N     0.77760   0.61200   0.91040   0.01267  Uiso   1.00
N13    N     0.59370   0.32650   0.64421   0.01267  Uiso   1.00
N14    N     0.70510   0.33070   0.69796   0.01267  Uiso   1.00
N15    N     0.69530   0.19600   0.60874   0.01267  Uiso   1.00
N16    N     0.80340   0.81450   0.62358   0.01267  Uiso   1.00
N17    N     0.65850   0.80840   0.60130   0.01267  Uiso   1.00
N18    N     0.78780   0.95140   0.58135   0.01267  Uiso   1.00
N19    N     0.01600   0.32980   0.86665   0.01267  Uiso   1.00
N20    N     0.02720   0.46820   0.82543   0.01267  Uiso   1.00
N21    N     0.16640   0.46290   0.84860   0.01267  Uiso   1.00
N22    N     0.21240   0.65500   0.57856   0.01267  Uiso   1.00
N23    N     0.06430   0.62710   0.55600   0.01267  Uiso   1.00
N24    N     0.15810   0.74180   0.50299   0.01267  Uiso   1.00
N25    N     0.22430   0.97170   0.83434   0.01267  Uiso   1.00
N26    N     0.16750   0.98610   0.77320   0.01267  Uiso   1.00
N27    N     0.07790   0.07900   0.85209   0.01267  Uiso   1.00
N28    N     0.07890   0.25920   0.00003   0.01267  Uiso   1.00
N29    N     0.24410   0.28940   0.09410   0.01267  Uiso   1.00
N30    N     0.22240   0.38800   0.08960   0.01267  Uiso   1.00
N31    N     0.40630   0.67350   0.35579   0.01267  Uiso   1.00
N32    N     0.29490   0.66930   0.30204   0.01267  Uiso   1.00
N33    N     0.30470   0.80400   0.39126   0.01267  Uiso   1.00
N34    N     0.19660   0.18550   0.37642   0.01267  Uiso   1.00
N35    N     0.34150   0.19160   0.39870   0.01267  Uiso   1.00
N36    N     0.21220   0.04860   0.41865   0.01267  Uiso   1.00
Cl1    Cl    0.20325   0.96675   0.05210   0.01267  Uiso   1.00
Cl2    Cl    0.79675   0.03325   0.94790   0.01267  Uiso   1.00
O1     O     0.30130   0.77730   0.13250   0.01267  Uiso   1.00
O2     O     0.25670   0.89720   0.21214   0.01267  Uiso   1.00
O3     O     0.61960   0.01140   0.44739   0.01267  Uiso   1.00
O4     O     0.84400   0.01500   0.44016   0.01267  Uiso   1.00
O5     O     0.84510   0.78050   0.41990   0.01267  Uiso   1.00
O6     O     0.98770   0.84280   0.36080   0.01267  Uiso   1.00
O7     O     0.69870   0.22270   0.86750   0.01267  Uiso   1.00
O8     O     0.74330   0.10280   0.78786   0.01267  Uiso   1.00
O9     O     0.38040   0.98860   0.55261   0.01267  Uiso   1.00
O10    O     0.15600   0.98500   0.55984   0.01267  Uiso   1.00
O11    O     0.15490   0.21950   0.58010   0.01267  Uiso   1.00
O12    O     0.01230   0.15720   0.63920   0.01267  Uiso   1.00
