data_KAYBUJ_clean
_audit_creation_date              2014-07-02
_audit_creation_method            'Materials Studio'
_symmetry_space_group_name_H-M    'P1'
_symmetry_Int_Tables_number       1
_symmetry_cell_setting            triclinic
loop_
_symmetry_equiv_pos_as_xyz
  x,y,z
_cell_length_a                    6.4275
_cell_length_b                    10.9764
_cell_length_c                    16.3870
_cell_angle_alpha                 90.0000
_cell_angle_beta                  90.0000
_cell_angle_gamma                 99.1820
loop_
_atom_site_label
_atom_site_type_symbol
_atom_site_fract_x
_atom_site_fract_y
_atom_site_fract_z
_atom_site_U_iso_or_equiv
_atom_site_adp_type
_atom_site_occupancy
Ca1    Ca    0.78221   0.58060   0.95785   0.01267  Uiso   1.00
Ca2    Ca    0.71779   0.91940   0.45785   0.01267  Uiso   1.00
Ca3    Ca    0.21779   0.41940   0.04215   0.01267  Uiso   1.00
Ca4    Ca    0.28221   0.08060   0.54215   0.01267  Uiso   1.00
H1     H     0.22230   0.75560   0.76210   0.01267  Uiso   1.00
H2     H     0.80410   0.86340   0.67540   0.01267  Uiso   1.00
H3     H     0.92750   0.76800   0.78520   0.01267  Uiso   1.00
H4     H     0.27770   0.74440   0.26210   0.01267  Uiso   1.00
H5     H     0.69590   0.63660   0.17540   0.01267  Uiso   1.00
H6     H     0.57250   0.73200   0.28520   0.01267  Uiso   1.00
H7     H     0.77770   0.24440   0.23790   0.01267  Uiso   1.00
H8     H     0.19590   0.13660   0.32460   0.01267  Uiso   1.00
H9     H     0.07250   0.23200   0.21480   0.01267  Uiso   1.00
H10    H     0.72230   0.25560   0.73790   0.01267  Uiso   1.00
H11    H     0.30410   0.36340   0.82460   0.01267  Uiso   1.00
H12    H     0.42750   0.26800   0.71480   0.01267  Uiso   1.00
C1     C     0.45150   0.70000   0.82904   0.01267  Uiso   1.00
C2     C     0.39800   0.88480   0.63807   0.01267  Uiso   1.00
C3     C     0.36740   0.75790   0.76517   0.01267  Uiso   1.00
C4     C     0.71080   0.82270   0.71362   0.01267  Uiso   1.00
C5     C     0.49600   0.81930   0.70571   0.01267  Uiso   1.00
C6     C     0.31010   0.63560   0.89571   0.01267  Uiso   1.00
C7     C     0.78260   0.76400   0.77979   0.01267  Uiso   1.00
C8     C     0.04850   0.80000   0.32904   0.01267  Uiso   1.00
C9     C     0.10200   0.61520   0.13807   0.01267  Uiso   1.00
C10    C     0.13260   0.74210   0.26517   0.01267  Uiso   1.00
C11    C     0.78920   0.67730   0.21362   0.01267  Uiso   1.00
C12    C     0.00400   0.68070   0.20571   0.01267  Uiso   1.00
C13    C     0.18990   0.86440   0.39571   0.01267  Uiso   1.00
C14    C     0.71740   0.73600   0.27979   0.01267  Uiso   1.00
C15    C     0.54850   0.30000   0.17096   0.01267  Uiso   1.00
C16    C     0.60200   0.11520   0.36193   0.01267  Uiso   1.00
C17    C     0.63260   0.24210   0.23483   0.01267  Uiso   1.00
C18    C     0.28920   0.17730   0.28638   0.01267  Uiso   1.00
C19    C     0.50400   0.18070   0.29429   0.01267  Uiso   1.00
C20    C     0.68990   0.36440   0.10429   0.01267  Uiso   1.00
C21    C     0.21740   0.23600   0.22021   0.01267  Uiso   1.00
C22    C     0.95150   0.20000   0.67096   0.01267  Uiso   1.00
C23    C     0.89800   0.38480   0.86193   0.01267  Uiso   1.00
C24    C     0.86740   0.25790   0.73483   0.01267  Uiso   1.00
C25    C     0.21080   0.32270   0.78638   0.01267  Uiso   1.00
C26    C     0.99600   0.31930   0.79429   0.01267  Uiso   1.00
C27    C     0.81010   0.13560   0.60429   0.01267  Uiso   1.00
C28    C     0.28260   0.26400   0.72021   0.01267  Uiso   1.00
N1     N     0.65960   0.70130   0.83710   0.01267  Uiso   1.00
N2     N     0.84040   0.79870   0.33710   0.01267  Uiso   1.00
N3     N     0.34040   0.29870   0.16290   0.01267  Uiso   1.00
N4     N     0.15960   0.20130   0.66290   0.01267  Uiso   1.00
O1     O     0.39470   0.57167   0.94634   0.01267  Uiso   1.00
O2     O     0.49050   0.89932   0.57063   0.01267  Uiso   1.00
O3     O     0.23080   0.92408   0.65317   0.01267  Uiso   1.00
O4     O     0.12390   0.65404   0.89496   0.01267  Uiso   1.00
O5     O     0.10530   0.92833   0.44634   0.01267  Uiso   1.00
O6     O     0.00950   0.60068   0.07063   0.01267  Uiso   1.00
O7     O     0.26920   0.57592   0.15317   0.01267  Uiso   1.00
O8     O     0.37610   0.84596   0.39496   0.01267  Uiso   1.00
O9     O     0.60530   0.42833   0.05366   0.01267  Uiso   1.00
O10    O     0.50950   0.10068   0.42937   0.01267  Uiso   1.00
O11    O     0.76920   0.07592   0.34683   0.01267  Uiso   1.00
O12    O     0.87610   0.34596   0.10504   0.01267  Uiso   1.00
O13    O     0.89470   0.07167   0.55366   0.01267  Uiso   1.00
O14    O     0.99050   0.39932   0.92937   0.01267  Uiso   1.00
O15    O     0.73080   0.42408   0.84683   0.01267  Uiso   1.00
O16    O     0.62390   0.15404   0.60504   0.01267  Uiso   1.00
