data_KAYBIX_clean
_audit_creation_date              2014-07-02
_audit_creation_method            'Materials Studio'
_symmetry_space_group_name_H-M    'P1'
_symmetry_Int_Tables_number       1
_symmetry_cell_setting            triclinic
loop_
_symmetry_equiv_pos_as_xyz
  x,y,z
_cell_length_a                    6.4463
_cell_length_b                    10.9728
_cell_length_c                    16.0996
_cell_angle_alpha                 90.0000
_cell_angle_beta                  99.7750
_cell_angle_gamma                 90.0000
loop_
_atom_site_label
_atom_site_type_symbol
_atom_site_fract_x
_atom_site_fract_y
_atom_site_fract_z
_atom_site_U_iso_or_equiv
_atom_site_adp_type
_atom_site_occupancy
Ca1    Ca    0.24297   0.92848   0.95223   0.01267  Uiso   1.00
Ca2    Ca    0.25703   0.42848   0.54777   0.01267  Uiso   1.00
Ca3    Ca    0.75703   0.07152   0.04777   0.01267  Uiso   1.00
Ca4    Ca    0.74297   0.57152   0.45223   0.01267  Uiso   1.00
H1     H     0.56690   0.71760   0.76530   0.01267  Uiso   1.00
H2     H     0.26540   0.77260   0.76620   0.01267  Uiso   1.00
H3     H     0.71990   0.62430   0.66240   0.01267  Uiso   1.00
H4     H     0.93310   0.21760   0.73470   0.01267  Uiso   1.00
H5     H     0.23460   0.27260   0.73380   0.01267  Uiso   1.00
H6     H     0.78010   0.12430   0.83760   0.01267  Uiso   1.00
H7     H     0.43310   0.28240   0.23470   0.01267  Uiso   1.00
H8     H     0.73460   0.22740   0.23380   0.01267  Uiso   1.00
H9     H     0.28010   0.37570   0.33760   0.01267  Uiso   1.00
H10    H     0.06690   0.78240   0.26530   0.01267  Uiso   1.00
H11    H     0.76540   0.72740   0.26620   0.01267  Uiso   1.00
H12    H     0.21990   0.87570   0.16240   0.01267  Uiso   1.00
C1     C     0.01190   0.68970   0.70260   0.01267  Uiso   1.00
C2     C     0.82860   0.80300   0.82300   0.01267  Uiso   1.00
C3     C     0.70920   0.72920   0.76390   0.01267  Uiso   1.00
C4     C     0.12170   0.76240   0.76500   0.01267  Uiso   1.00
C5     C     0.80010   0.67300   0.70290   0.01267  Uiso   1.00
C6     C     0.12140   0.62460   0.63930   0.01267  Uiso   1.00
C7     C     0.73070   0.86730   0.89030   0.01267  Uiso   1.00
C8     C     0.48810   0.18970   0.79740   0.01267  Uiso   1.00
C9     C     0.67140   0.30300   0.67700   0.01267  Uiso   1.00
C10    C     0.79080   0.22920   0.73610   0.01267  Uiso   1.00
C11    C     0.37830   0.26240   0.73500   0.01267  Uiso   1.00
C12    C     0.69990   0.17300   0.79710   0.01267  Uiso   1.00
C13    C     0.37860   0.12460   0.86070   0.01267  Uiso   1.00
C14    C     0.76930   0.36730   0.60970   0.01267  Uiso   1.00
C15    C     0.98810   0.31030   0.29740   0.01267  Uiso   1.00
C16    C     0.17140   0.19700   0.17700   0.01267  Uiso   1.00
C17    C     0.29080   0.27080   0.23610   0.01267  Uiso   1.00
C18    C     0.87830   0.23760   0.23500   0.01267  Uiso   1.00
C19    C     0.19990   0.32700   0.29710   0.01267  Uiso   1.00
C20    C     0.87860   0.37540   0.36070   0.01267  Uiso   1.00
C21    C     0.26930   0.13270   0.10970   0.01267  Uiso   1.00
C22    C     0.51190   0.81030   0.20260   0.01267  Uiso   1.00
C23    C     0.32860   0.69700   0.32300   0.01267  Uiso   1.00
C24    C     0.20920   0.77080   0.26390   0.01267  Uiso   1.00
C25    C     0.62170   0.73760   0.26500   0.01267  Uiso   1.00
C26    C     0.30010   0.82700   0.20290   0.01267  Uiso   1.00
C27    C     0.62140   0.87540   0.13930   0.01267  Uiso   1.00
C28    C     0.23070   0.63270   0.39030   0.01267  Uiso   1.00
N1     N     0.03370   0.81910   0.82410   0.01267  Uiso   1.00
N2     N     0.46630   0.31910   0.67590   0.01267  Uiso   1.00
N3     N     0.96630   0.18090   0.17590   0.01267  Uiso   1.00
N4     N     0.53370   0.68090   0.32410   0.01267  Uiso   1.00
O1     O     0.85400   0.93100   0.94263   0.01267  Uiso   1.00
O2     O     0.53860   0.85200   0.88799   0.01267  Uiso   1.00
O3     O     0.30820   0.59470   0.66076   0.01267  Uiso   1.00
O4     O     0.01600   0.60050   0.56863   0.01267  Uiso   1.00
O5     O     0.64600   0.43100   0.55737   0.01267  Uiso   1.00
O6     O     0.96140   0.35200   0.61201   0.01267  Uiso   1.00
O7     O     0.19180   0.09470   0.83924   0.01267  Uiso   1.00
O8     O     0.48400   0.10050   0.93137   0.01267  Uiso   1.00
O9     O     0.14600   0.06900   0.05737   0.01267  Uiso   1.00
O10    O     0.46140   0.14800   0.11201   0.01267  Uiso   1.00
O11    O     0.69180   0.40530   0.33924   0.01267  Uiso   1.00
O12    O     0.98400   0.39950   0.43137   0.01267  Uiso   1.00
O13    O     0.35400   0.56900   0.44263   0.01267  Uiso   1.00
O14    O     0.03860   0.64800   0.38799   0.01267  Uiso   1.00
O15    O     0.80820   0.90530   0.16076   0.01267  Uiso   1.00
O16    O     0.51600   0.89950   0.06863   0.01267  Uiso   1.00
