data_KAYCIY_clean
_audit_creation_date              2014-07-02
_audit_creation_method            'Materials Studio'
_symmetry_space_group_name_H-M    'P1'
_symmetry_Int_Tables_number       1
_symmetry_cell_setting            triclinic
loop_
_symmetry_equiv_pos_as_xyz
  x,y,z
_cell_length_a                    12.0501
_cell_length_b                    13.9638
_cell_length_c                    14.7073
_cell_angle_alpha                 98.2570
_cell_angle_beta                  111.8630
_cell_angle_gamma                 107.7850
loop_
_atom_site_label
_atom_site_type_symbol
_atom_site_fract_x
_atom_site_fract_y
_atom_site_fract_z
_atom_site_U_iso_or_equiv
_atom_site_adp_type
_atom_site_occupancy
Ca1    Ca    0.70080   0.58044   0.57721   0.01267  Uiso   1.00
Ca2    Ca    0.46179   0.93829   0.13771   0.01267  Uiso   1.00
Ca3    Ca    0.29920   0.41956   0.42279   0.01267  Uiso   1.00
Ca4    Ca    0.53821   0.06171   0.86229   0.01267  Uiso   1.00
Ca5    Ca    0.00000   0.00000   0.50000   0.01267  Uiso   1.00
Ca6    Ca    0.00000   0.50000   0.00000   0.01267  Uiso   1.00
H1     H     0.96350   0.79360   0.62060   0.01267  Uiso   1.00
H2     H     0.50950   0.60340   0.36660   0.01267  Uiso   1.00
H3     H     0.93340   0.64950   0.82320   0.01267  Uiso   1.00
H4     H     0.25390   0.90450   0.90430   0.01267  Uiso   1.00
H5     H     0.67540   0.86690   0.30860   0.01267  Uiso   1.00
H6     H     0.30150   0.70670   0.15230   0.01267  Uiso   1.00
H7     H     0.57230   0.79770   0.79110   0.01267  Uiso   1.00
H8     H     0.31120   0.65490   0.88390   0.01267  Uiso   1.00
H9     H     0.33850   0.49380   0.66100   0.01267  Uiso   1.00
H10    H     0.03650   0.20640   0.37940   0.01267  Uiso   1.00
H11    H     0.49050   0.39660   0.63340   0.01267  Uiso   1.00
H12    H     0.06660   0.35050   0.17680   0.01267  Uiso   1.00
H13    H     0.74610   0.09550   0.09570   0.01267  Uiso   1.00
H14    H     0.32460   0.13310   0.69140   0.01267  Uiso   1.00
H15    H     0.69850   0.29330   0.84770   0.01267  Uiso   1.00
H16    H     0.42770   0.20230   0.20890   0.01267  Uiso   1.00
H17    H     0.68880   0.34510   0.11610   0.01267  Uiso   1.00
H18    H     0.66150   0.50620   0.33900   0.01267  Uiso   1.00
C1     C     0.12223   0.86161   0.75603   0.01267  Uiso   1.00
C2     C     0.10150   0.77480   0.88160   0.01267  Uiso   1.00
C3     C     0.99870   0.78814   0.68671   0.01267  Uiso   1.00
C4     C     0.38530   0.64082   0.25606   0.01267  Uiso   1.00
C5     C     0.50410   0.65253   0.33042   0.01267  Uiso   1.00
C6     C     0.61480   0.73760   0.35077   0.01267  Uiso   1.00
C7     C     0.98070   0.70418   0.80618   0.01267  Uiso   1.00
C8     C     0.17290   0.85530   0.85559   0.01267  Uiso   1.00
C9     C     0.74460   0.75566   0.43424   0.01267  Uiso   1.00
C10    C     0.53130   0.63339   0.64668   0.01267  Uiso   1.00
C11    C     0.44820   0.74227   0.85135   0.01267  Uiso   1.00
C12    C     0.46580   0.64348   0.71430   0.01267  Uiso   1.00
C13    C     0.60150   0.80923   0.29502   0.01267  Uiso   1.00
C14    C     0.38110   0.71512   0.20325   0.01267  Uiso   1.00
C15    C     0.19680   0.94164   0.71908   0.01267  Uiso   1.00
C16    C     0.49230   0.84198   0.93334   0.01267  Uiso   1.00
C17    C     0.26270   0.55182   0.23577   0.01267  Uiso   1.00
C18    C     0.15000   0.76130   0.98811   0.01267  Uiso   1.00
C19    C     0.50670   0.73801   0.78634   0.01267  Uiso   1.00
C20    C     0.35050   0.65170   0.84040   0.01267  Uiso   1.00
C21    C     0.36640   0.55710   0.70970   0.01267  Uiso   1.00
C22    C     0.87777   0.13839   0.24397   0.01267  Uiso   1.00
C23    C     0.89850   0.22520   0.11840   0.01267  Uiso   1.00
C24    C     0.00130   0.21186   0.31329   0.01267  Uiso   1.00
C25    C     0.61470   0.35918   0.74394   0.01267  Uiso   1.00
C26    C     0.49590   0.34747   0.66958   0.01267  Uiso   1.00
C27    C     0.38520   0.26240   0.64923   0.01267  Uiso   1.00
C28    C     0.01930   0.29582   0.19382   0.01267  Uiso   1.00
C29    C     0.82710   0.14470   0.14441   0.01267  Uiso   1.00
C30    C     0.25540   0.24434   0.56576   0.01267  Uiso   1.00
C31    C     0.46870   0.36661   0.35332   0.01267  Uiso   1.00
C32    C     0.55180   0.25773   0.14865   0.01267  Uiso   1.00
C33    C     0.53420   0.35652   0.28570   0.01267  Uiso   1.00
C34    C     0.39850   0.19077   0.70498   0.01267  Uiso   1.00
C35    C     0.61890   0.28488   0.79675   0.01267  Uiso   1.00
C36    C     0.80320   0.05836   0.28092   0.01267  Uiso   1.00
C37    C     0.50770   0.15802   0.06666   0.01267  Uiso   1.00
C38    C     0.73730   0.44818   0.76423   0.01267  Uiso   1.00
C39    C     0.85000   0.23870   0.01189   0.01267  Uiso   1.00
C40    C     0.49330   0.26199   0.21366   0.01267  Uiso   1.00
C41    C     0.64950   0.34830   0.15960   0.01267  Uiso   1.00
C42    C     0.63360   0.44290   0.29030   0.01267  Uiso   1.00
N1     N     0.92826   0.71013   0.71031   0.01267  Uiso   1.00
N2     N     0.48709   0.79884   0.22257   0.01267  Uiso   1.00
N3     N     0.30860   0.55969   0.77130   0.01267  Uiso   1.00
N4     N     0.07174   0.28987   0.28969   0.01267  Uiso   1.00
N5     N     0.51291   0.20116   0.77743   0.01267  Uiso   1.00
N6     N     0.69140   0.44031   0.22870   0.01267  Uiso   1.00
O1     O     0.24180   0.83813   0.05908   0.01267  Uiso   1.00
O2     O     0.74760   0.68842   0.48166   0.01267  Uiso   1.00
O3     O     0.47615   0.55388   0.56963   0.01267  Uiso   1.00
O4     O     0.31640   0.98678   0.77356   0.01267  Uiso   1.00
O5     O     0.13578   0.95615   0.63620   0.01267  Uiso   1.00
O6     O     0.15985   0.53943   0.16311   0.01267  Uiso   1.00
O7     O     0.27315   0.49686   0.29543   0.01267  Uiso   1.00
O8     O     0.84004   0.83504   0.45082   0.01267  Uiso   1.00
O9     O     0.09383   0.67493   0.99774   0.01267  Uiso   1.00
O10    O     0.55830   0.92591   0.92593   0.01267  Uiso   1.00
O11    O     0.64040   0.70139   0.67092   0.01267  Uiso   1.00
O12    O     0.45970   0.83200   0.00358   0.01267  Uiso   1.00
O13    O     0.75820   0.16187   0.94092   0.01267  Uiso   1.00
O14    O     0.25240   0.31158   0.51834   0.01267  Uiso   1.00
O15    O     0.52385   0.44612   0.43037   0.01267  Uiso   1.00
O16    O     0.68360   0.01322   0.22644   0.01267  Uiso   1.00
O17    O     0.86422   0.04385   0.36380   0.01267  Uiso   1.00
O18    O     0.84015   0.46057   0.83689   0.01267  Uiso   1.00
O19    O     0.72685   0.50314   0.70457   0.01267  Uiso   1.00
O20    O     0.15996   0.16496   0.54918   0.01267  Uiso   1.00
O21    O     0.90617   0.32507   0.00226   0.01267  Uiso   1.00
O22    O     0.44170   0.07409   0.07407   0.01267  Uiso   1.00
O23    O     0.35960   0.29861   0.32908   0.01267  Uiso   1.00
O24    O     0.54030   0.16800   0.99642   0.01267  Uiso   1.00
