data_image0
_cell_length_a       7.763
_cell_length_b       19.3892
_cell_length_c       17.8634
_cell_angle_alpha    90
_cell_angle_beta     100.466
_cell_angle_gamma    90

_symmetry_space_group_name_H-M    "P 1"
_symmetry_int_tables_number       1

loop_
  _symmetry_equiv_pos_as_xyz
  'x, y, z'

loop_
  _atom_site_label
  _atom_site_occupancy
  _atom_site_fract_x
  _atom_site_fract_y
  _atom_site_fract_z
  _atom_site_thermal_displace_type
  _atom_site_B_iso_or_equiv
  _atom_site_type_symbol
  Tb1      1.0000 0.25452  0.46926  0.01471  Biso   1.000  Tb
  Ag1      1.0000 0.30211  0.00592  0.02492  Biso   1.000  Ag
  O1       1.0000 0.48960  0.56910  0.01801  Biso   1.000  O
  O2       1.0000 0.23530  0.59100  0.04646  Biso   1.000  O
  O3       1.0000 0.23520  0.51879  0.88724  Biso   1.000  O
  O4       1.0000 0.99040  0.52840  0.92909  Biso   1.000  O
  N1       1.0000 0.39380  0.91897  0.09352  Biso   1.000  N
  N2       1.0000 0.82740  0.58281  0.55002  Biso   1.000  N
  C1       1.0000 0.49550  0.92566  0.16224  Biso   1.000  C
  H1       1.0000 0.53580  0.96930  0.17860  Biso   1.000  H
  C2       1.0000 0.54190  0.87050  0.20903  Biso   1.000  C
  H2       1.0000 0.61250  0.87660  0.25650  Biso   1.000  H
  C3       1.0000 0.48320  0.80559  0.18532  Biso   1.000  C
  H3       1.0000 0.51460  0.76760  0.21660  Biso   1.000  H
  C4       1.0000 0.37760  0.79727  0.11480  Biso   1.000  C
  C5       1.0000 0.33670  0.85509  0.07091  Biso   1.000  C
  H4       1.0000 0.26630  0.85010  0.02320  Biso   1.000  H
  C6       1.0000 0.30660  0.72795  0.08690  Biso   1.000  C
  H5       1.0000 0.21530  0.73410  0.04250  Biso   1.000  H
  H6       1.0000 0.25460  0.70590  0.12620  Biso   1.000  H
  C7       1.0000 0.44890  0.68145  0.06628  Biso   1.000  C
  H7       1.0000 0.49680  0.70290  0.02550  Biso   1.000  H
  H8       1.0000 0.54280  0.67760  0.11000  Biso   1.000  H
  C8       1.0000 0.38660  0.61092  0.04186  Biso   1.000  C
  C9       1.0000 0.79940  0.65064  0.53861  Biso   1.000  C
  H9       1.0000 0.72970  0.66520  0.49350  Biso   1.000  H
  C10      1.0000 0.86970  0.69904  0.59093  Biso   1.000  C
  H10      1.0000 0.84950  0.74570  0.58100  Biso   1.000  H
  C11      1.0000 0.97080  0.67799  0.65867  Biso   1.000  C
  H11      1.0000 0.01720  0.71030  0.69530  Biso   1.000  H
  C12      1.0000 0.00280  0.60825  0.67182  Biso   1.000  C
  C13      1.0000 0.92750  0.56320  0.61554  Biso   1.000  C
  H12      1.0000 0.94760  0.51630  0.62370  Biso   1.000  H
  C14      1.0000 0.10750  0.58085  0.74517  Biso   1.000  C
  H13      1.0000 0.20070  0.61300  0.76460  Biso   1.000  H
  H14      1.0000 0.16070  0.53720  0.73560  Biso   1.000  H
  C15      1.0000 0.99150  0.57069  0.80395  Biso   1.000  C
  H15      1.0000 0.94610  0.61530  0.81560  Biso   1.000  H
  H16      1.0000 0.89240  0.54230  0.78170  Biso   1.000  H
  C16      1.0000 0.07910  0.53805  0.87671  Biso   1.000  C
  Tb2      1.0000 0.74548  0.96926  0.48529  Biso   1.000  Tb
  Ag2      1.0000 0.69789  0.50592  0.47508  Biso   1.000  Ag
  O5       1.0000 0.51040  0.06910  0.48199  Biso   1.000  O
  O6       1.0000 0.76470  0.09100  0.45354  Biso   1.000  O
  O7       1.0000 0.76480  0.01879  0.61276  Biso   1.000  O
  O8       1.0000 0.00960  0.02840  0.57091  Biso   1.000  O
  N3       1.0000 0.60620  0.41897  0.40648  Biso   1.000  N
  N4       1.0000 0.17260  0.08281  0.94998  Biso   1.000  N
  C17      1.0000 0.50450  0.42566  0.33776  Biso   1.000  C
  H17      1.0000 0.46420  0.46930  0.32140  Biso   1.000  H
  C18      1.0000 0.45810  0.37050  0.29097  Biso   1.000  C
  H18      1.0000 0.38750  0.37660  0.24350  Biso   1.000  H
  C19      1.0000 0.51680  0.30559  0.31468  Biso   1.000  C
  H19      1.0000 0.48540  0.26760  0.28340  Biso   1.000  H
  C20      1.0000 0.62240  0.29727  0.38520  Biso   1.000  C
  C21      1.0000 0.66330  0.35509  0.42909  Biso   1.000  C
  H20      1.0000 0.73370  0.35010  0.47680  Biso   1.000  H
  C22      1.0000 0.69340  0.22795  0.41310  Biso   1.000  C
  H21      1.0000 0.78470  0.23410  0.45750  Biso   1.000  H
  H22      1.0000 0.74540  0.20590  0.37380  Biso   1.000  H
  C23      1.0000 0.55110  0.18145  0.43372  Biso   1.000  C
  H23      1.0000 0.50320  0.20290  0.47450  Biso   1.000  H
  H24      1.0000 0.45720  0.17760  0.39000  Biso   1.000  H
  C24      1.0000 0.61340  0.11092  0.45814  Biso   1.000  C
  C25      1.0000 0.20060  0.15064  0.96139  Biso   1.000  C
  H25      1.0000 0.27030  0.16520  0.00650  Biso   1.000  H
  C26      1.0000 0.13030  0.19904  0.90907  Biso   1.000  C
  H26      1.0000 0.15050  0.24570  0.91900  Biso   1.000  H
  C27      1.0000 0.02920  0.17799  0.84133  Biso   1.000  C
  H27      1.0000 0.98280  0.21030  0.80470  Biso   1.000  H
  C28      1.0000 0.99720  0.10825  0.82818  Biso   1.000  C
  C29      1.0000 0.07250  0.06320  0.88446  Biso   1.000  C
  H28      1.0000 0.05240  0.01630  0.87630  Biso   1.000  H
  C30      1.0000 0.89250  0.08085  0.75483  Biso   1.000  C
  H29      1.0000 0.79930  0.11300  0.73540  Biso   1.000  H
  H30      1.0000 0.83930  0.03720  0.76440  Biso   1.000  H
  C31      1.0000 0.00850  0.07069  0.69605  Biso   1.000  C
  H31      1.0000 0.05390  0.11530  0.68440  Biso   1.000  H
  H32      1.0000 0.10760  0.04230  0.71830  Biso   1.000  H
  C32      1.0000 0.92090  0.03805  0.62329  Biso   1.000  C
  Tb3      1.0000 0.74548  0.53074  0.98529  Biso   1.000  Tb
  Ag3      1.0000 0.69789  0.99408  0.97508  Biso   1.000  Ag
  O9       1.0000 0.51040  0.43090  0.98199  Biso   1.000  O
  O10      1.0000 0.76470  0.40900  0.95354  Biso   1.000  O
  O11      1.0000 0.76480  0.48121  0.11276  Biso   1.000  O
  O12      1.0000 0.00960  0.47160  0.07091  Biso   1.000  O
  N5       1.0000 0.60620  0.08103  0.90648  Biso   1.000  N
  N6       1.0000 0.17260  0.41719  0.44998  Biso   1.000  N
  C33      1.0000 0.50450  0.07434  0.83776  Biso   1.000  C
  H33      1.0000 0.46420  0.03070  0.82140  Biso   1.000  H
  C34      1.0000 0.45810  0.12950  0.79097  Biso   1.000  C
  H34      1.0000 0.38750  0.12340  0.74350  Biso   1.000  H
  C35      1.0000 0.51680  0.19441  0.81468  Biso   1.000  C
  H35      1.0000 0.48540  0.23240  0.78340  Biso   1.000  H
  C36      1.0000 0.62240  0.20273  0.88520  Biso   1.000  C
  C37      1.0000 0.66330  0.14491  0.92909  Biso   1.000  C
  H36      1.0000 0.73370  0.14990  0.97680  Biso   1.000  H
  C38      1.0000 0.69340  0.27205  0.91310  Biso   1.000  C
  H37      1.0000 0.78470  0.26590  0.95750  Biso   1.000  H
  H38      1.0000 0.74540  0.29410  0.87380  Biso   1.000  H
  C39      1.0000 0.55110  0.31855  0.93372  Biso   1.000  C
  H39      1.0000 0.50320  0.29710  0.97450  Biso   1.000  H
  H40      1.0000 0.45720  0.32240  0.89000  Biso   1.000  H
  C40      1.0000 0.61340  0.38908  0.95814  Biso   1.000  C
  C41      1.0000 0.20060  0.34936  0.46139  Biso   1.000  C
  H41      1.0000 0.27030  0.33480  0.50650  Biso   1.000  H
  C42      1.0000 0.13030  0.30096  0.40907  Biso   1.000  C
  H42      1.0000 0.15050  0.25430  0.41900  Biso   1.000  H
  C43      1.0000 0.02920  0.32201  0.34133  Biso   1.000  C
  H43      1.0000 0.98280  0.28970  0.30470  Biso   1.000  H
  C44      1.0000 0.99720  0.39175  0.32818  Biso   1.000  C
  C45      1.0000 0.07250  0.43680  0.38446  Biso   1.000  C
  H44      1.0000 0.05240  0.48370  0.37630  Biso   1.000  H
  C46      1.0000 0.89250  0.41915  0.25483  Biso   1.000  C
  H45      1.0000 0.79930  0.38700  0.23540  Biso   1.000  H
  H46      1.0000 0.83930  0.46280  0.26440  Biso   1.000  H
  C47      1.0000 0.00850  0.42931  0.19605  Biso   1.000  C
  H47      1.0000 0.05390  0.38470  0.18440  Biso   1.000  H
  H48      1.0000 0.10760  0.45770  0.21830  Biso   1.000  H
  C48      1.0000 0.92090  0.46195  0.12329  Biso   1.000  C
  Tb4      1.0000 0.25452  0.03074  0.51471  Biso   1.000  Tb
  Ag4      1.0000 0.30211  0.49408  0.52492  Biso   1.000  Ag
  O13      1.0000 0.48960  0.93090  0.51801  Biso   1.000  O
  O14      1.0000 0.23530  0.90900  0.54646  Biso   1.000  O
  O15      1.0000 0.23520  0.98121  0.38724  Biso   1.000  O
  O16      1.0000 0.99040  0.97160  0.42909  Biso   1.000  O
  N7       1.0000 0.39380  0.58103  0.59352  Biso   1.000  N
  N8       1.0000 0.82740  0.91719  0.05002  Biso   1.000  N
  C49      1.0000 0.49550  0.57434  0.66224  Biso   1.000  C
  H49      1.0000 0.53580  0.53070  0.67860  Biso   1.000  H
  C50      1.0000 0.54190  0.62950  0.70903  Biso   1.000  C
  H50      1.0000 0.61250  0.62340  0.75650  Biso   1.000  H
  C51      1.0000 0.48320  0.69441  0.68532  Biso   1.000  C
  H51      1.0000 0.51460  0.73240  0.71660  Biso   1.000  H
  C52      1.0000 0.37760  0.70273  0.61480  Biso   1.000  C
  C53      1.0000 0.33670  0.64491  0.57091  Biso   1.000  C
  H52      1.0000 0.26630  0.64990  0.52320  Biso   1.000  H
  C54      1.0000 0.30660  0.77205  0.58690  Biso   1.000  C
  H53      1.0000 0.21530  0.76590  0.54250  Biso   1.000  H
  H54      1.0000 0.25460  0.79410  0.62620  Biso   1.000  H
  C55      1.0000 0.44890  0.81855  0.56628  Biso   1.000  C
  H55      1.0000 0.49680  0.79710  0.52550  Biso   1.000  H
  H56      1.0000 0.54280  0.82240  0.61000  Biso   1.000  H
  C56      1.0000 0.38660  0.88908  0.54186  Biso   1.000  C
  C57      1.0000 0.79940  0.84936  0.03861  Biso   1.000  C
  H57      1.0000 0.72970  0.83480  0.99350  Biso   1.000  H
  C58      1.0000 0.86970  0.80096  0.09093  Biso   1.000  C
  H58      1.0000 0.84950  0.75430  0.08100  Biso   1.000  H
  C59      1.0000 0.97080  0.82201  0.15867  Biso   1.000  C
  H59      1.0000 0.01720  0.78970  0.19530  Biso   1.000  H
  C60      1.0000 0.00280  0.89175  0.17182  Biso   1.000  C
  C61      1.0000 0.92750  0.93680  0.11554  Biso   1.000  C
  H60      1.0000 0.94760  0.98370  0.12370  Biso   1.000  H
  C62      1.0000 0.10750  0.91915  0.24517  Biso   1.000  C
  H61      1.0000 0.20070  0.88700  0.26460  Biso   1.000  H
  H62      1.0000 0.16070  0.96280  0.23560  Biso   1.000  H
  C63      1.0000 0.99150  0.92931  0.30395  Biso   1.000  C
  H63      1.0000 0.94610  0.88470  0.31560  Biso   1.000  H
  H64      1.0000 0.89240  0.95770  0.28170  Biso   1.000  H
  C64      1.0000 0.07910  0.96195  0.37671  Biso   1.000  C
