data_KECRAL10_clean
_audit_creation_date              2014-07-02
_audit_creation_method            'Materials Studio'
_symmetry_space_group_name_H-M    'P1'
_symmetry_Int_Tables_number       1
_symmetry_cell_setting            triclinic
loop_
_symmetry_equiv_pos_as_xyz
  x,y,z
_cell_length_a                    8.5480
_cell_length_b                    8.6950
_cell_length_c                    11.3792
_cell_angle_alpha                 90.0000
_cell_angle_beta                  112.0610
_cell_angle_gamma                 90.0000
loop_
_atom_site_label
_atom_site_type_symbol
_atom_site_fract_x
_atom_site_fract_y
_atom_site_fract_z
_atom_site_U_iso_or_equiv
_atom_site_adp_type
_atom_site_occupancy
Cd1    Cd    0.00000   0.00000   0.00000   0.01267  Uiso   1.00
Cd2    Cd    0.16480   0.50000   0.32960   0.01267  Uiso   1.00
Cd3    Cd    0.83250   0.50000   0.66500   0.01267  Uiso   1.00
C1     C     0.10740   0.70580   0.21480   0.01267  Uiso   1.00
C2     C     0.92580   0.82710   0.85160   0.01267  Uiso   1.00
C3     C     0.10740   0.29420   0.21480   0.01267  Uiso   1.00
C4     C     0.92580   0.17290   0.85160   0.01267  Uiso   1.00
C5     C     0.43090   0.50000   0.44980   0.01267  Uiso   1.00
C6     C     0.01890   0.50000   0.44980   0.01267  Uiso   1.00
N1     N     0.07480   0.81050   0.14960   0.01267  Uiso   1.00
N2     N     0.89180   0.72550   0.78360   0.01267  Uiso   1.00
N3     N     0.07480   0.18950   0.14960   0.01267  Uiso   1.00
N4     N     0.89180   0.27450   0.78360   0.01267  Uiso   1.00
N5     N     0.56560   0.50000   0.52360   0.01267  Uiso   1.00
N6     N     0.95800   0.50000   0.52360   0.01267  Uiso   1.00
