data_image0
_cell_length_a       8.694
_cell_length_b       16.908
_cell_length_c       21.157
_cell_angle_alpha    90
_cell_angle_beta     90
_cell_angle_gamma    90

_symmetry_space_group_name_H-M    "P 1"
_symmetry_int_tables_number       1

loop_
  _symmetry_equiv_pos_as_xyz
  'x, y, z'

loop_
  _atom_site_label
  _atom_site_occupancy
  _atom_site_fract_x
  _atom_site_fract_y
  _atom_site_fract_z
  _atom_site_thermal_displace_type
  _atom_site_B_iso_or_equiv
  _atom_site_type_symbol
  Cd1      1.0000 0.51049  0.12496  0.41498  Biso   1.000  Cd
  C1       1.0000 0.72020  0.11800  0.35750  Biso   1.000  C
  N1       1.0000 0.82420  0.11280  0.32640  Biso   1.000  N
  C2       1.0000 0.30050  0.13220  0.35760  Biso   1.000  C
  N2       1.0000 0.19660  0.13440  0.32570  Biso   1.000  N
  C3       1.0000 0.52170  0.22480  0.48160  Biso   1.000  C
  C4       1.0000 0.50140  0.02480  0.48170  Biso   1.000  C
  N3       1.0000 0.49860  0.97520  0.51830  Biso   1.000  N
  Cd2      1.0000 0.48951  0.87504  0.91498  Biso   1.000  Cd
  C5       1.0000 0.27980  0.88200  0.85750  Biso   1.000  C
  N4       1.0000 0.17580  0.88720  0.82640  Biso   1.000  N
  C6       1.0000 0.69950  0.86780  0.85760  Biso   1.000  C
  N5       1.0000 0.80340  0.86560  0.82570  Biso   1.000  N
  C7       1.0000 0.47830  0.77520  0.98160  Biso   1.000  C
  C8       1.0000 0.49860  0.97520  0.98170  Biso   1.000  C
  N6       1.0000 0.50140  0.02480  0.01830  Biso   1.000  N
  Cd3      1.0000 0.48951  0.62496  0.08502  Biso   1.000  Cd
  C9       1.0000 0.27980  0.61800  0.14250  Biso   1.000  C
  N7       1.0000 0.17580  0.61280  0.17360  Biso   1.000  N
  C10      1.0000 0.69950  0.63220  0.14240  Biso   1.000  C
  N8       1.0000 0.80340  0.63440  0.17430  Biso   1.000  N
  C11      1.0000 0.47830  0.72480  0.01840  Biso   1.000  C
  C12      1.0000 0.49860  0.52480  0.01830  Biso   1.000  C
  N9       1.0000 0.50140  0.47520  0.98170  Biso   1.000  N
  Cd4      1.0000 0.51049  0.37504  0.58502  Biso   1.000  Cd
  C13      1.0000 0.72020  0.38200  0.64250  Biso   1.000  C
  N10      1.0000 0.82420  0.38720  0.67360  Biso   1.000  N
  C14      1.0000 0.30050  0.36780  0.64240  Biso   1.000  C
  N11      1.0000 0.19660  0.36560  0.67430  Biso   1.000  N
  C15      1.0000 0.52170  0.27520  0.51840  Biso   1.000  C
  C16      1.0000 0.50140  0.47520  0.51830  Biso   1.000  C
  N12      1.0000 0.49860  0.52480  0.48170  Biso   1.000  N
  Cd5      1.0000 0.48951  0.87504  0.58502  Biso   1.000  Cd
  C17      1.0000 0.27980  0.88200  0.64250  Biso   1.000  C
  N13      1.0000 0.17580  0.88720  0.67360  Biso   1.000  N
  C18      1.0000 0.69950  0.86780  0.64240  Biso   1.000  C
  N14      1.0000 0.80340  0.86560  0.67430  Biso   1.000  N
  C19      1.0000 0.47830  0.77520  0.51840  Biso   1.000  C
  Cd6      1.0000 0.51049  0.12496  0.08502  Biso   1.000  Cd
  C20      1.0000 0.72020  0.11800  0.14250  Biso   1.000  C
  N15      1.0000 0.82420  0.11280  0.17360  Biso   1.000  N
  C21      1.0000 0.30050  0.13220  0.14240  Biso   1.000  C
  N16      1.0000 0.19660  0.13440  0.17430  Biso   1.000  N
  C22      1.0000 0.52170  0.22480  0.01840  Biso   1.000  C
  Cd7      1.0000 0.51049  0.37504  0.91498  Biso   1.000  Cd
  C23      1.0000 0.72020  0.38200  0.85750  Biso   1.000  C
  N17      1.0000 0.82420  0.38720  0.82640  Biso   1.000  N
  C24      1.0000 0.30050  0.36780  0.85760  Biso   1.000  C
  N18      1.0000 0.19660  0.36560  0.82570  Biso   1.000  N
  C25      1.0000 0.52170  0.27520  0.98160  Biso   1.000  C
  Cd8      1.0000 0.48951  0.62496  0.41498  Biso   1.000  Cd
  C26      1.0000 0.27980  0.61800  0.35750  Biso   1.000  C
  N19      1.0000 0.17580  0.61280  0.32640  Biso   1.000  N
  C27      1.0000 0.69950  0.63220  0.35760  Biso   1.000  C
  N20      1.0000 0.80340  0.63440  0.32570  Biso   1.000  N
  C28      1.0000 0.47830  0.72480  0.48160  Biso   1.000  C
  Cd9      1.0000 0.01046  0.12374  0.25000  Biso   1.000  Cd
  Cd10     1.0000 0.98954  0.87626  0.75000  Biso   1.000  Cd
  Cd11     1.0000 0.98954  0.62374  0.25000  Biso   1.000  Cd
  Cd12     1.0000 0.01046  0.37626  0.75000  Biso   1.000  Cd
