data_image0
_cell_length_a       8.695
_cell_length_b       8.548
_cell_length_c       21.092
_cell_angle_alpha    90
_cell_angle_beta     90
_cell_angle_gamma    90

_symmetry_space_group_name_H-M    "P 1"
_symmetry_int_tables_number       1

loop_
  _symmetry_equiv_pos_as_xyz
  'x, y, z'

loop_
  _atom_site_label
  _atom_site_occupancy
  _atom_site_fract_x
  _atom_site_fract_y
  _atom_site_fract_z
  _atom_site_thermal_displace_type
  _atom_site_B_iso_or_equiv
  _atom_site_type_symbol
  Cd1      1.0000 0.00000  0.00000  0.00000  Biso   1.000  Cd
  Cd2      1.0000 0.00000  0.50000  0.50000  Biso   1.000  Cd
  Cd3      1.0000 0.50000  0.00000  0.83520  Biso   1.000  Cd
  Cd4      1.0000 0.50000  0.00000  0.16750  Biso   1.000  Cd
  Cd5      1.0000 0.50000  0.50000  0.33520  Biso   1.000  Cd
  Cd6      1.0000 0.50000  0.50000  0.66750  Biso   1.000  Cd
  C1       1.0000 0.29420  0.00000  0.89260  Biso   1.000  C
  N1       1.0000 0.18950  0.00000  0.92520  Biso   1.000  N
  C2       1.0000 0.17290  0.00000  0.07420  Biso   1.000  C
  N2       1.0000 0.27450  0.00000  0.10820  Biso   1.000  N
  C3       1.0000 0.29420  0.50000  0.39260  Biso   1.000  C
  N3       1.0000 0.18950  0.50000  0.42520  Biso   1.000  N
  C4       1.0000 0.17290  0.50000  0.57420  Biso   1.000  C
  N4       1.0000 0.27450  0.50000  0.60820  Biso   1.000  N
  C5       1.0000 0.70580  0.00000  0.89260  Biso   1.000  C
  N5       1.0000 0.81050  0.00000  0.92520  Biso   1.000  N
  C6       1.0000 0.82710  0.00000  0.07420  Biso   1.000  C
  N6       1.0000 0.72550  0.00000  0.10820  Biso   1.000  N
  C7       1.0000 0.70580  0.50000  0.39260  Biso   1.000  C
  N7       1.0000 0.81050  0.50000  0.42520  Biso   1.000  N
  C8       1.0000 0.82710  0.50000  0.57420  Biso   1.000  C
  N8       1.0000 0.72550  0.50000  0.60820  Biso   1.000  N
  C9       1.0000 0.50000  0.79400  0.77510  Biso   1.000  C
  N9       1.0000 0.50000  0.69620  0.73820  Biso   1.000  N
  C10      1.0000 0.50000  0.29400  0.27510  Biso   1.000  C
  N10      1.0000 0.50000  0.19620  0.23820  Biso   1.000  N
  C11      1.0000 0.50000  0.20600  0.77510  Biso   1.000  C
  N11      1.0000 0.50000  0.30380  0.73820  Biso   1.000  N
  C12      1.0000 0.50000  0.70600  0.27510  Biso   1.000  C
  N12      1.0000 0.50000  0.80380  0.23820  Biso   1.000  N
