data_image0
_cell_length_a       8.6817
_cell_length_b       34.1802
_cell_length_c       8.5822
_cell_angle_alpha    90
_cell_angle_beta     107.6
_cell_angle_gamma    90

_symmetry_space_group_name_H-M    "P 1"
_symmetry_int_tables_number       1

loop_
  _symmetry_equiv_pos_as_xyz
  'x, y, z'

loop_
  _atom_site_label
  _atom_site_occupancy
  _atom_site_fract_x
  _atom_site_fract_y
  _atom_site_fract_z
  _atom_site_thermal_displace_type
  _atom_site_B_iso_or_equiv
  _atom_site_type_symbol
  Cu1      1.0000 0.74834  0.20340  0.47683  Biso   1.000  Cu
  Cu2      1.0000 0.73752  0.04554  0.49820  Biso   1.000  Cu
  O1       1.0000 0.89641  0.15347  0.60861  Biso   1.000  O
  O2       1.0000 0.84718  0.09008  0.62851  Biso   1.000  O
  O3       1.0000 0.62084  0.15997  0.35517  Biso   1.000  O
  O4       1.0000 0.61138  0.09504  0.33491  Biso   1.000  O
  O5       1.0000 0.62296  0.20571  0.63702  Biso   1.000  O
  O6       1.0000 0.58458  0.24812  0.81910  Biso   1.000  O
  O7       1.0000 0.87349  0.24638  0.61066  Biso   1.000  O
  O8       1.0000 0.85708  0.28757  0.80574  Biso   1.000  O
  O9       1.0000 0.90583  0.04100  0.38567  Biso   1.000  O
  O10      1.0000 0.08819  0.00027  0.34173  Biso   1.000  O
  O11      1.0000 0.56868  0.04248  0.61159  Biso   1.000  O
  O12      1.0000 0.37760  0.00027  0.62768  Biso   1.000  O
  C1       1.0000 0.81770  0.12321  0.56090  Biso   1.000  C
  C2       1.0000 0.66950  0.12590  0.40280  Biso   1.000  C
  C3       1.0000 0.80970  0.25870  0.71480  Biso   1.000  C
  C4       1.0000 0.65860  0.23608  0.72750  Biso   1.000  C
  C5       1.0000 0.99980  0.01144  0.42110  Biso   1.000  C
  C6       1.0000 0.48450  0.01237  0.56910  Biso   1.000  C
  Cu3      1.0000 0.25166  0.70340  0.02317  Biso   1.000  Cu
  Cu4      1.0000 0.26248  0.54554  0.00180  Biso   1.000  Cu
  O13      1.0000 0.10359  0.65347  0.89139  Biso   1.000  O
  O14      1.0000 0.15282  0.59008  0.87149  Biso   1.000  O
  O15      1.0000 0.37916  0.65997  0.14483  Biso   1.000  O
  O16      1.0000 0.38862  0.59504  0.16509  Biso   1.000  O
  O17      1.0000 0.37704  0.70571  0.86298  Biso   1.000  O
  O18      1.0000 0.41542  0.74812  0.68090  Biso   1.000  O
  O19      1.0000 0.12651  0.74638  0.88934  Biso   1.000  O
  O20      1.0000 0.14292  0.78757  0.69426  Biso   1.000  O
  O21      1.0000 0.09417  0.54100  0.11433  Biso   1.000  O
  O22      1.0000 0.91181  0.50027  0.15827  Biso   1.000  O
  O23      1.0000 0.43132  0.54248  0.88841  Biso   1.000  O
  O24      1.0000 0.62240  0.50027  0.87232  Biso   1.000  O
  C7       1.0000 0.18230  0.62321  0.93910  Biso   1.000  C
  C8       1.0000 0.33050  0.62590  0.09720  Biso   1.000  C
  C9       1.0000 0.19030  0.75870  0.78520  Biso   1.000  C
  C10      1.0000 0.34140  0.73608  0.77250  Biso   1.000  C
  C11      1.0000 0.00020  0.51144  0.07890  Biso   1.000  C
  C12      1.0000 0.51550  0.51237  0.93090  Biso   1.000  C
  Cu5      1.0000 0.25166  0.79660  0.52317  Biso   1.000  Cu
  Cu6      1.0000 0.26248  0.95446  0.50180  Biso   1.000  Cu
  O25      1.0000 0.10359  0.84653  0.39139  Biso   1.000  O
  O26      1.0000 0.15282  0.90992  0.37149  Biso   1.000  O
  O27      1.0000 0.37916  0.84003  0.64483  Biso   1.000  O
  O28      1.0000 0.38862  0.90496  0.66509  Biso   1.000  O
  O29      1.0000 0.37704  0.79429  0.36298  Biso   1.000  O
  O30      1.0000 0.41542  0.75188  0.18090  Biso   1.000  O
  O31      1.0000 0.12651  0.75362  0.38934  Biso   1.000  O
  O32      1.0000 0.14292  0.71243  0.19426  Biso   1.000  O
  O33      1.0000 0.09417  0.95900  0.61433  Biso   1.000  O
  O34      1.0000 0.91181  0.99973  0.65827  Biso   1.000  O
  O35      1.0000 0.43132  0.95752  0.38841  Biso   1.000  O
  O36      1.0000 0.62240  0.99973  0.37232  Biso   1.000  O
  C13      1.0000 0.18230  0.87679  0.43910  Biso   1.000  C
  C14      1.0000 0.33050  0.87410  0.59720  Biso   1.000  C
  C15      1.0000 0.19030  0.74130  0.28520  Biso   1.000  C
  C16      1.0000 0.34140  0.76392  0.27250  Biso   1.000  C
  C17      1.0000 0.00020  0.98856  0.57890  Biso   1.000  C
  C18      1.0000 0.51550  0.98763  0.43090  Biso   1.000  C
  Cu7      1.0000 0.74834  0.29660  0.97683  Biso   1.000  Cu
  Cu8      1.0000 0.73752  0.45446  0.99820  Biso   1.000  Cu
  O37      1.0000 0.89641  0.34653  0.10861  Biso   1.000  O
  O38      1.0000 0.84718  0.40992  0.12851  Biso   1.000  O
  O39      1.0000 0.62084  0.34003  0.85517  Biso   1.000  O
  O40      1.0000 0.61138  0.40496  0.83491  Biso   1.000  O
  O41      1.0000 0.62296  0.29429  0.13702  Biso   1.000  O
  O42      1.0000 0.58458  0.25188  0.31910  Biso   1.000  O
  O43      1.0000 0.87349  0.25362  0.11066  Biso   1.000  O
  O44      1.0000 0.85708  0.21243  0.30574  Biso   1.000  O
  O45      1.0000 0.90583  0.45900  0.88567  Biso   1.000  O
  O46      1.0000 0.08819  0.49973  0.84173  Biso   1.000  O
  O47      1.0000 0.56868  0.45752  0.11159  Biso   1.000  O
  O48      1.0000 0.37760  0.49973  0.12768  Biso   1.000  O
  C19      1.0000 0.81770  0.37679  0.06090  Biso   1.000  C
  C20      1.0000 0.66950  0.37410  0.90280  Biso   1.000  C
  C21      1.0000 0.80970  0.24130  0.21480  Biso   1.000  C
  C22      1.0000 0.65860  0.26392  0.22750  Biso   1.000  C
  C23      1.0000 0.99980  0.48856  0.92110  Biso   1.000  C
  C24      1.0000 0.48450  0.48763  0.06910  Biso   1.000  C
