data_image0
_cell_length_a       8.7979
_cell_length_b       33.8187
_cell_length_c       8.7622
_cell_angle_alpha    90
_cell_angle_beta     107.854
_cell_angle_gamma    90

_symmetry_space_group_name_H-M    "P 1"
_symmetry_int_tables_number       1

loop_
  _symmetry_equiv_pos_as_xyz
  'x, y, z'

loop_
  _atom_site_label
  _atom_site_occupancy
  _atom_site_fract_x
  _atom_site_fract_y
  _atom_site_fract_z
  _atom_site_thermal_displace_type
  _atom_site_B_iso_or_equiv
  _atom_site_type_symbol
  C1       1.0000 0.81960  0.12383  0.56910  Biso   1.000  C
  C2       1.0000 0.67100  0.12597  0.41610  Biso   1.000  C
  C3       1.0000 0.81580  0.25912  0.73310  Biso   1.000  C
  C4       1.0000 0.66640  0.23720  0.74680  Biso   1.000  C
  C5       1.0000 0.00210  0.01077  0.42200  Biso   1.000  C
  C6       1.0000 0.48710  0.01150  0.57140  Biso   1.000  C
  O1       1.0000 0.88993  0.15510  0.61907  Biso   1.000  O
  O2       1.0000 0.85668  0.09043  0.63020  Biso   1.000  O
  O3       1.0000 0.62021  0.15971  0.36989  Biso   1.000  O
  O4       1.0000 0.61551  0.09432  0.35288  Biso   1.000  O
  O5       1.0000 0.62239  0.20762  0.65579  Biso   1.000  O
  O6       1.0000 0.59900  0.24974  0.84110  Biso   1.000  O
  O7       1.0000 0.87709  0.24610  0.63158  Biso   1.000  O
  O8       1.0000 0.86480  0.28771  0.82334  Biso   1.000  O
  O9       1.0000 0.91023  0.04012  0.38088  Biso   1.000  O
  O10      1.0000 0.09180  0.99826  0.34983  Biso   1.000  O
  O11      1.0000 0.57397  0.04085  0.62043  Biso   1.000  O
  O12      1.0000 0.38157  0.99874  0.62686  Biso   1.000  O
  Cu1      1.0000 0.74942  0.20387  0.49238  Biso   1.000  Cu
  Cu2      1.0000 0.74183  0.04577  0.50107  Biso   1.000  Cu
  C7       1.0000 0.18040  0.62383  0.93090  Biso   1.000  C
  C8       1.0000 0.32900  0.62597  0.08390  Biso   1.000  C
  C9       1.0000 0.18420  0.75912  0.76690  Biso   1.000  C
  C10      1.0000 0.33360  0.73720  0.75320  Biso   1.000  C
  C11      1.0000 0.99790  0.51077  0.07800  Biso   1.000  C
  C12      1.0000 0.51290  0.51150  0.92860  Biso   1.000  C
  O13      1.0000 0.11007  0.65510  0.88093  Biso   1.000  O
  O14      1.0000 0.14332  0.59043  0.86980  Biso   1.000  O
  O15      1.0000 0.37979  0.65971  0.13011  Biso   1.000  O
  O16      1.0000 0.38449  0.59432  0.14712  Biso   1.000  O
  O17      1.0000 0.37761  0.70762  0.84421  Biso   1.000  O
  O18      1.0000 0.40100  0.74974  0.65890  Biso   1.000  O
  O19      1.0000 0.12291  0.74610  0.86842  Biso   1.000  O
  O20      1.0000 0.13520  0.78771  0.67666  Biso   1.000  O
  O21      1.0000 0.08977  0.54012  0.11912  Biso   1.000  O
  O22      1.0000 0.90820  0.49826  0.15017  Biso   1.000  O
  O23      1.0000 0.42603  0.54085  0.87957  Biso   1.000  O
  O24      1.0000 0.61843  0.49874  0.87314  Biso   1.000  O
  Cu3      1.0000 0.25058  0.70387  0.00762  Biso   1.000  Cu
  Cu4      1.0000 0.25817  0.54577  0.99893  Biso   1.000  Cu
  C13      1.0000 0.18040  0.87617  0.43090  Biso   1.000  C
  C14      1.0000 0.32900  0.87403  0.58390  Biso   1.000  C
  C15      1.0000 0.18420  0.74088  0.26690  Biso   1.000  C
  C16      1.0000 0.33360  0.76280  0.25320  Biso   1.000  C
  C17      1.0000 0.99790  0.98923  0.57800  Biso   1.000  C
  C18      1.0000 0.51290  0.98850  0.42860  Biso   1.000  C
  O25      1.0000 0.11007  0.84490  0.38093  Biso   1.000  O
  O26      1.0000 0.14332  0.90957  0.36980  Biso   1.000  O
  O27      1.0000 0.37979  0.84029  0.63011  Biso   1.000  O
  O28      1.0000 0.38449  0.90568  0.64712  Biso   1.000  O
  O29      1.0000 0.37761  0.79238  0.34421  Biso   1.000  O
  O30      1.0000 0.40100  0.75026  0.15890  Biso   1.000  O
  O31      1.0000 0.12291  0.75390  0.36842  Biso   1.000  O
  O32      1.0000 0.13520  0.71229  0.17666  Biso   1.000  O
  O33      1.0000 0.08977  0.95988  0.61912  Biso   1.000  O
  O34      1.0000 0.90820  0.00174  0.65017  Biso   1.000  O
  O35      1.0000 0.42603  0.95915  0.37957  Biso   1.000  O
  O36      1.0000 0.61843  0.00126  0.37314  Biso   1.000  O
  Cu5      1.0000 0.25058  0.79613  0.50762  Biso   1.000  Cu
  Cu6      1.0000 0.25817  0.95423  0.49893  Biso   1.000  Cu
  C19      1.0000 0.81960  0.37617  0.06910  Biso   1.000  C
  C20      1.0000 0.67100  0.37403  0.91610  Biso   1.000  C
  C21      1.0000 0.81580  0.24088  0.23310  Biso   1.000  C
  C22      1.0000 0.66640  0.26280  0.24680  Biso   1.000  C
  C23      1.0000 0.00210  0.48923  0.92200  Biso   1.000  C
  C24      1.0000 0.48710  0.48850  0.07140  Biso   1.000  C
  O37      1.0000 0.88993  0.34490  0.11907  Biso   1.000  O
  O38      1.0000 0.85668  0.40957  0.13020  Biso   1.000  O
  O39      1.0000 0.62021  0.34029  0.86989  Biso   1.000  O
  O40      1.0000 0.61551  0.40568  0.85288  Biso   1.000  O
  O41      1.0000 0.62239  0.29238  0.15579  Biso   1.000  O
  O42      1.0000 0.59900  0.25026  0.34110  Biso   1.000  O
  O43      1.0000 0.87709  0.25390  0.13158  Biso   1.000  O
  O44      1.0000 0.86480  0.21229  0.32334  Biso   1.000  O
  O45      1.0000 0.91023  0.45988  0.88088  Biso   1.000  O
  O46      1.0000 0.09180  0.50174  0.84983  Biso   1.000  O
  O47      1.0000 0.57397  0.45915  0.12043  Biso   1.000  O
  O48      1.0000 0.38157  0.50126  0.12686  Biso   1.000  O
  Cu7      1.0000 0.74942  0.29613  0.99238  Biso   1.000  Cu
  Cu8      1.0000 0.74183  0.45423  0.00107  Biso   1.000  Cu
