data_image0
_cell_length_a       8.8839
_cell_length_b       33.6507
_cell_length_c       8.8737
_cell_angle_alpha    90
_cell_angle_beta     108.061
_cell_angle_gamma    90

_symmetry_space_group_name_H-M    "P 1"
_symmetry_int_tables_number       1

loop_
  _symmetry_equiv_pos_as_xyz
  'x, y, z'

loop_
  _atom_site_label
  _atom_site_occupancy
  _atom_site_fract_x
  _atom_site_fract_y
  _atom_site_fract_z
  _atom_site_thermal_displace_type
  _atom_site_B_iso_or_equiv
  _atom_site_type_symbol
  Cu1      1.0000 0.74130  0.20440  0.50962  Biso   1.000  Cu
  Cu2      1.0000 0.74332  0.04543  0.50405  Biso   1.000  Cu
  O1       1.0000 0.87963  0.15559  0.63219  Biso   1.000  O
  O2       1.0000 0.85803  0.09038  0.63416  Biso   1.000  O
  O3       1.0000 0.61330  0.15974  0.38692  Biso   1.000  O
  O4       1.0000 0.61590  0.09448  0.36300  Biso   1.000  O
  O5       1.0000 0.61354  0.20848  0.67168  Biso   1.000  O
  O6       1.0000 0.59520  0.24936  0.85920  Biso   1.000  O
  O7       1.0000 0.86850  0.24638  0.65190  Biso   1.000  O
  O8       1.0000 0.85960  0.28712  0.84460  Biso   1.000  O
  O9       1.0000 0.90990  0.04002  0.38242  Biso   1.000  O
  O10      1.0000 0.09080  0.99851  0.35260  Biso   1.000  O
  O11      1.0000 0.57880  0.03951  0.62526  Biso   1.000  O
  O12      1.0000 0.38380  0.99843  0.62520  Biso   1.000  O
  C1       1.0000 0.81560  0.12405  0.57880  Biso   1.000  C
  C2       1.0000 0.66740  0.12612  0.42840  Biso   1.000  C
  C3       1.0000 0.81020  0.25913  0.75220  Biso   1.000  C
  C4       1.0000 0.66000  0.23736  0.76360  Biso   1.000  C
  C5       1.0000 0.00140  0.01091  0.42350  Biso   1.000  C
  C6       1.0000 0.48940  0.01116  0.57220  Biso   1.000  C
  Cu3      1.0000 0.25870  0.70440  0.99038  Biso   1.000  Cu
  Cu4      1.0000 0.25668  0.54543  0.99595  Biso   1.000  Cu
  O13      1.0000 0.12037  0.65559  0.86781  Biso   1.000  O
  O14      1.0000 0.14197  0.59038  0.86584  Biso   1.000  O
  O15      1.0000 0.38670  0.65974  0.11308  Biso   1.000  O
  O16      1.0000 0.38410  0.59448  0.13700  Biso   1.000  O
  O17      1.0000 0.38646  0.70848  0.82832  Biso   1.000  O
  O18      1.0000 0.40480  0.74936  0.64080  Biso   1.000  O
  O19      1.0000 0.13150  0.74638  0.84810  Biso   1.000  O
  O20      1.0000 0.14040  0.78712  0.65540  Biso   1.000  O
  O21      1.0000 0.09010  0.54002  0.11758  Biso   1.000  O
  O22      1.0000 0.90920  0.49851  0.14740  Biso   1.000  O
  O23      1.0000 0.42120  0.53951  0.87474  Biso   1.000  O
  O24      1.0000 0.61620  0.49843  0.87480  Biso   1.000  O
  C7       1.0000 0.18440  0.62405  0.92120  Biso   1.000  C
  C8       1.0000 0.33260  0.62612  0.07160  Biso   1.000  C
  C9       1.0000 0.18980  0.75913  0.74780  Biso   1.000  C
  C10      1.0000 0.34000  0.73736  0.73640  Biso   1.000  C
  C11      1.0000 0.99860  0.51091  0.07650  Biso   1.000  C
  C12      1.0000 0.51060  0.51116  0.92780  Biso   1.000  C
  Cu5      1.0000 0.25870  0.79560  0.49038  Biso   1.000  Cu
  Cu6      1.0000 0.25668  0.95457  0.49595  Biso   1.000  Cu
  O25      1.0000 0.12037  0.84441  0.36781  Biso   1.000  O
  O26      1.0000 0.14197  0.90962  0.36584  Biso   1.000  O
  O27      1.0000 0.38670  0.84026  0.61308  Biso   1.000  O
  O28      1.0000 0.38410  0.90552  0.63700  Biso   1.000  O
  O29      1.0000 0.38646  0.79152  0.32832  Biso   1.000  O
  O30      1.0000 0.40480  0.75064  0.14080  Biso   1.000  O
  O31      1.0000 0.13150  0.75362  0.34810  Biso   1.000  O
  O32      1.0000 0.14040  0.71288  0.15540  Biso   1.000  O
  O33      1.0000 0.09010  0.95998  0.61758  Biso   1.000  O
  O34      1.0000 0.90920  0.00149  0.64740  Biso   1.000  O
  O35      1.0000 0.42120  0.96049  0.37474  Biso   1.000  O
  O36      1.0000 0.61620  0.00157  0.37480  Biso   1.000  O
  C13      1.0000 0.18440  0.87595  0.42120  Biso   1.000  C
  C14      1.0000 0.33260  0.87388  0.57160  Biso   1.000  C
  C15      1.0000 0.18980  0.74087  0.24780  Biso   1.000  C
  C16      1.0000 0.34000  0.76264  0.23640  Biso   1.000  C
  C17      1.0000 0.99860  0.98909  0.57650  Biso   1.000  C
  C18      1.0000 0.51060  0.98884  0.42780  Biso   1.000  C
  Cu7      1.0000 0.74130  0.29560  0.00962  Biso   1.000  Cu
  Cu8      1.0000 0.74332  0.45457  0.00405  Biso   1.000  Cu
  O37      1.0000 0.87963  0.34441  0.13219  Biso   1.000  O
  O38      1.0000 0.85803  0.40962  0.13416  Biso   1.000  O
  O39      1.0000 0.61330  0.34026  0.88692  Biso   1.000  O
  O40      1.0000 0.61590  0.40552  0.86300  Biso   1.000  O
  O41      1.0000 0.61354  0.29152  0.17168  Biso   1.000  O
  O42      1.0000 0.59520  0.25064  0.35920  Biso   1.000  O
  O43      1.0000 0.86850  0.25362  0.15190  Biso   1.000  O
  O44      1.0000 0.85960  0.21288  0.34460  Biso   1.000  O
  O45      1.0000 0.90990  0.45998  0.88242  Biso   1.000  O
  O46      1.0000 0.09080  0.50149  0.85260  Biso   1.000  O
  O47      1.0000 0.57880  0.46049  0.12526  Biso   1.000  O
  O48      1.0000 0.38380  0.50157  0.12520  Biso   1.000  O
  C19      1.0000 0.81560  0.37595  0.07880  Biso   1.000  C
  C20      1.0000 0.66740  0.37388  0.92840  Biso   1.000  C
  C21      1.0000 0.81020  0.24087  0.25220  Biso   1.000  C
  C22      1.0000 0.66000  0.26264  0.26360  Biso   1.000  C
  C23      1.0000 0.00140  0.48909  0.92350  Biso   1.000  C
  C24      1.0000 0.48940  0.48884  0.07220  Biso   1.000  C
