data_image0
_cell_length_a       8.7734
_cell_length_b       33.8944
_cell_length_c       8.7281
_cell_angle_alpha    90
_cell_angle_beta     107.797
_cell_angle_gamma    90

_symmetry_space_group_name_H-M    "P 1"
_symmetry_int_tables_number       1

loop_
  _symmetry_equiv_pos_as_xyz
  'x, y, z'

loop_
  _atom_site_label
  _atom_site_occupancy
  _atom_site_fract_x
  _atom_site_fract_y
  _atom_site_fract_z
  _atom_site_thermal_displace_type
  _atom_site_B_iso_or_equiv
  _atom_site_type_symbol
  Cu1      1.0000 0.75056  0.20372  0.48856  Biso   1.000  Cu
  Cu2      1.0000 0.74113  0.04579  0.50020  Biso   1.000  Cu
  O1       1.0000 0.89244  0.15477  0.61621  Biso   1.000  O
  O2       1.0000 0.85556  0.09036  0.62930  Biso   1.000  O
  O3       1.0000 0.62154  0.15983  0.36632  Biso   1.000  O
  O4       1.0000 0.61490  0.09454  0.34932  Biso   1.000  O
  O5       1.0000 0.62403  0.20725  0.65175  Biso   1.000  O
  O6       1.0000 0.59784  0.24939  0.83652  Biso   1.000  O
  O7       1.0000 0.87777  0.24605  0.62641  Biso   1.000  O
  O8       1.0000 0.86507  0.28762  0.81910  Biso   1.000  O
  O9       1.0000 0.90992  0.04026  0.38102  Biso   1.000  O
  O10      1.0000 0.09150  0.99841  0.34870  Biso   1.000  O
  O11      1.0000 0.57251  0.04115  0.61871  Biso   1.000  O
  O12      1.0000 0.38116  0.99889  0.62720  Biso   1.000  O
  C1       1.0000 0.82020  0.12374  0.56670  Biso   1.000  C
  C2       1.0000 0.67140  0.12590  0.41310  Biso   1.000  C
  C3       1.0000 0.81630  0.25898  0.72900  Biso   1.000  C
  C4       1.0000 0.66620  0.23696  0.74240  Biso   1.000  C
  C5       1.0000 0.00190  0.01076  0.42170  Biso   1.000  C
  C6       1.0000 0.48660  0.01163  0.57130  Biso   1.000  C
  Cu3      1.0000 0.24944  0.70372  0.01144  Biso   1.000  Cu
  Cu4      1.0000 0.25887  0.54579  0.99980  Biso   1.000  Cu
  O13      1.0000 0.10756  0.65477  0.88379  Biso   1.000  O
  O14      1.0000 0.14444  0.59036  0.87070  Biso   1.000  O
  O15      1.0000 0.37846  0.65983  0.13368  Biso   1.000  O
  O16      1.0000 0.38510  0.59454  0.15068  Biso   1.000  O
  O17      1.0000 0.37597  0.70725  0.84825  Biso   1.000  O
  O18      1.0000 0.40216  0.74939  0.66348  Biso   1.000  O
  O19      1.0000 0.12223  0.74605  0.87359  Biso   1.000  O
  O20      1.0000 0.13493  0.78762  0.68090  Biso   1.000  O
  O21      1.0000 0.09008  0.54026  0.11898  Biso   1.000  O
  O22      1.0000 0.90850  0.49841  0.15130  Biso   1.000  O
  O23      1.0000 0.42749  0.54115  0.88129  Biso   1.000  O
  O24      1.0000 0.61884  0.49889  0.87280  Biso   1.000  O
  C7       1.0000 0.17980  0.62374  0.93330  Biso   1.000  C
  C8       1.0000 0.32860  0.62590  0.08690  Biso   1.000  C
  C9       1.0000 0.18370  0.75898  0.77100  Biso   1.000  C
  C10      1.0000 0.33380  0.73696  0.75760  Biso   1.000  C
  C11      1.0000 0.99810  0.51076  0.07830  Biso   1.000  C
  C12      1.0000 0.51340  0.51163  0.92870  Biso   1.000  C
  Cu5      1.0000 0.24944  0.79628  0.51144  Biso   1.000  Cu
  Cu6      1.0000 0.25887  0.95421  0.49980  Biso   1.000  Cu
  O25      1.0000 0.10756  0.84523  0.38379  Biso   1.000  O
  O26      1.0000 0.14444  0.90964  0.37070  Biso   1.000  O
  O27      1.0000 0.37846  0.84017  0.63368  Biso   1.000  O
  O28      1.0000 0.38510  0.90546  0.65068  Biso   1.000  O
  O29      1.0000 0.37597  0.79275  0.34825  Biso   1.000  O
  O30      1.0000 0.40216  0.75061  0.16348  Biso   1.000  O
  O31      1.0000 0.12223  0.75395  0.37359  Biso   1.000  O
  O32      1.0000 0.13493  0.71238  0.18090  Biso   1.000  O
  O33      1.0000 0.09008  0.95974  0.61898  Biso   1.000  O
  O34      1.0000 0.90850  0.00159  0.65130  Biso   1.000  O
  O35      1.0000 0.42749  0.95885  0.38129  Biso   1.000  O
  O36      1.0000 0.61884  0.00111  0.37280  Biso   1.000  O
  C13      1.0000 0.17980  0.87626  0.43330  Biso   1.000  C
  C14      1.0000 0.32860  0.87410  0.58690  Biso   1.000  C
  C15      1.0000 0.18370  0.74102  0.27100  Biso   1.000  C
  C16      1.0000 0.33380  0.76304  0.25760  Biso   1.000  C
  C17      1.0000 0.99810  0.98924  0.57830  Biso   1.000  C
  C18      1.0000 0.51340  0.98837  0.42870  Biso   1.000  C
  Cu7      1.0000 0.75056  0.29628  0.98856  Biso   1.000  Cu
  Cu8      1.0000 0.74113  0.45421  0.00020  Biso   1.000  Cu
  O37      1.0000 0.89244  0.34523  0.11621  Biso   1.000  O
  O38      1.0000 0.85556  0.40964  0.12930  Biso   1.000  O
  O39      1.0000 0.62154  0.34017  0.86632  Biso   1.000  O
  O40      1.0000 0.61490  0.40546  0.84932  Biso   1.000  O
  O41      1.0000 0.62403  0.29275  0.15175  Biso   1.000  O
  O42      1.0000 0.59784  0.25061  0.33652  Biso   1.000  O
  O43      1.0000 0.87777  0.25395  0.12641  Biso   1.000  O
  O44      1.0000 0.86507  0.21238  0.31910  Biso   1.000  O
  O45      1.0000 0.90992  0.45974  0.88102  Biso   1.000  O
  O46      1.0000 0.09150  0.50159  0.84870  Biso   1.000  O
  O47      1.0000 0.57251  0.45885  0.11871  Biso   1.000  O
  O48      1.0000 0.38116  0.50111  0.12720  Biso   1.000  O
  C19      1.0000 0.82020  0.37626  0.06670  Biso   1.000  C
  C20      1.0000 0.67140  0.37410  0.91310  Biso   1.000  C
  C21      1.0000 0.81630  0.24102  0.22900  Biso   1.000  C
  C22      1.0000 0.66620  0.26304  0.24240  Biso   1.000  C
  C23      1.0000 0.00190  0.48924  0.92170  Biso   1.000  C
  C24      1.0000 0.48660  0.48837  0.07130  Biso   1.000  C
