data_image0
_cell_length_a       8.7156
_cell_length_b       34.0813
_cell_length_c       8.636
_cell_angle_alpha    90
_cell_angle_beta     107.632
_cell_angle_gamma    90

_symmetry_space_group_name_H-M    "P 1"
_symmetry_int_tables_number       1

loop_
  _symmetry_equiv_pos_as_xyz
  'x, y, z'

loop_
  _atom_site_label
  _atom_site_occupancy
  _atom_site_fract_x
  _atom_site_fract_y
  _atom_site_fract_z
  _atom_site_thermal_displace_type
  _atom_site_B_iso_or_equiv
  _atom_site_type_symbol
  Cu1      1.0000 0.74952  0.20351  0.48286  Biso   1.000  Cu
  Cu2      1.0000 0.73861  0.04560  0.49862  Biso   1.000  Cu
  O1       1.0000 0.89528  0.15372  0.61220  Biso   1.000  O
  O2       1.0000 0.85003  0.09002  0.62842  Biso   1.000  O
  O3       1.0000 0.62165  0.16008  0.36071  Biso   1.000  O
  O4       1.0000 0.61223  0.09511  0.34025  Biso   1.000  O
  O5       1.0000 0.62390  0.20612  0.64442  Biso   1.000  O
  O6       1.0000 0.58957  0.24832  0.82735  Biso   1.000  O
  O7       1.0000 0.87540  0.24614  0.61814  Biso   1.000  O
  O8       1.0000 0.86021  0.28750  0.81239  Biso   1.000  O
  O9       1.0000 0.90653  0.04066  0.38404  Biso   1.000  O
  O10      1.0000 0.08904  0.99978  0.34408  Biso   1.000  O
  O11      1.0000 0.57037  0.04196  0.61398  Biso   1.000  O
  O12      1.0000 0.37925  0.99976  0.62780  Biso   1.000  O
  C1       1.0000 0.81870  0.12330  0.56350  Biso   1.000  C
  C2       1.0000 0.66990  0.12599  0.40720  Biso   1.000  C
  C3       1.0000 0.81220  0.25866  0.72180  Biso   1.000  C
  C4       1.0000 0.66200  0.23634  0.73470  Biso   1.000  C
  C5       1.0000 0.00060  0.01127  0.42130  Biso   1.000  C
  C6       1.0000 0.48510  0.01209  0.56990  Biso   1.000  C
  Cu3      1.0000 0.25048  0.70351  0.01714  Biso   1.000  Cu
  Cu4      1.0000 0.26139  0.54560  0.00138  Biso   1.000  Cu
  O13      1.0000 0.10472  0.65372  0.88780  Biso   1.000  O
  O14      1.0000 0.14997  0.59002  0.87158  Biso   1.000  O
  O15      1.0000 0.37835  0.66008  0.13929  Biso   1.000  O
  O16      1.0000 0.38777  0.59511  0.15975  Biso   1.000  O
  O17      1.0000 0.37610  0.70612  0.85558  Biso   1.000  O
  O18      1.0000 0.41043  0.74832  0.67265  Biso   1.000  O
  O19      1.0000 0.12460  0.74614  0.88186  Biso   1.000  O
  O20      1.0000 0.13979  0.78750  0.68761  Biso   1.000  O
  O21      1.0000 0.09347  0.54066  0.11596  Biso   1.000  O
  O22      1.0000 0.91096  0.49978  0.15592  Biso   1.000  O
  O23      1.0000 0.42963  0.54196  0.88602  Biso   1.000  O
  O24      1.0000 0.62075  0.49976  0.87220  Biso   1.000  O
  C7       1.0000 0.18130  0.62330  0.93650  Biso   1.000  C
  C8       1.0000 0.33010  0.62599  0.09280  Biso   1.000  C
  C9       1.0000 0.18780  0.75866  0.77820  Biso   1.000  C
  C10      1.0000 0.33800  0.73634  0.76530  Biso   1.000  C
  C11      1.0000 0.99940  0.51127  0.07870  Biso   1.000  C
  C12      1.0000 0.51490  0.51209  0.93010  Biso   1.000  C
  Cu5      1.0000 0.25048  0.79649  0.51714  Biso   1.000  Cu
  Cu6      1.0000 0.26139  0.95440  0.50138  Biso   1.000  Cu
  O25      1.0000 0.10472  0.84628  0.38780  Biso   1.000  O
  O26      1.0000 0.14997  0.90998  0.37158  Biso   1.000  O
  O27      1.0000 0.37835  0.83992  0.63929  Biso   1.000  O
  O28      1.0000 0.38777  0.90489  0.65975  Biso   1.000  O
  O29      1.0000 0.37610  0.79388  0.35558  Biso   1.000  O
  O30      1.0000 0.41043  0.75168  0.17265  Biso   1.000  O
  O31      1.0000 0.12460  0.75386  0.38186  Biso   1.000  O
  O32      1.0000 0.13979  0.71250  0.18761  Biso   1.000  O
  O33      1.0000 0.09347  0.95934  0.61596  Biso   1.000  O
  O34      1.0000 0.91096  0.00022  0.65592  Biso   1.000  O
  O35      1.0000 0.42963  0.95804  0.38602  Biso   1.000  O
  O36      1.0000 0.62075  0.00024  0.37220  Biso   1.000  O
  C13      1.0000 0.18130  0.87670  0.43650  Biso   1.000  C
  C14      1.0000 0.33010  0.87401  0.59280  Biso   1.000  C
  C15      1.0000 0.18780  0.74134  0.27820  Biso   1.000  C
  C16      1.0000 0.33800  0.76366  0.26530  Biso   1.000  C
  C17      1.0000 0.99940  0.98873  0.57870  Biso   1.000  C
  C18      1.0000 0.51490  0.98791  0.43010  Biso   1.000  C
  Cu7      1.0000 0.74952  0.29649  0.98286  Biso   1.000  Cu
  Cu8      1.0000 0.73861  0.45440  0.99862  Biso   1.000  Cu
  O37      1.0000 0.89528  0.34628  0.11220  Biso   1.000  O
  O38      1.0000 0.85003  0.40998  0.12842  Biso   1.000  O
  O39      1.0000 0.62165  0.33992  0.86071  Biso   1.000  O
  O40      1.0000 0.61223  0.40489  0.84025  Biso   1.000  O
  O41      1.0000 0.62390  0.29388  0.14442  Biso   1.000  O
  O42      1.0000 0.58957  0.25168  0.32735  Biso   1.000  O
  O43      1.0000 0.87540  0.25386  0.11814  Biso   1.000  O
  O44      1.0000 0.86021  0.21250  0.31239  Biso   1.000  O
  O45      1.0000 0.90653  0.45934  0.88404  Biso   1.000  O
  O46      1.0000 0.08904  0.50022  0.84408  Biso   1.000  O
  O47      1.0000 0.57037  0.45804  0.11398  Biso   1.000  O
  O48      1.0000 0.37925  0.50024  0.12780  Biso   1.000  O
  C19      1.0000 0.81870  0.37670  0.06350  Biso   1.000  C
  C20      1.0000 0.66990  0.37401  0.90720  Biso   1.000  C
  C21      1.0000 0.81220  0.24134  0.22180  Biso   1.000  C
  C22      1.0000 0.66200  0.26366  0.23470  Biso   1.000  C
  C23      1.0000 0.00060  0.48873  0.92130  Biso   1.000  C
  C24      1.0000 0.48510  0.48791  0.06990  Biso   1.000  C
