data_image0
_cell_length_a       8.6987
_cell_length_b       34.1408
_cell_length_c       8.6081
_cell_angle_alpha    90
_cell_angle_beta     107.578
_cell_angle_gamma    90

_symmetry_space_group_name_H-M    "P 1"
_symmetry_int_tables_number       1

loop_
  _symmetry_equiv_pos_as_xyz
  'x, y, z'

loop_
  _atom_site_label
  _atom_site_occupancy
  _atom_site_fract_x
  _atom_site_fract_y
  _atom_site_fract_z
  _atom_site_thermal_displace_type
  _atom_site_B_iso_or_equiv
  _atom_site_type_symbol
  Cu1      1.0000 0.74864  0.20347  0.48079  Biso   1.000  Cu
  Cu2      1.0000 0.73786  0.04553  0.49831  Biso   1.000  Cu
  O1       1.0000 0.89569  0.15350  0.61058  Biso   1.000  O
  O2       1.0000 0.84819  0.08994  0.62824  Biso   1.000  O
  O3       1.0000 0.62075  0.16010  0.35884  Biso   1.000  O
  O4       1.0000 0.61146  0.09515  0.33749  Biso   1.000  O
  O5       1.0000 0.62359  0.20582  0.64187  Biso   1.000  O
  O6       1.0000 0.58668  0.24811  0.82436  Biso   1.000  O
  O7       1.0000 0.87411  0.24625  0.61525  Biso   1.000  O
  O8       1.0000 0.85792  0.28752  0.80976  Biso   1.000  O
  O9       1.0000 0.90586  0.04080  0.38504  Biso   1.000  O
  O10      1.0000 0.08850  0.00016  0.34263  Biso   1.000  O
  O11      1.0000 0.56970  0.04222  0.61270  Biso   1.000  O
  O12      1.0000 0.37848  0.00003  0.62780  Biso   1.000  O
  C1       1.0000 0.81780  0.12323  0.56220  Biso   1.000  C
  C2       1.0000 0.66950  0.12595  0.40530  Biso   1.000  C
  C3       1.0000 0.81040  0.25863  0.71930  Biso   1.000  C
  C4       1.0000 0.65990  0.23615  0.73230  Biso   1.000  C
  C5       1.0000 0.99990  0.01136  0.42120  Biso   1.000  C
  C6       1.0000 0.48500  0.01226  0.56950  Biso   1.000  C
  Cu3      1.0000 0.25136  0.70347  0.01921  Biso   1.000  Cu
  Cu4      1.0000 0.26214  0.54553  0.00169  Biso   1.000  Cu
  O13      1.0000 0.10431  0.65350  0.88942  Biso   1.000  O
  O14      1.0000 0.15181  0.58994  0.87176  Biso   1.000  O
  O15      1.0000 0.37925  0.66010  0.14116  Biso   1.000  O
  O16      1.0000 0.38854  0.59515  0.16251  Biso   1.000  O
  O17      1.0000 0.37641  0.70582  0.85813  Biso   1.000  O
  O18      1.0000 0.41332  0.74811  0.67564  Biso   1.000  O
  O19      1.0000 0.12589  0.74625  0.88475  Biso   1.000  O
  O20      1.0000 0.14208  0.78752  0.69024  Biso   1.000  O
  O21      1.0000 0.09414  0.54080  0.11496  Biso   1.000  O
  O22      1.0000 0.91150  0.50016  0.15737  Biso   1.000  O
  O23      1.0000 0.43030  0.54222  0.88730  Biso   1.000  O
  O24      1.0000 0.62152  0.50003  0.87220  Biso   1.000  O
  C7       1.0000 0.18220  0.62323  0.93780  Biso   1.000  C
  C8       1.0000 0.33050  0.62595  0.09470  Biso   1.000  C
  C9       1.0000 0.18960  0.75863  0.78070  Biso   1.000  C
  C10      1.0000 0.34010  0.73615  0.76770  Biso   1.000  C
  C11      1.0000 0.00010  0.51136  0.07880  Biso   1.000  C
  C12      1.0000 0.51500  0.51226  0.93050  Biso   1.000  C
  Cu5      1.0000 0.25136  0.79653  0.51921  Biso   1.000  Cu
  Cu6      1.0000 0.26214  0.95447  0.50169  Biso   1.000  Cu
  O25      1.0000 0.10431  0.84650  0.38942  Biso   1.000  O
  O26      1.0000 0.15181  0.91006  0.37176  Biso   1.000  O
  O27      1.0000 0.37925  0.83990  0.64116  Biso   1.000  O
  O28      1.0000 0.38854  0.90485  0.66251  Biso   1.000  O
  O29      1.0000 0.37641  0.79418  0.35813  Biso   1.000  O
  O30      1.0000 0.41332  0.75189  0.17564  Biso   1.000  O
  O31      1.0000 0.12589  0.75375  0.38475  Biso   1.000  O
  O32      1.0000 0.14208  0.71248  0.19024  Biso   1.000  O
  O33      1.0000 0.09414  0.95920  0.61496  Biso   1.000  O
  O34      1.0000 0.91150  0.99984  0.65737  Biso   1.000  O
  O35      1.0000 0.43030  0.95778  0.38730  Biso   1.000  O
  O36      1.0000 0.62152  0.99997  0.37220  Biso   1.000  O
  C13      1.0000 0.18220  0.87677  0.43780  Biso   1.000  C
  C14      1.0000 0.33050  0.87405  0.59470  Biso   1.000  C
  C15      1.0000 0.18960  0.74137  0.28070  Biso   1.000  C
  C16      1.0000 0.34010  0.76385  0.26770  Biso   1.000  C
  C17      1.0000 0.00010  0.98864  0.57880  Biso   1.000  C
  C18      1.0000 0.51500  0.98774  0.43050  Biso   1.000  C
  Cu7      1.0000 0.74864  0.29653  0.98079  Biso   1.000  Cu
  Cu8      1.0000 0.73786  0.45447  0.99831  Biso   1.000  Cu
  O37      1.0000 0.89569  0.34650  0.11058  Biso   1.000  O
  O38      1.0000 0.84819  0.41006  0.12824  Biso   1.000  O
  O39      1.0000 0.62075  0.33990  0.85884  Biso   1.000  O
  O40      1.0000 0.61146  0.40485  0.83749  Biso   1.000  O
  O41      1.0000 0.62359  0.29418  0.14187  Biso   1.000  O
  O42      1.0000 0.58668  0.25189  0.32436  Biso   1.000  O
  O43      1.0000 0.87411  0.25375  0.11525  Biso   1.000  O
  O44      1.0000 0.85792  0.21248  0.30976  Biso   1.000  O
  O45      1.0000 0.90586  0.45920  0.88504  Biso   1.000  O
  O46      1.0000 0.08850  0.49984  0.84263  Biso   1.000  O
  O47      1.0000 0.56970  0.45778  0.11270  Biso   1.000  O
  O48      1.0000 0.37848  0.49997  0.12780  Biso   1.000  O
  C19      1.0000 0.81780  0.37677  0.06220  Biso   1.000  C
  C20      1.0000 0.66950  0.37405  0.90530  Biso   1.000  C
  C21      1.0000 0.81040  0.24137  0.21930  Biso   1.000  C
  C22      1.0000 0.65990  0.26385  0.23230  Biso   1.000  C
  C23      1.0000 0.99990  0.48864  0.92120  Biso   1.000  C
  C24      1.0000 0.48500  0.48774  0.06950  Biso   1.000  C
