data_image0
_cell_length_a       8.7407
_cell_length_b       33.9886
_cell_length_c       8.6771
_cell_angle_alpha    90
_cell_angle_beta     107.725
_cell_angle_gamma    90

_symmetry_space_group_name_H-M    "P 1"
_symmetry_int_tables_number       1

loop_
  _symmetry_equiv_pos_as_xyz
  'x, y, z'

loop_
  _atom_site_label
  _atom_site_occupancy
  _atom_site_fract_x
  _atom_site_fract_y
  _atom_site_fract_z
  _atom_site_thermal_displace_type
  _atom_site_B_iso_or_equiv
  _atom_site_type_symbol
  Cu1      1.0000 0.75056  0.20358  0.48505  Biso   1.000  Cu
  Cu2      1.0000 0.73980  0.04573  0.49924  Biso   1.000  Cu
  O1       1.0000 0.89473  0.15418  0.61385  Biso   1.000  O
  O2       1.0000 0.85291  0.09015  0.62873  Biso   1.000  O
  O3       1.0000 0.62214  0.15999  0.36275  Biso   1.000  O
  O4       1.0000 0.61336  0.09483  0.34455  Biso   1.000  O
  O5       1.0000 0.62455  0.20662  0.64769  Biso   1.000  O
  O6       1.0000 0.59390  0.24887  0.83124  Biso   1.000  O
  O7       1.0000 0.87701  0.24604  0.62147  Biso   1.000  O
  O8       1.0000 0.86306  0.28760  0.81487  Biso   1.000  O
  O9       1.0000 0.90824  0.04043  0.38239  Biso   1.000  O
  O10      1.0000 0.09030  0.99898  0.34643  Biso   1.000  O
  O11      1.0000 0.57119  0.04163  0.61623  Biso   1.000  O
  O12      1.0000 0.38003  0.99931  0.62748  Biso   1.000  O
  C1       1.0000 0.81980  0.12349  0.56470  Biso   1.000  C
  C2       1.0000 0.67110  0.12601  0.40970  Biso   1.000  C
  C3       1.0000 0.81470  0.25886  0.72450  Biso   1.000  C
  C4       1.0000 0.66440  0.23658  0.73810  Biso   1.000  C
  C5       1.0000 0.00090  0.01105  0.42160  Biso   1.000  C
  C6       1.0000 0.48560  0.01185  0.57060  Biso   1.000  C
  Cu3      1.0000 0.24944  0.70358  0.01495  Biso   1.000  Cu
  Cu4      1.0000 0.26020  0.54573  0.00076  Biso   1.000  Cu
  O13      1.0000 0.10527  0.65418  0.88615  Biso   1.000  O
  O14      1.0000 0.14709  0.59015  0.87127  Biso   1.000  O
  O15      1.0000 0.37786  0.65999  0.13725  Biso   1.000  O
  O16      1.0000 0.38664  0.59483  0.15545  Biso   1.000  O
  O17      1.0000 0.37545  0.70662  0.85231  Biso   1.000  O
  O18      1.0000 0.40610  0.74887  0.66876  Biso   1.000  O
  O19      1.0000 0.12299  0.74604  0.87853  Biso   1.000  O
  O20      1.0000 0.13694  0.78760  0.68513  Biso   1.000  O
  O21      1.0000 0.09176  0.54043  0.11761  Biso   1.000  O
  O22      1.0000 0.90970  0.49898  0.15357  Biso   1.000  O
  O23      1.0000 0.42881  0.54163  0.88377  Biso   1.000  O
  O24      1.0000 0.61997  0.49931  0.87252  Biso   1.000  O
  C7       1.0000 0.18020  0.62349  0.93530  Biso   1.000  C
  C8       1.0000 0.32890  0.62601  0.09030  Biso   1.000  C
  C9       1.0000 0.18530  0.75886  0.77550  Biso   1.000  C
  C10      1.0000 0.33560  0.73658  0.76190  Biso   1.000  C
  C11      1.0000 0.99910  0.51105  0.07840  Biso   1.000  C
  C12      1.0000 0.51440  0.51185  0.92940  Biso   1.000  C
  Cu5      1.0000 0.24944  0.79642  0.51495  Biso   1.000  Cu
  Cu6      1.0000 0.26020  0.95427  0.50076  Biso   1.000  Cu
  O25      1.0000 0.10527  0.84582  0.38615  Biso   1.000  O
  O26      1.0000 0.14709  0.90985  0.37127  Biso   1.000  O
  O27      1.0000 0.37786  0.84001  0.63725  Biso   1.000  O
  O28      1.0000 0.38664  0.90517  0.65545  Biso   1.000  O
  O29      1.0000 0.37545  0.79338  0.35231  Biso   1.000  O
  O30      1.0000 0.40610  0.75113  0.16876  Biso   1.000  O
  O31      1.0000 0.12299  0.75396  0.37853  Biso   1.000  O
  O32      1.0000 0.13694  0.71240  0.18513  Biso   1.000  O
  O33      1.0000 0.09176  0.95957  0.61761  Biso   1.000  O
  O34      1.0000 0.90970  0.00102  0.65357  Biso   1.000  O
  O35      1.0000 0.42881  0.95837  0.38377  Biso   1.000  O
  O36      1.0000 0.61997  0.00069  0.37252  Biso   1.000  O
  C13      1.0000 0.18020  0.87651  0.43530  Biso   1.000  C
  C14      1.0000 0.32890  0.87399  0.59030  Biso   1.000  C
  C15      1.0000 0.18530  0.74114  0.27550  Biso   1.000  C
  C16      1.0000 0.33560  0.76342  0.26190  Biso   1.000  C
  C17      1.0000 0.99910  0.98895  0.57840  Biso   1.000  C
  C18      1.0000 0.51440  0.98815  0.42940  Biso   1.000  C
  Cu7      1.0000 0.75056  0.29642  0.98505  Biso   1.000  Cu
  Cu8      1.0000 0.73980  0.45427  0.99924  Biso   1.000  Cu
  O37      1.0000 0.89473  0.34582  0.11385  Biso   1.000  O
  O38      1.0000 0.85291  0.40985  0.12873  Biso   1.000  O
  O39      1.0000 0.62214  0.34001  0.86275  Biso   1.000  O
  O40      1.0000 0.61336  0.40517  0.84455  Biso   1.000  O
  O41      1.0000 0.62455  0.29338  0.14769  Biso   1.000  O
  O42      1.0000 0.59390  0.25113  0.33124  Biso   1.000  O
  O43      1.0000 0.87701  0.25396  0.12147  Biso   1.000  O
  O44      1.0000 0.86306  0.21240  0.31487  Biso   1.000  O
  O45      1.0000 0.90824  0.45957  0.88239  Biso   1.000  O
  O46      1.0000 0.09030  0.50102  0.84643  Biso   1.000  O
  O47      1.0000 0.57119  0.45837  0.11623  Biso   1.000  O
  O48      1.0000 0.38003  0.50069  0.12748  Biso   1.000  O
  C19      1.0000 0.81980  0.37651  0.06470  Biso   1.000  C
  C20      1.0000 0.67110  0.37399  0.90970  Biso   1.000  C
  C21      1.0000 0.81470  0.24114  0.22450  Biso   1.000  C
  C22      1.0000 0.66440  0.26342  0.23810  Biso   1.000  C
  C23      1.0000 0.00090  0.48895  0.92160  Biso   1.000  C
  C24      1.0000 0.48560  0.48815  0.07060  Biso   1.000  C
