data_image0
_cell_length_a       8.7259
_cell_length_b       34.0441
_cell_length_c       8.6527
_cell_angle_alpha    90
_cell_angle_beta     107.669
_cell_angle_gamma    90

_symmetry_space_group_name_H-M    "P 1"
_symmetry_int_tables_number       1

loop_
  _symmetry_equiv_pos_as_xyz
  'x, y, z'

loop_
  _atom_site_label
  _atom_site_occupancy
  _atom_site_fract_x
  _atom_site_fract_y
  _atom_site_fract_z
  _atom_site_thermal_displace_type
  _atom_site_B_iso_or_equiv
  _atom_site_type_symbol
  Cu1      1.0000 0.74999  0.20353  0.48376  Biso   1.000  Cu
  Cu2      1.0000 0.73904  0.04566  0.49884  Biso   1.000  Cu
  O1       1.0000 0.89531  0.15395  0.61284  Biso   1.000  O
  O2       1.0000 0.85109  0.09006  0.62851  Biso   1.000  O
  O3       1.0000 0.62185  0.16006  0.36160  Biso   1.000  O
  O4       1.0000 0.61278  0.09499  0.34207  Biso   1.000  O
  O5       1.0000 0.62437  0.20627  0.64571  Biso   1.000  O
  O6       1.0000 0.59117  0.24855  0.82888  Biso   1.000  O
  O7       1.0000 0.87605  0.24607  0.61935  Biso   1.000  O
  O8       1.0000 0.86144  0.28753  0.81338  Biso   1.000  O
  O9       1.0000 0.90731  0.04059  0.38339  Biso   1.000  O
  O10      1.0000 0.08955  0.99948  0.34496  Biso   1.000  O
  O11      1.0000 0.57063  0.04184  0.61484  Biso   1.000  O
  O12      1.0000 0.37952  0.99958  0.62773  Biso   1.000  O
  C1       1.0000 0.81930  0.12336  0.56390  Biso   1.000  C
  C2       1.0000 0.67060  0.12596  0.40820  Biso   1.000  C
  C3       1.0000 0.81330  0.25871  0.72290  Biso   1.000  C
  C4       1.0000 0.66300  0.23640  0.73610  Biso   1.000  C
  C5       1.0000 0.00060  0.01116  0.42140  Biso   1.000  C
  C6       1.0000 0.48540  0.01199  0.57000  Biso   1.000  C
  Cu3      1.0000 0.25001  0.70353  0.01624  Biso   1.000  Cu
  Cu4      1.0000 0.26096  0.54566  0.00116  Biso   1.000  Cu
  O13      1.0000 0.10469  0.65395  0.88716  Biso   1.000  O
  O14      1.0000 0.14891  0.59006  0.87149  Biso   1.000  O
  O15      1.0000 0.37815  0.66006  0.13840  Biso   1.000  O
  O16      1.0000 0.38722  0.59499  0.15793  Biso   1.000  O
  O17      1.0000 0.37563  0.70627  0.85429  Biso   1.000  O
  O18      1.0000 0.40883  0.74855  0.67112  Biso   1.000  O
  O19      1.0000 0.12395  0.74607  0.88065  Biso   1.000  O
  O20      1.0000 0.13856  0.78753  0.68662  Biso   1.000  O
  O21      1.0000 0.09269  0.54059  0.11661  Biso   1.000  O
  O22      1.0000 0.91045  0.49948  0.15504  Biso   1.000  O
  O23      1.0000 0.42937  0.54184  0.88516  Biso   1.000  O
  O24      1.0000 0.62048  0.49958  0.87227  Biso   1.000  O
  C7       1.0000 0.18070  0.62336  0.93610  Biso   1.000  C
  C8       1.0000 0.32940  0.62596  0.09180  Biso   1.000  C
  C9       1.0000 0.18670  0.75871  0.77710  Biso   1.000  C
  C10      1.0000 0.33700  0.73640  0.76390  Biso   1.000  C
  C11      1.0000 0.99940  0.51116  0.07860  Biso   1.000  C
  C12      1.0000 0.51460  0.51199  0.93000  Biso   1.000  C
  Cu5      1.0000 0.25001  0.79647  0.51624  Biso   1.000  Cu
  Cu6      1.0000 0.26096  0.95434  0.50116  Biso   1.000  Cu
  O25      1.0000 0.10469  0.84605  0.38716  Biso   1.000  O
  O26      1.0000 0.14891  0.90994  0.37149  Biso   1.000  O
  O27      1.0000 0.37815  0.83994  0.63840  Biso   1.000  O
  O28      1.0000 0.38722  0.90501  0.65793  Biso   1.000  O
  O29      1.0000 0.37563  0.79373  0.35429  Biso   1.000  O
  O30      1.0000 0.40883  0.75145  0.17112  Biso   1.000  O
  O31      1.0000 0.12395  0.75393  0.38065  Biso   1.000  O
  O32      1.0000 0.13856  0.71247  0.18662  Biso   1.000  O
  O33      1.0000 0.09269  0.95941  0.61661  Biso   1.000  O
  O34      1.0000 0.91045  0.00052  0.65504  Biso   1.000  O
  O35      1.0000 0.42937  0.95816  0.38516  Biso   1.000  O
  O36      1.0000 0.62048  0.00042  0.37227  Biso   1.000  O
  C13      1.0000 0.18070  0.87664  0.43610  Biso   1.000  C
  C14      1.0000 0.32940  0.87404  0.59180  Biso   1.000  C
  C15      1.0000 0.18670  0.74129  0.27710  Biso   1.000  C
  C16      1.0000 0.33700  0.76360  0.26390  Biso   1.000  C
  C17      1.0000 0.99940  0.98884  0.57860  Biso   1.000  C
  C18      1.0000 0.51460  0.98801  0.43000  Biso   1.000  C
  Cu7      1.0000 0.74999  0.29647  0.98376  Biso   1.000  Cu
  Cu8      1.0000 0.73904  0.45434  0.99884  Biso   1.000  Cu
  O37      1.0000 0.89531  0.34605  0.11284  Biso   1.000  O
  O38      1.0000 0.85109  0.40994  0.12851  Biso   1.000  O
  O39      1.0000 0.62185  0.33994  0.86160  Biso   1.000  O
  O40      1.0000 0.61278  0.40501  0.84207  Biso   1.000  O
  O41      1.0000 0.62437  0.29373  0.14571  Biso   1.000  O
  O42      1.0000 0.59117  0.25145  0.32888  Biso   1.000  O
  O43      1.0000 0.87605  0.25393  0.11935  Biso   1.000  O
  O44      1.0000 0.86144  0.21247  0.31338  Biso   1.000  O
  O45      1.0000 0.90731  0.45941  0.88339  Biso   1.000  O
  O46      1.0000 0.08955  0.50052  0.84496  Biso   1.000  O
  O47      1.0000 0.57063  0.45816  0.11484  Biso   1.000  O
  O48      1.0000 0.37952  0.50042  0.12773  Biso   1.000  O
  C19      1.0000 0.81930  0.37664  0.06390  Biso   1.000  C
  C20      1.0000 0.67060  0.37404  0.90820  Biso   1.000  C
  C21      1.0000 0.81330  0.24129  0.22290  Biso   1.000  C
  C22      1.0000 0.66300  0.26360  0.23610  Biso   1.000  C
  C23      1.0000 0.00060  0.48884  0.92140  Biso   1.000  C
  C24      1.0000 0.48540  0.48801  0.07000  Biso   1.000  C
