data_image0
_cell_length_a       14.0563
_cell_length_b       14.0563
_cell_length_c       14.0563
_cell_angle_alpha    90
_cell_angle_beta     90
_cell_angle_gamma    90

_symmetry_space_group_name_H-M    "P 1"
_symmetry_int_tables_number       1

loop_
  _symmetry_equiv_pos_as_xyz
  'x, y, z'

loop_
  _atom_site_label
  _atom_site_occupancy
  _atom_site_fract_x
  _atom_site_fract_y
  _atom_site_fract_z
  _atom_site_thermal_displace_type
  _atom_site_B_iso_or_equiv
  _atom_site_type_symbol
  O1       1.0000 0.76405  0.27206  0.36247  Biso   1.000  O
  O2       1.0000 0.90284  0.27724  0.23452  Biso   1.000  O
  C1       1.0000 0.79940  0.26610  0.52630  Biso   1.000  C
  H1       1.0000 0.83730  0.31190  0.56250  Biso   1.000  H
  H2       1.0000 0.80880  0.20220  0.55250  Biso   1.000  H
  H3       1.0000 0.73190  0.28320  0.53050  Biso   1.000  H
  C2       1.0000 0.82990  0.26741  0.42436  Biso   1.000  C
  C3       1.0000 0.92690  0.26360  0.39931  Biso   1.000  C
  C4       1.0000 0.95929  0.26973  0.30430  Biso   1.000  C
  C5       1.0000 0.06320  0.26780  0.28130  Biso   1.000  C
  H4       1.0000 0.10010  0.26850  0.34040  Biso   1.000  H
  H5       1.0000 0.07960  0.32370  0.24300  Biso   1.000  H
  H6       1.0000 0.07800  0.20990  0.24530  Biso   1.000  H
  C6       1.0000 0.99490  0.26260  0.47450  Biso   1.000  C
  N1       1.0000 0.04734  0.26340  0.53684  Biso   1.000  N
  O3       1.0000 0.73595  0.72794  0.86247  Biso   1.000  O
  O4       1.0000 0.59716  0.72276  0.73452  Biso   1.000  O
  C7       1.0000 0.70060  0.73390  0.02630  Biso   1.000  C
  H7       1.0000 0.66270  0.68810  0.06250  Biso   1.000  H
  H8       1.0000 0.69120  0.79780  0.05250  Biso   1.000  H
  H9       1.0000 0.76810  0.71680  0.03050  Biso   1.000  H
  C8       1.0000 0.67010  0.73259  0.92436  Biso   1.000  C
  C9       1.0000 0.57310  0.73640  0.89931  Biso   1.000  C
  C10      1.0000 0.54071  0.73027  0.80430  Biso   1.000  C
  C11      1.0000 0.43680  0.73220  0.78130  Biso   1.000  C
  H10      1.0000 0.39990  0.73150  0.84040  Biso   1.000  H
  H11      1.0000 0.42040  0.67630  0.74300  Biso   1.000  H
  H12      1.0000 0.42200  0.79010  0.74530  Biso   1.000  H
  C12      1.0000 0.50510  0.73740  0.97450  Biso   1.000  C
  N2       1.0000 0.45266  0.73660  0.03684  Biso   1.000  N
  O5       1.0000 0.23595  0.77206  0.13753  Biso   1.000  O
  O6       1.0000 0.09716  0.77724  0.26548  Biso   1.000  O
  C13      1.0000 0.20060  0.76610  0.97370  Biso   1.000  C
  H13      1.0000 0.16270  0.81190  0.93750  Biso   1.000  H
  H14      1.0000 0.19120  0.70220  0.94750  Biso   1.000  H
  H15      1.0000 0.26810  0.78320  0.96950  Biso   1.000  H
  C14      1.0000 0.17010  0.76741  0.07564  Biso   1.000  C
  C15      1.0000 0.07310  0.76360  0.10069  Biso   1.000  C
  C16      1.0000 0.04071  0.76973  0.19570  Biso   1.000  C
  C17      1.0000 0.93680  0.76780  0.21870  Biso   1.000  C
  H16      1.0000 0.89990  0.76850  0.15960  Biso   1.000  H
  H17      1.0000 0.92040  0.82370  0.25700  Biso   1.000  H
  H18      1.0000 0.92200  0.70990  0.25470  Biso   1.000  H
  C18      1.0000 0.00510  0.76260  0.02550  Biso   1.000  C
  N3       1.0000 0.95266  0.76340  0.96316  Biso   1.000  N
  O7       1.0000 0.26405  0.22794  0.63753  Biso   1.000  O
  O8       1.0000 0.40284  0.22276  0.76548  Biso   1.000  O
  C19      1.0000 0.29940  0.23390  0.47370  Biso   1.000  C
  H19      1.0000 0.33730  0.18810  0.43750  Biso   1.000  H
  H20      1.0000 0.30880  0.29780  0.44750  Biso   1.000  H
  H21      1.0000 0.23190  0.21680  0.46950  Biso   1.000  H
  C20      1.0000 0.32990  0.23259  0.57564  Biso   1.000  C
  C21      1.0000 0.42690  0.23640  0.60069  Biso   1.000  C
  C22      1.0000 0.45929  0.23027  0.69570  Biso   1.000  C
  C23      1.0000 0.56320  0.23220  0.71870  Biso   1.000  C
  H22      1.0000 0.60010  0.23150  0.65960  Biso   1.000  H
  H23      1.0000 0.57960  0.17630  0.75700  Biso   1.000  H
  H24      1.0000 0.57800  0.29010  0.75470  Biso   1.000  H
  C24      1.0000 0.49490  0.23740  0.52550  Biso   1.000  C
  N4       1.0000 0.54734  0.23660  0.46316  Biso   1.000  N
  O9       1.0000 0.36247  0.76405  0.27206  Biso   1.000  O
  O10      1.0000 0.23452  0.90284  0.27724  Biso   1.000  O
  C25      1.0000 0.52630  0.79940  0.26610  Biso   1.000  C
  H25      1.0000 0.56250  0.83730  0.31190  Biso   1.000  H
  H26      1.0000 0.55250  0.80880  0.20220  Biso   1.000  H
  H27      1.0000 0.53050  0.73190  0.28320  Biso   1.000  H
  C26      1.0000 0.42436  0.82990  0.26741  Biso   1.000  C
  C27      1.0000 0.39931  0.92690  0.26360  Biso   1.000  C
  C28      1.0000 0.30430  0.95929  0.26973  Biso   1.000  C
  C29      1.0000 0.28130  0.06320  0.26780  Biso   1.000  C
  H28      1.0000 0.34040  0.10010  0.26850  Biso   1.000  H
  H29      1.0000 0.24300  0.07960  0.32370  Biso   1.000  H
  H30      1.0000 0.24530  0.07800  0.20990  Biso   1.000  H
  C30      1.0000 0.47450  0.99490  0.26260  Biso   1.000  C
  N5       1.0000 0.53684  0.04734  0.26340  Biso   1.000  N
  O11      1.0000 0.86247  0.73595  0.72794  Biso   1.000  O
  O12      1.0000 0.73452  0.59716  0.72276  Biso   1.000  O
  C31      1.0000 0.02630  0.70060  0.73390  Biso   1.000  C
  H31      1.0000 0.06250  0.66270  0.68810  Biso   1.000  H
  H32      1.0000 0.05250  0.69120  0.79780  Biso   1.000  H
  H33      1.0000 0.03050  0.76810  0.71680  Biso   1.000  H
  C32      1.0000 0.92436  0.67010  0.73259  Biso   1.000  C
  C33      1.0000 0.89931  0.57310  0.73640  Biso   1.000  C
  C34      1.0000 0.80430  0.54071  0.73027  Biso   1.000  C
  C35      1.0000 0.78130  0.43680  0.73220  Biso   1.000  C
  H34      1.0000 0.84040  0.39990  0.73150  Biso   1.000  H
  H35      1.0000 0.74300  0.42040  0.67630  Biso   1.000  H
  H36      1.0000 0.74530  0.42200  0.79010  Biso   1.000  H
  C36      1.0000 0.97450  0.50510  0.73740  Biso   1.000  C
  N6       1.0000 0.03684  0.45266  0.73660  Biso   1.000  N
  O13      1.0000 0.13753  0.23595  0.77206  Biso   1.000  O
  O14      1.0000 0.26548  0.09716  0.77724  Biso   1.000  O
  C37      1.0000 0.97370  0.20060  0.76610  Biso   1.000  C
  H37      1.0000 0.93750  0.16270  0.81190  Biso   1.000  H
  H38      1.0000 0.94750  0.19120  0.70220  Biso   1.000  H
  H39      1.0000 0.96950  0.26810  0.78320  Biso   1.000  H
  C38      1.0000 0.07564  0.17010  0.76741  Biso   1.000  C
  C39      1.0000 0.10069  0.07310  0.76360  Biso   1.000  C
  C40      1.0000 0.19570  0.04071  0.76973  Biso   1.000  C
  C41      1.0000 0.21870  0.93680  0.76780  Biso   1.000  C
  H40      1.0000 0.15960  0.89990  0.76850  Biso   1.000  H
  H41      1.0000 0.25700  0.92040  0.82370  Biso   1.000  H
  H42      1.0000 0.25470  0.92200  0.70990  Biso   1.000  H
  C42      1.0000 0.02550  0.00510  0.76260  Biso   1.000  C
  N7       1.0000 0.96316  0.95266  0.76340  Biso   1.000  N
  O15      1.0000 0.63753  0.26405  0.22794  Biso   1.000  O
  O16      1.0000 0.76548  0.40284  0.22276  Biso   1.000  O
  C43      1.0000 0.47370  0.29940  0.23390  Biso   1.000  C
  H43      1.0000 0.43750  0.33730  0.18810  Biso   1.000  H
  H44      1.0000 0.44750  0.30880  0.29780  Biso   1.000  H
  H45      1.0000 0.46950  0.23190  0.21680  Biso   1.000  H
  C44      1.0000 0.57564  0.32990  0.23259  Biso   1.000  C
  C45      1.0000 0.60069  0.42690  0.23640  Biso   1.000  C
  C46      1.0000 0.69570  0.45929  0.23027  Biso   1.000  C
  C47      1.0000 0.71870  0.56320  0.23220  Biso   1.000  C
  H46      1.0000 0.65960  0.60010  0.23150  Biso   1.000  H
  H47      1.0000 0.75700  0.57960  0.17630  Biso   1.000  H
  H48      1.0000 0.75470  0.57800  0.29010  Biso   1.000  H
  C48      1.0000 0.52550  0.49490  0.23740  Biso   1.000  C
  N8       1.0000 0.46316  0.54734  0.23660  Biso   1.000  N
  O17      1.0000 0.27206  0.36247  0.76405  Biso   1.000  O
  O18      1.0000 0.27724  0.23452  0.90284  Biso   1.000  O
  C49      1.0000 0.26610  0.52630  0.79940  Biso   1.000  C
  H49      1.0000 0.31190  0.56250  0.83730  Biso   1.000  H
  H50      1.0000 0.20220  0.55250  0.80880  Biso   1.000  H
  H51      1.0000 0.28320  0.53050  0.73190  Biso   1.000  H
  C50      1.0000 0.26741  0.42436  0.82990  Biso   1.000  C
  C51      1.0000 0.26360  0.39931  0.92690  Biso   1.000  C
  C52      1.0000 0.26973  0.30430  0.95929  Biso   1.000  C
  C53      1.0000 0.26780  0.28130  0.06320  Biso   1.000  C
  H52      1.0000 0.26850  0.34040  0.10010  Biso   1.000  H
  H53      1.0000 0.32370  0.24300  0.07960  Biso   1.000  H
  H54      1.0000 0.20990  0.24530  0.07800  Biso   1.000  H
  C54      1.0000 0.26260  0.47450  0.99490  Biso   1.000  C
  N9       1.0000 0.26340  0.53684  0.04734  Biso   1.000  N
  O19      1.0000 0.72794  0.86247  0.73595  Biso   1.000  O
  O20      1.0000 0.72276  0.73452  0.59716  Biso   1.000  O
  C55      1.0000 0.73390  0.02630  0.70060  Biso   1.000  C
  H55      1.0000 0.68810  0.06250  0.66270  Biso   1.000  H
  H56      1.0000 0.79780  0.05250  0.69120  Biso   1.000  H
  H57      1.0000 0.71680  0.03050  0.76810  Biso   1.000  H
  C56      1.0000 0.73259  0.92436  0.67010  Biso   1.000  C
  C57      1.0000 0.73640  0.89931  0.57310  Biso   1.000  C
  C58      1.0000 0.73027  0.80430  0.54071  Biso   1.000  C
  C59      1.0000 0.73220  0.78130  0.43680  Biso   1.000  C
  H58      1.0000 0.73150  0.84040  0.39990  Biso   1.000  H
  H59      1.0000 0.67630  0.74300  0.42040  Biso   1.000  H
  H60      1.0000 0.79010  0.74530  0.42200  Biso   1.000  H
  C60      1.0000 0.73740  0.97450  0.50510  Biso   1.000  C
  N10      1.0000 0.73660  0.03684  0.45266  Biso   1.000  N
  O21      1.0000 0.77206  0.13753  0.23595  Biso   1.000  O
  O22      1.0000 0.77724  0.26548  0.09716  Biso   1.000  O
  C61      1.0000 0.76610  0.97370  0.20060  Biso   1.000  C
  H61      1.0000 0.81190  0.93750  0.16270  Biso   1.000  H
  H62      1.0000 0.70220  0.94750  0.19120  Biso   1.000  H
  H63      1.0000 0.78320  0.96950  0.26810  Biso   1.000  H
  C62      1.0000 0.76741  0.07564  0.17010  Biso   1.000  C
  C63      1.0000 0.76360  0.10069  0.07310  Biso   1.000  C
  C64      1.0000 0.76973  0.19570  0.04071  Biso   1.000  C
  C65      1.0000 0.76780  0.21870  0.93680  Biso   1.000  C
  H64      1.0000 0.76850  0.15960  0.89990  Biso   1.000  H
  H65      1.0000 0.82370  0.25700  0.92040  Biso   1.000  H
  H66      1.0000 0.70990  0.25470  0.92200  Biso   1.000  H
  C66      1.0000 0.76260  0.02550  0.00510  Biso   1.000  C
  N11      1.0000 0.76340  0.96316  0.95266  Biso   1.000  N
  O23      1.0000 0.22794  0.63753  0.26405  Biso   1.000  O
  O24      1.0000 0.22276  0.76548  0.40284  Biso   1.000  O
  C67      1.0000 0.23390  0.47370  0.29940  Biso   1.000  C
  H67      1.0000 0.18810  0.43750  0.33730  Biso   1.000  H
  H68      1.0000 0.29780  0.44750  0.30880  Biso   1.000  H
  H69      1.0000 0.21680  0.46950  0.23190  Biso   1.000  H
  C68      1.0000 0.23259  0.57564  0.32990  Biso   1.000  C
  C69      1.0000 0.23640  0.60069  0.42690  Biso   1.000  C
  C70      1.0000 0.23027  0.69570  0.45929  Biso   1.000  C
  C71      1.0000 0.23220  0.71870  0.56320  Biso   1.000  C
  H70      1.0000 0.23150  0.65960  0.60010  Biso   1.000  H
  H71      1.0000 0.17630  0.75700  0.57960  Biso   1.000  H
  H72      1.0000 0.29010  0.75470  0.57800  Biso   1.000  H
  C72      1.0000 0.23740  0.52550  0.49490  Biso   1.000  C
  N12      1.0000 0.23660  0.46316  0.54734  Biso   1.000  N
  Ag1      1.0000 0.12590  0.37410  0.62590  Biso   1.000  Ag
  Ag2      1.0000 0.37410  0.62590  0.12590  Biso   1.000  Ag
  Ag3      1.0000 0.87410  0.87410  0.87410  Biso   1.000  Ag
  Ag4      1.0000 0.62590  0.12590  0.37410  Biso   1.000  Ag
  Al1      1.0000 0.77064  0.27064  0.22936  Biso   1.000  Al
  Al2      1.0000 0.72936  0.72936  0.72936  Biso   1.000  Al
  Al3      1.0000 0.22936  0.77064  0.27064  Biso   1.000  Al
  Al4      1.0000 0.27064  0.22936  0.77064  Biso   1.000  Al
