data_KEFBEE_clean
_audit_creation_date              2014-07-02
_audit_creation_method            'Materials Studio'
_symmetry_space_group_name_H-M    'P1'
_symmetry_Int_Tables_number       1
_symmetry_cell_setting            triclinic
loop_
_symmetry_equiv_pos_as_xyz
  x,y,z
_cell_length_a                    15.4128
_cell_length_b                    15.4128
_cell_length_c                    15.4128
_cell_angle_alpha                 76.3412
_cell_angle_beta                  76.3412
_cell_angle_gamma                 76.3412
loop_
_atom_site_label
_atom_site_type_symbol
_atom_site_fract_x
_atom_site_fract_y
_atom_site_fract_z
_atom_site_U_iso_or_equiv
_atom_site_adp_type
_atom_site_occupancy
Zn1    Zn    0.08821   0.51326   0.51326   0.01267  Uiso   1.00
Zn2    Zn    0.51326   0.08821   0.51326   0.01267  Uiso   1.00
Zn3    Zn    0.51326   0.51326   0.08821   0.01267  Uiso   1.00
Zn4    Zn    0.48674   0.91179   0.48674   0.01267  Uiso   1.00
Zn5    Zn    0.91179   0.48674   0.48674   0.01267  Uiso   1.00
Zn6    Zn    0.48674   0.48674   0.91179   0.01267  Uiso   1.00
H1     H     0.98680   0.19690   0.50640   0.01267  Uiso   1.00
H2     H     0.50640   0.98680   0.19690   0.01267  Uiso   1.00
H3     H     0.19690   0.50640   0.98680   0.01267  Uiso   1.00
H4     H     0.80310   0.01320   0.49360   0.01267  Uiso   1.00
H5     H     0.01320   0.49360   0.80310   0.01267  Uiso   1.00
H6     H     0.49360   0.80310   0.01320   0.01267  Uiso   1.00
H7     H     0.01320   0.80310   0.49360   0.01267  Uiso   1.00
H8     H     0.49360   0.01320   0.80310   0.01267  Uiso   1.00
H9     H     0.80310   0.49360   0.01320   0.01267  Uiso   1.00
H10    H     0.19690   0.98680   0.50640   0.01267  Uiso   1.00
H11    H     0.98680   0.50640   0.19690   0.01267  Uiso   1.00
H12    H     0.50640   0.19690   0.98680   0.01267  Uiso   1.00
H13    H     0.23250   0.23250   0.52300   0.01267  Uiso   1.00
H14    H     0.52300   0.23250   0.23250   0.01267  Uiso   1.00
H15    H     0.23250   0.52300   0.23250   0.01267  Uiso   1.00
H16    H     0.76750   0.76750   0.47700   0.01267  Uiso   1.00
H17    H     0.76750   0.47700   0.76750   0.01267  Uiso   1.00
H18    H     0.47700   0.76750   0.76750   0.01267  Uiso   1.00
C1     C     0.06550   0.32924   0.51427   0.01267  Uiso   1.00
C2     C     0.10383   0.23005   0.51534   0.01267  Uiso   1.00
C3     C     0.04762   0.17342   0.50962   0.01267  Uiso   1.00
C4     C     0.51427   0.06550   0.32924   0.01267  Uiso   1.00
C5     C     0.51534   0.10383   0.23005   0.01267  Uiso   1.00
C6     C     0.50962   0.04762   0.17342   0.01267  Uiso   1.00
C7     C     0.32924   0.51427   0.06550   0.01267  Uiso   1.00
C8     C     0.23005   0.51534   0.10383   0.01267  Uiso   1.00
C9     C     0.17342   0.50962   0.04762   0.01267  Uiso   1.00
C10    C     0.67076   0.93450   0.48573   0.01267  Uiso   1.00
C11    C     0.76995   0.89617   0.48466   0.01267  Uiso   1.00
C12    C     0.82658   0.95238   0.49038   0.01267  Uiso   1.00
C13    C     0.93450   0.48573   0.67076   0.01267  Uiso   1.00
C14    C     0.89617   0.48466   0.76995   0.01267  Uiso   1.00
C15    C     0.95238   0.49038   0.82658   0.01267  Uiso   1.00
C16    C     0.48573   0.67076   0.93450   0.01267  Uiso   1.00
C17    C     0.48466   0.76995   0.89617   0.01267  Uiso   1.00
C18    C     0.49038   0.82658   0.95238   0.01267  Uiso   1.00
C19    C     0.93450   0.67076   0.48573   0.01267  Uiso   1.00
C20    C     0.89617   0.76995   0.48466   0.01267  Uiso   1.00
C21    C     0.95238   0.82658   0.49038   0.01267  Uiso   1.00
C22    C     0.48573   0.93450   0.67076   0.01267  Uiso   1.00
C23    C     0.48466   0.89617   0.76995   0.01267  Uiso   1.00
C24    C     0.49038   0.95238   0.82658   0.01267  Uiso   1.00
C25    C     0.67076   0.48573   0.93450   0.01267  Uiso   1.00
C26    C     0.76995   0.48466   0.89617   0.01267  Uiso   1.00
C27    C     0.82658   0.49038   0.95238   0.01267  Uiso   1.00
C28    C     0.32924   0.06550   0.51427   0.01267  Uiso   1.00
C29    C     0.23005   0.10383   0.51534   0.01267  Uiso   1.00
C30    C     0.17342   0.04762   0.50962   0.01267  Uiso   1.00
C31    C     0.06550   0.51427   0.32924   0.01267  Uiso   1.00
C32    C     0.10383   0.51534   0.23005   0.01267  Uiso   1.00
C33    C     0.04762   0.50962   0.17342   0.01267  Uiso   1.00
C34    C     0.51427   0.32924   0.06550   0.01267  Uiso   1.00
C35    C     0.51534   0.23005   0.10383   0.01267  Uiso   1.00
C36    C     0.50962   0.17342   0.04762   0.01267  Uiso   1.00
C37    C     0.08242   0.08242   0.50867   0.01267  Uiso   1.00
C38    C     0.02317   0.02317   0.50237   0.01267  Uiso   1.00
C39    C     0.19501   0.19501   0.51866   0.01267  Uiso   1.00
C40    C     0.50867   0.08242   0.08242   0.01267  Uiso   1.00
C41    C     0.50237   0.02317   0.02317   0.01267  Uiso   1.00
C42    C     0.51866   0.19501   0.19501   0.01267  Uiso   1.00
C43    C     0.08242   0.50867   0.08242   0.01267  Uiso   1.00
C44    C     0.02317   0.50237   0.02317   0.01267  Uiso   1.00
C45    C     0.19501   0.51866   0.19501   0.01267  Uiso   1.00
C46    C     0.91758   0.91758   0.49133   0.01267  Uiso   1.00
C47    C     0.97683   0.97683   0.49763   0.01267  Uiso   1.00
C48    C     0.80499   0.80499   0.48134   0.01267  Uiso   1.00
C49    C     0.91758   0.49133   0.91758   0.01267  Uiso   1.00
C50    C     0.97683   0.49763   0.97683   0.01267  Uiso   1.00
C51    C     0.80499   0.48134   0.80499   0.01267  Uiso   1.00
C52    C     0.49133   0.91758   0.91758   0.01267  Uiso   1.00
C53    C     0.49763   0.97683   0.97683   0.01267  Uiso   1.00
C54    C     0.48134   0.80499   0.80499   0.01267  Uiso   1.00
O1     O     0.98579   0.35733   0.50559   0.01267  Uiso   1.00
O2     O     0.11925   0.37579   0.52149   0.01267  Uiso   1.00
O3     O     0.50559   0.98579   0.35733   0.01267  Uiso   1.00
O4     O     0.52149   0.11925   0.37579   0.01267  Uiso   1.00
O5     O     0.35733   0.50559   0.98579   0.01267  Uiso   1.00
O6     O     0.37579   0.52149   0.11925   0.01267  Uiso   1.00
O7     O     0.64267   0.01421   0.49441   0.01267  Uiso   1.00
O8     O     0.62421   0.88075   0.47851   0.01267  Uiso   1.00
O9     O     0.01421   0.49441   0.64267   0.01267  Uiso   1.00
O10    O     0.88075   0.47851   0.62421   0.01267  Uiso   1.00
O11    O     0.49441   0.64267   0.01421   0.01267  Uiso   1.00
O12    O     0.47851   0.62421   0.88075   0.01267  Uiso   1.00
O13    O     0.01421   0.64267   0.49441   0.01267  Uiso   1.00
O14    O     0.88075   0.62421   0.47851   0.01267  Uiso   1.00
O15    O     0.49441   0.01421   0.64267   0.01267  Uiso   1.00
O16    O     0.47851   0.88075   0.62421   0.01267  Uiso   1.00
O17    O     0.64267   0.49441   0.01421   0.01267  Uiso   1.00
O18    O     0.62421   0.47851   0.88075   0.01267  Uiso   1.00
O19    O     0.35733   0.98579   0.50559   0.01267  Uiso   1.00
O20    O     0.37579   0.11925   0.52149   0.01267  Uiso   1.00
O21    O     0.98579   0.50559   0.35733   0.01267  Uiso   1.00
O22    O     0.11925   0.52149   0.37579   0.01267  Uiso   1.00
O23    O     0.50559   0.35733   0.98579   0.01267  Uiso   1.00
O24    O     0.52149   0.37579   0.11925   0.01267  Uiso   1.00
