data_KEFBOO_clean
_audit_creation_date              2014-07-02
_audit_creation_method            'Materials Studio'
_symmetry_space_group_name_H-M    'P1'
_symmetry_Int_Tables_number       1
_symmetry_cell_setting            triclinic
loop_
_symmetry_equiv_pos_as_xyz
  x,y,z
_cell_length_a                    15.3301
_cell_length_b                    15.3301
_cell_length_c                    15.3301
_cell_angle_alpha                 102.0380
_cell_angle_beta                  102.0380
_cell_angle_gamma                 102.0380
loop_
_atom_site_label
_atom_site_type_symbol
_atom_site_fract_x
_atom_site_fract_y
_atom_site_fract_z
_atom_site_U_iso_or_equiv
_atom_site_adp_type
_atom_site_occupancy
Zn1    Zn    0.02298   0.02298   0.41653   0.01267  Uiso   1.00
Zn2    Zn    0.41653   0.02298   0.02298   0.01267  Uiso   1.00
Zn3    Zn    0.02298   0.41653   0.02298   0.01267  Uiso   1.00
Zn4    Zn    0.97702   0.97702   0.58347   0.01267  Uiso   1.00
Zn5    Zn    0.97702   0.58347   0.97702   0.01267  Uiso   1.00
Zn6    Zn    0.58347   0.97702   0.97702   0.01267  Uiso   1.00
H1     H     0.30370   0.01420   0.49380   0.01267  Uiso   1.00
H2     H     0.49380   0.30370   0.01420   0.01267  Uiso   1.00
H3     H     0.01420   0.49380   0.30370   0.01267  Uiso   1.00
H4     H     0.98580   0.69630   0.50620   0.01267  Uiso   1.00
H5     H     0.69630   0.50620   0.98580   0.01267  Uiso   1.00
H6     H     0.50620   0.98580   0.69630   0.01267  Uiso   1.00
H7     H     0.69630   0.98580   0.50620   0.01267  Uiso   1.00
H8     H     0.50620   0.69630   0.98580   0.01267  Uiso   1.00
H9     H     0.98580   0.50620   0.69630   0.01267  Uiso   1.00
H10    H     0.01420   0.30370   0.49380   0.01267  Uiso   1.00
H11    H     0.30370   0.49380   0.01420   0.01267  Uiso   1.00
H12    H     0.49380   0.01420   0.30370   0.01267  Uiso   1.00
H13    H     0.25925   0.00000   0.74075   0.01267  Uiso   1.00
H14    H     0.74075   0.25925   0.00000   0.01267  Uiso   1.00
H15    H     0.00000   0.74075   0.25925   0.01267  Uiso   1.00
H16    H     0.74075   0.00000   0.25925   0.01267  Uiso   1.00
H17    H     0.25925   0.74075   1.00000   0.01267  Uiso   1.00
H18    H     0.00000   0.25925   0.74075   0.01267  Uiso   1.00
C1     C     0.26686   0.00639   0.61237   0.01267  Uiso   1.00
C2     C     0.32398   0.00806   0.55319   0.01267  Uiso   1.00
C3     C     0.16914   0.01267   0.57820   0.01267  Uiso   1.00
C4     C     0.61237   0.26686   0.00639   0.01267  Uiso   1.00
C5     C     0.55319   0.32398   0.00806   0.01267  Uiso   1.00
C6     C     0.57820   0.16914   0.01267   0.01267  Uiso   1.00
C7     C     0.00639   0.61237   0.26686   0.01267  Uiso   1.00
C8     C     0.00806   0.55319   0.32398   0.01267  Uiso   1.00
C9     C     0.01267   0.57820   0.16914   0.01267  Uiso   1.00
C10    C     0.99361   0.73314   0.38763   0.01267  Uiso   1.00
C11    C     0.99194   0.67602   0.44681   0.01267  Uiso   1.00
C12    C     0.98733   0.83086   0.42180   0.01267  Uiso   1.00
C13    C     0.73314   0.38763   0.99361   0.01267  Uiso   1.00
C14    C     0.67602   0.44681   0.99194   0.01267  Uiso   1.00
C15    C     0.83086   0.42180   0.98733   0.01267  Uiso   1.00
C16    C     0.38763   0.99361   0.73314   0.01267  Uiso   1.00
C17    C     0.44681   0.99194   0.67602   0.01267  Uiso   1.00
C18    C     0.42180   0.98733   0.83086   0.01267  Uiso   1.00
C19    C     0.73314   0.99361   0.38763   0.01267  Uiso   1.00
C20    C     0.67602   0.99194   0.44681   0.01267  Uiso   1.00
C21    C     0.83086   0.98733   0.42180   0.01267  Uiso   1.00
C22    C     0.38763   0.73314   0.99361   0.01267  Uiso   1.00
C23    C     0.44681   0.67602   0.99194   0.01267  Uiso   1.00
C24    C     0.42180   0.83086   0.98733   0.01267  Uiso   1.00
C25    C     0.99361   0.38763   0.73314   0.01267  Uiso   1.00
C26    C     0.99194   0.44681   0.67602   0.01267  Uiso   1.00
C27    C     0.98733   0.42180   0.83086   0.01267  Uiso   1.00
C28    C     0.00639   0.26686   0.61237   0.01267  Uiso   1.00
C29    C     0.00806   0.32398   0.55319   0.01267  Uiso   1.00
C30    C     0.01267   0.16914   0.57820   0.01267  Uiso   1.00
C31    C     0.26686   0.61237   0.00639   0.01267  Uiso   1.00
C32    C     0.32398   0.55319   0.00806   0.01267  Uiso   1.00
C33    C     0.16914   0.57820   0.01267   0.01267  Uiso   1.00
C34    C     0.61237   0.00639   0.26686   0.01267  Uiso   1.00
C35    C     0.55319   0.00806   0.32398   0.01267  Uiso   1.00
C36    C     0.57820   0.01267   0.16914   0.01267  Uiso   1.00
C37    C     0.41357   0.00000   0.58643   0.01267  Uiso   1.00
C38    C     0.29829   0.00000   0.70171   0.01267  Uiso   1.00
C39    C     0.47598   0.00000   0.52403   0.01267  Uiso   1.00
C40    C     0.58643   0.41357   0.00000   0.01267  Uiso   1.00
C41    C     0.70171   0.29829   0.00000   0.01267  Uiso   1.00
C42    C     0.52403   0.47597   0.00000   0.01267  Uiso   1.00
C43    C     0.00000   0.58643   0.41357   0.01267  Uiso   1.00
C44    C     0.00000   0.70171   0.29829   0.01267  Uiso   1.00
C45    C     0.00000   0.52402   0.47597   0.01267  Uiso   1.00
C46    C     0.58643   0.00000   0.41357   0.01267  Uiso   1.00
C47    C     0.70171   0.00000   0.29829   0.01267  Uiso   1.00
C48    C     0.52402   0.00000   0.47597   0.01267  Uiso   1.00
C49    C     0.41357   0.58643   0.00000   0.01267  Uiso   1.00
C50    C     0.29829   0.70171   0.00000   0.01267  Uiso   1.00
C51    C     0.47597   0.52402   0.00000   0.01267  Uiso   1.00
C52    C     0.00000   0.41357   0.58643   0.01267  Uiso   1.00
C53    C     0.00000   0.29829   0.70171   0.01267  Uiso   1.00
C54    C     0.00000   0.47598   0.52403   0.01267  Uiso   1.00
O1     O     0.14651   0.02603   0.49972   0.01267  Uiso   1.00
O2     O     0.11697   0.99754   0.62837   0.01267  Uiso   1.00
O3     O     0.49972   0.14651   0.02603   0.01267  Uiso   1.00
O4     O     0.62837   0.11697   0.99754   0.01267  Uiso   1.00
O5     O     0.02603   0.49972   0.14651   0.01267  Uiso   1.00
O6     O     0.99754   0.62837   0.11697   0.01267  Uiso   1.00
O7     O     0.97397   0.85349   0.50028   0.01267  Uiso   1.00
O8     O     0.00246   0.88303   0.37163   0.01267  Uiso   1.00
O9     O     0.85349   0.50028   0.97397   0.01267  Uiso   1.00
O10    O     0.88303   0.37163   0.00246   0.01267  Uiso   1.00
O11    O     0.50028   0.97397   0.85349   0.01267  Uiso   1.00
O12    O     0.37163   0.00246   0.88303   0.01267  Uiso   1.00
O13    O     0.85349   0.97397   0.50028   0.01267  Uiso   1.00
O14    O     0.88303   0.00246   0.37163   0.01267  Uiso   1.00
O15    O     0.50028   0.85349   0.97397   0.01267  Uiso   1.00
O16    O     0.37163   0.88303   0.00246   0.01267  Uiso   1.00
O17    O     0.97397   0.50028   0.85349   0.01267  Uiso   1.00
O18    O     0.00246   0.37163   0.88303   0.01267  Uiso   1.00
O19    O     0.02603   0.14651   0.49972   0.01267  Uiso   1.00
O20    O     0.99754   0.11697   0.62837   0.01267  Uiso   1.00
O21    O     0.14651   0.49972   0.02603   0.01267  Uiso   1.00
O22    O     0.11697   0.62837   0.99754   0.01267  Uiso   1.00
O23    O     0.49972   0.02603   0.14651   0.01267  Uiso   1.00
O24    O     0.62837   0.99754   0.11697   0.01267  Uiso   1.00
