data_image0
_cell_length_a       6.682
_cell_length_b       18.446
_cell_length_c       8.477
_cell_angle_alpha    90
_cell_angle_beta     90
_cell_angle_gamma    90

_symmetry_space_group_name_H-M    "P 1"
_symmetry_int_tables_number       1

loop_
  _symmetry_equiv_pos_as_xyz
  'x, y, z'

loop_
  _atom_site_label
  _atom_site_occupancy
  _atom_site_fract_x
  _atom_site_fract_y
  _atom_site_fract_z
  _atom_site_thermal_displace_type
  _atom_site_B_iso_or_equiv
  _atom_site_type_symbol
  C1       1.0000 0.73400  0.74400  0.02640  Biso   1.000  C
  H1       1.0000 0.71260  0.78270  0.95820  Biso   1.000  H
  O1       1.0000 0.33580  0.90537  0.26900  Biso   1.000  O
  O2       1.0000 0.98640  0.95020  0.43170  Biso   1.000  O
  O3       1.0000 0.81930  0.75750  0.15260  Biso   1.000  O
  O4       1.0000 0.67420  0.68314  0.98220  Biso   1.000  O
  C2       1.0000 0.23400  0.24400  0.02640  Biso   1.000  C
  H2       1.0000 0.21260  0.28270  0.95820  Biso   1.000  H
  O5       1.0000 0.83580  0.40537  0.26900  Biso   1.000  O
  O6       1.0000 0.48640  0.45020  0.43170  Biso   1.000  O
  O7       1.0000 0.31930  0.25750  0.15260  Biso   1.000  O
  O8       1.0000 0.17420  0.18314  0.98220  Biso   1.000  O
  C3       1.0000 0.26600  0.25600  0.52640  Biso   1.000  C
  H3       1.0000 0.28740  0.21730  0.45820  Biso   1.000  H
  O9       1.0000 0.66420  0.09463  0.76900  Biso   1.000  O
  O10      1.0000 0.01360  0.04980  0.93170  Biso   1.000  O
  O11      1.0000 0.18070  0.24250  0.65260  Biso   1.000  O
  O12      1.0000 0.32580  0.31686  0.48220  Biso   1.000  O
  C4       1.0000 0.76600  0.75600  0.52640  Biso   1.000  C
  H4       1.0000 0.78740  0.71730  0.45820  Biso   1.000  H
  O13      1.0000 0.16420  0.59463  0.76900  Biso   1.000  O
  O14      1.0000 0.51360  0.54980  0.93170  Biso   1.000  O
  O15      1.0000 0.68070  0.74250  0.65260  Biso   1.000  O
  O16      1.0000 0.82580  0.81686  0.48220  Biso   1.000  O
  C5       1.0000 0.26600  0.74400  0.47360  Biso   1.000  C
  H5       1.0000 0.28740  0.78270  0.54180  Biso   1.000  H
  O17      1.0000 0.66420  0.90537  0.23100  Biso   1.000  O
  O18      1.0000 0.01360  0.95020  0.06830  Biso   1.000  O
  O19      1.0000 0.18070  0.75750  0.34740  Biso   1.000  O
  O20      1.0000 0.32580  0.68314  0.51780  Biso   1.000  O
  C6       1.0000 0.76600  0.24400  0.47360  Biso   1.000  C
  H6       1.0000 0.78740  0.28270  0.54180  Biso   1.000  H
  O21      1.0000 0.16420  0.40537  0.23100  Biso   1.000  O
  O22      1.0000 0.51360  0.45020  0.06830  Biso   1.000  O
  O23      1.0000 0.68070  0.25750  0.34740  Biso   1.000  O
  O24      1.0000 0.82580  0.18314  0.51780  Biso   1.000  O
  C7       1.0000 0.73400  0.25600  0.97360  Biso   1.000  C
  H7       1.0000 0.71260  0.21730  0.04180  Biso   1.000  H
  O25      1.0000 0.33580  0.09463  0.73100  Biso   1.000  O
  O26      1.0000 0.98640  0.04980  0.56830  Biso   1.000  O
  O27      1.0000 0.81930  0.24250  0.84740  Biso   1.000  O
  O28      1.0000 0.67420  0.31686  0.01780  Biso   1.000  O
  C8       1.0000 0.23400  0.75600  0.97360  Biso   1.000  C
  H8       1.0000 0.21260  0.71730  0.04180  Biso   1.000  H
  O29      1.0000 0.83580  0.59463  0.73100  Biso   1.000  O
  O30      1.0000 0.48640  0.54980  0.56830  Biso   1.000  O
  O31      1.0000 0.31930  0.74250  0.84740  Biso   1.000  O
  O32      1.0000 0.17420  0.81686  0.01780  Biso   1.000  O
  C9       1.0000 0.50000  0.87520  0.25000  Biso   1.000  C
  H9       1.0000 0.50000  0.82480  0.25000  Biso   1.000  H
  C10      1.0000 0.00000  0.37520  0.25000  Biso   1.000  C
  H10      1.0000 0.00000  0.32480  0.25000  Biso   1.000  H
  C11      1.0000 0.50000  0.12480  0.75000  Biso   1.000  C
  H11      1.0000 0.50000  0.17520  0.75000  Biso   1.000  H
  C12      1.0000 0.00000  0.62480  0.75000  Biso   1.000  C
  H12      1.0000 0.00000  0.67520  0.75000  Biso   1.000  H
  C13      1.0000 0.07390  0.00000  0.50000  Biso   1.000  C
  H13      1.0000 0.21310  0.00000  0.50000  Biso   1.000  H
  C14      1.0000 0.57390  0.50000  0.50000  Biso   1.000  C
  H14      1.0000 0.71310  0.50000  0.50000  Biso   1.000  H
  C15      1.0000 0.92610  0.00000  0.00000  Biso   1.000  C
  H15      1.0000 0.78690  0.00000  0.00000  Biso   1.000  H
  C16      1.0000 0.42610  0.50000  0.00000  Biso   1.000  C
  H16      1.0000 0.28690  0.50000  0.00000  Biso   1.000  H
  Dy1      1.0000 0.00000  0.85736  0.25000  Biso   1.000  Dy
  Dy2      1.0000 0.50000  0.35736  0.25000  Biso   1.000  Dy
  Dy3      1.0000 0.00000  0.14264  0.75000  Biso   1.000  Dy
  Dy4      1.0000 0.50000  0.64264  0.75000  Biso   1.000  Dy
