data_image0
_cell_length_a       6.6837
_cell_length_b       18.4684
_cell_length_c       8.4759
_cell_angle_alpha    90
_cell_angle_beta     90
_cell_angle_gamma    90

_symmetry_space_group_name_H-M    "P 1"
_symmetry_int_tables_number       1

loop_
  _symmetry_equiv_pos_as_xyz
  'x, y, z'

loop_
  _atom_site_label
  _atom_site_occupancy
  _atom_site_fract_x
  _atom_site_fract_y
  _atom_site_fract_z
  _atom_site_thermal_displace_type
  _atom_site_B_iso_or_equiv
  _atom_site_type_symbol
  O1       1.0000 0.51210  0.95002  0.06930  Biso   1.000  O
  O2       1.0000 0.83630  0.90585  0.27160  Biso   1.000  O
  O3       1.0000 0.82020  0.74263  0.84710  Biso   1.000  O
  O4       1.0000 0.67510  0.81686  0.01780  Biso   1.000  O
  C1       1.0000 0.73560  0.75720  0.97490  Biso   1.000  C
  H1       1.0000 0.71640  0.71890  0.04450  Biso   1.000  H
  O5       1.0000 0.01210  0.45002  0.06930  Biso   1.000  O
  O6       1.0000 0.33630  0.40585  0.27160  Biso   1.000  O
  O7       1.0000 0.32020  0.24263  0.84710  Biso   1.000  O
  O8       1.0000 0.17510  0.31686  0.01780  Biso   1.000  O
  C2       1.0000 0.23560  0.25720  0.97490  Biso   1.000  C
  H2       1.0000 0.21640  0.21890  0.04450  Biso   1.000  H
  O9       1.0000 0.48790  0.04998  0.56930  Biso   1.000  O
  O10      1.0000 0.16370  0.09415  0.77160  Biso   1.000  O
  O11      1.0000 0.17980  0.25737  0.34710  Biso   1.000  O
  O12      1.0000 0.32490  0.18314  0.51780  Biso   1.000  O
  C3       1.0000 0.26440  0.24280  0.47490  Biso   1.000  C
  H3       1.0000 0.28360  0.28110  0.54450  Biso   1.000  H
  O13      1.0000 0.98790  0.54998  0.56930  Biso   1.000  O
  O14      1.0000 0.66370  0.59415  0.77160  Biso   1.000  O
  O15      1.0000 0.67980  0.75737  0.34710  Biso   1.000  O
  O16      1.0000 0.82490  0.68314  0.51780  Biso   1.000  O
  C4       1.0000 0.76440  0.74280  0.47490  Biso   1.000  C
  H4       1.0000 0.78360  0.78110  0.54450  Biso   1.000  H
  O17      1.0000 0.48790  0.95002  0.43070  Biso   1.000  O
  O18      1.0000 0.16370  0.90585  0.22840  Biso   1.000  O
  O19      1.0000 0.17980  0.74263  0.65290  Biso   1.000  O
  O20      1.0000 0.32490  0.81686  0.48220  Biso   1.000  O
  C5       1.0000 0.26440  0.75720  0.52510  Biso   1.000  C
  H5       1.0000 0.28360  0.71890  0.45550  Biso   1.000  H
  O21      1.0000 0.98790  0.45002  0.43070  Biso   1.000  O
  O22      1.0000 0.66370  0.40585  0.22840  Biso   1.000  O
  O23      1.0000 0.67980  0.24263  0.65290  Biso   1.000  O
  O24      1.0000 0.82490  0.31686  0.48220  Biso   1.000  O
  C6       1.0000 0.76440  0.25720  0.52510  Biso   1.000  C
  H6       1.0000 0.78360  0.21890  0.45550  Biso   1.000  H
  O25      1.0000 0.51210  0.04998  0.93070  Biso   1.000  O
  O26      1.0000 0.83630  0.09415  0.72840  Biso   1.000  O
  O27      1.0000 0.82020  0.25737  0.15290  Biso   1.000  O
  O28      1.0000 0.67510  0.18314  0.98220  Biso   1.000  O
  C7       1.0000 0.73560  0.24280  0.02510  Biso   1.000  C
  H7       1.0000 0.71640  0.28110  0.95550  Biso   1.000  H
  O29      1.0000 0.01210  0.54998  0.93070  Biso   1.000  O
  O30      1.0000 0.33630  0.59415  0.72840  Biso   1.000  O
  O31      1.0000 0.32020  0.75737  0.15290  Biso   1.000  O
  O32      1.0000 0.17510  0.68314  0.98220  Biso   1.000  O
  C8       1.0000 0.23560  0.74280  0.02510  Biso   1.000  C
  H8       1.0000 0.21640  0.78110  0.95550  Biso   1.000  H
  Dy1      1.0000 0.50000  0.85736  0.25000  Biso   1.000  Dy
  Dy2      1.0000 0.00000  0.35736  0.25000  Biso   1.000  Dy
  Dy3      1.0000 0.50000  0.14264  0.75000  Biso   1.000  Dy
  Dy4      1.0000 0.00000  0.64264  0.75000  Biso   1.000  Dy
  C9       1.0000 0.42600  0.00000  0.00000  Biso   1.000  C
  H9       1.0000 0.28680  0.00000  0.00000  Biso   1.000  H
  C10      1.0000 0.92600  0.50000  0.00000  Biso   1.000  C
  H10      1.0000 0.78680  0.50000  0.00000  Biso   1.000  H
  C11      1.0000 0.57400  0.00000  0.50000  Biso   1.000  C
  H11      1.0000 0.71320  0.00000  0.50000  Biso   1.000  H
  C12      1.0000 0.07400  0.50000  0.50000  Biso   1.000  C
  H12      1.0000 0.21320  0.50000  0.50000  Biso   1.000  H
  C13      1.0000 0.00000  0.87530  0.25000  Biso   1.000  C
  H13      1.0000 0.00000  0.82490  0.25000  Biso   1.000  H
  C14      1.0000 0.50000  0.37530  0.25000  Biso   1.000  C
  H14      1.0000 0.50000  0.32490  0.25000  Biso   1.000  H
  C15      1.0000 0.00000  0.12470  0.75000  Biso   1.000  C
  H15      1.0000 0.00000  0.17510  0.75000  Biso   1.000  H
  C16      1.0000 0.50000  0.62470  0.75000  Biso   1.000  C
  H16      1.0000 0.50000  0.67510  0.75000  Biso   1.000  H
