data_KEFWEZ_charged
_audit_creation_date              2014-07-02
_audit_creation_method            'Materials Studio'
_symmetry_space_group_name_H-M    'P1'
_symmetry_Int_Tables_number       1
_symmetry_cell_setting            triclinic
loop_
_symmetry_equiv_pos_as_xyz
  x,y,z
_cell_length_a                    9.2915
_cell_length_b                    15.0734
_cell_length_c                    17.8179
_cell_angle_alpha                 90.0000
_cell_angle_beta                  97.3230
_cell_angle_gamma                 90.0000
loop_
_atom_site_label
_atom_site_type_symbol
_atom_site_fract_x
_atom_site_fract_y
_atom_site_fract_z
_atom_site_U_iso_or_equiv
_atom_site_adp_type
_atom_site_occupancy
Co1    Co    0.42287   0.11256   0.33636   0.01267  Uiso   1.00
Co2    Co    0.57713   0.61256   0.16364   0.01267  Uiso   1.00
Co3    Co    0.57713   0.88744   0.66364   0.01267  Uiso   1.00
Co4    Co    0.42287   0.38744   0.83636   0.01267  Uiso   1.00
Co5    Co    0.50000   0.00000   0.50000   0.01267  Uiso   1.00
Co6    Co    0.50000   0.50000   0.00000   0.01267  Uiso   1.00
H1     H     0.04600   0.85970   0.45430   0.01267  Uiso   1.00
H2     H     0.77180   0.88020   0.43350   0.01267  Uiso   1.00
H3     H     0.63580   0.50660   0.44810   0.01267  Uiso   1.00
H4     H     0.61000   0.60250   0.56210   0.01267  Uiso   1.00
H5     H     0.95400   0.35970   0.04570   0.01267  Uiso   1.00
H6     H     0.22820   0.38020   0.06650   0.01267  Uiso   1.00
H7     H     0.36420   0.00660   0.05190   0.01267  Uiso   1.00
H8     H     0.39000   0.10250   0.93790   0.01267  Uiso   1.00
H9     H     0.95400   0.14030   0.54570   0.01267  Uiso   1.00
H10    H     0.22820   0.11980   0.56650   0.01267  Uiso   1.00
H11    H     0.36420   0.49340   0.55190   0.01267  Uiso   1.00
H12    H     0.39000   0.39750   0.43790   0.01267  Uiso   1.00
H13    H     0.04600   0.64030   0.95430   0.01267  Uiso   1.00
H14    H     0.77180   0.61980   0.93350   0.01267  Uiso   1.00
H15    H     0.63580   0.99340   0.94810   0.01267  Uiso   1.00
H16    H     0.61000   0.89750   0.06210   0.01267  Uiso   1.00
C1     C     0.05300   0.98160   0.40400   0.01267  Uiso   1.00
C2     C     0.99550   0.90830   0.43210   0.01267  Uiso   1.00
C3     C     0.84140   0.92010   0.42110   0.01267  Uiso   1.00
C4     C     0.81720   0.00060   0.38920   0.01267  Uiso   1.00
C5     C     0.68510   0.05210   0.36560   0.01267  Uiso   1.00
C6     C     0.20570   0.00960   0.40150   0.01267  Uiso   1.00
C7     C     0.58690   0.70550   0.48750   0.01267  Uiso   1.00
C8     C     0.61360   0.62280   0.38960   0.01267  Uiso   1.00
C9     C     0.62230   0.56770   0.44860   0.01267  Uiso   1.00
C10    C     0.60690   0.62160   0.51230   0.01267  Uiso   1.00
C11    C     0.56310   0.79010   0.52750   0.01267  Uiso   1.00
C12    C     0.61520   0.60900   0.30750   0.01267  Uiso   1.00
C13    C     0.94700   0.48160   0.09600   0.01267  Uiso   1.00
C14    C     0.00450   0.40830   0.06790   0.01267  Uiso   1.00
C15    C     0.15860   0.42010   0.07890   0.01267  Uiso   1.00
C16    C     0.18280   0.50060   0.11080   0.01267  Uiso   1.00
C17    C     0.31490   0.55210   0.13440   0.01267  Uiso   1.00
C18    C     0.79430   0.50960   0.09850   0.01267  Uiso   1.00
C19    C     0.41310   0.20550   0.01250   0.01267  Uiso   1.00
C20    C     0.38640   0.12280   0.11040   0.01267  Uiso   1.00
C21    C     0.37770   0.06770   0.05140   0.01267  Uiso   1.00
C22    C     0.39310   0.12160   0.98770   0.01267  Uiso   1.00
C23    C     0.43690   0.29010   0.97250   0.01267  Uiso   1.00
C24    C     0.38480   0.10900   0.19250   0.01267  Uiso   1.00
C25    C     0.94700   0.01840   0.59600   0.01267  Uiso   1.00
C26    C     0.00450   0.09170   0.56790   0.01267  Uiso   1.00
C27    C     0.15860   0.07990   0.57890   0.01267  Uiso   1.00
C28    C     0.18280   0.99940   0.61080   0.01267  Uiso   1.00
C29    C     0.31490   0.94790   0.63440   0.01267  Uiso   1.00
C30    C     0.79430   0.99040   0.59850   0.01267  Uiso   1.00
C31    C     0.41310   0.29450   0.51250   0.01267  Uiso   1.00
C32    C     0.38640   0.37720   0.61040   0.01267  Uiso   1.00
C33    C     0.37770   0.43230   0.55140   0.01267  Uiso   1.00
C34    C     0.39310   0.37840   0.48770   0.01267  Uiso   1.00
C35    C     0.43690   0.20990   0.47250   0.01267  Uiso   1.00
C36    C     0.38480   0.39100   0.69250   0.01267  Uiso   1.00
C37    C     0.05300   0.51840   0.90400   0.01267  Uiso   1.00
C38    C     0.99550   0.59170   0.93210   0.01267  Uiso   1.00
C39    C     0.84140   0.57990   0.92110   0.01267  Uiso   1.00
C40    C     0.81720   0.49940   0.88920   0.01267  Uiso   1.00
C41    C     0.68510   0.44790   0.86560   0.01267  Uiso   1.00
C42    C     0.20570   0.49040   0.90150   0.01267  Uiso   1.00
C43    C     0.58690   0.79450   0.98750   0.01267  Uiso   1.00
C44    C     0.61360   0.87720   0.88960   0.01267  Uiso   1.00
C45    C     0.62230   0.93230   0.94860   0.01267  Uiso   1.00
C46    C     0.60690   0.87840   0.01230   0.01267  Uiso   1.00
C47    C     0.56310   0.70990   0.02750   0.01267  Uiso   1.00
C48    C     0.61520   0.89100   0.80750   0.01267  Uiso   1.00
O1     O     0.94710   0.03950   0.37630   0.01267  Uiso   1.00
O2     O     0.68270   0.11940   0.32790   0.01267  Uiso   1.00
O3     O     0.56520   0.01900   0.38630   0.01267  Uiso   1.00
O4     O     0.22810   0.07170   0.35970   0.01267  Uiso   1.00
O5     O     0.29790   0.96630   0.44560   0.01267  Uiso   1.00
O6     O     0.59020   0.70870   0.41150   0.01267  Uiso   1.00
O7     O     0.55420   0.86030   0.49130   0.01267  Uiso   1.00
O8     O     0.55780   0.78090   0.59770   0.01267  Uiso   1.00
O9     O     0.60480   0.67590   0.26460   0.01267  Uiso   1.00
O10    O     0.62180   0.53310   0.28200   0.01267  Uiso   1.00
O11    O     0.05290   0.53950   0.12370   0.01267  Uiso   1.00
O12    O     0.31730   0.61940   0.17210   0.01267  Uiso   1.00
O13    O     0.43480   0.51900   0.11370   0.01267  Uiso   1.00
O14    O     0.77190   0.57170   0.14030   0.01267  Uiso   1.00
O15    O     0.70210   0.46630   0.05440   0.01267  Uiso   1.00
O16    O     0.40980   0.20870   0.08850   0.01267  Uiso   1.00
O17    O     0.44580   0.36030   0.00870   0.01267  Uiso   1.00
O18    O     0.44220   0.28090   0.90230   0.01267  Uiso   1.00
O19    O     0.39520   0.17590   0.23540   0.01267  Uiso   1.00
O20    O     0.37820   0.03310   0.21800   0.01267  Uiso   1.00
O21    O     0.05290   0.96050   0.62370   0.01267  Uiso   1.00
O22    O     0.31730   0.88060   0.67210   0.01267  Uiso   1.00
O23    O     0.43480   0.98100   0.61370   0.01267  Uiso   1.00
O24    O     0.77190   0.92830   0.64030   0.01267  Uiso   1.00
O25    O     0.70210   0.03370   0.55440   0.01267  Uiso   1.00
O26    O     0.40980   0.29130   0.58850   0.01267  Uiso   1.00
O27    O     0.44580   0.13970   0.50870   0.01267  Uiso   1.00
O28    O     0.44220   0.21910   0.40230   0.01267  Uiso   1.00
O29    O     0.39520   0.32410   0.73540   0.01267  Uiso   1.00
O30    O     0.37820   0.46690   0.71800   0.01267  Uiso   1.00
O31    O     0.94710   0.46050   0.87630   0.01267  Uiso   1.00
O32    O     0.68270   0.38060   0.82790   0.01267  Uiso   1.00
O33    O     0.56520   0.48100   0.88630   0.01267  Uiso   1.00
O34    O     0.22810   0.42830   0.85970   0.01267  Uiso   1.00
O35    O     0.29790   0.53370   0.94560   0.01267  Uiso   1.00
O36    O     0.59020   0.79130   0.91150   0.01267  Uiso   1.00
O37    O     0.55420   0.63970   0.99130   0.01267  Uiso   1.00
O38    O     0.55780   0.71910   0.09770   0.01267  Uiso   1.00
O39    O     0.60480   0.82410   0.76460   0.01267  Uiso   1.00
O40    O     0.62180   0.96690   0.78200   0.01267  Uiso   1.00
H17    H     0.46140   0.72000   0.72260   0.01267  Uiso   1.00
H18    H     0.40400   0.63620   0.69290   0.01267  Uiso   1.00
H19    H     0.62980   0.61640   0.79470   0.01267  Uiso   1.00
H20    H     0.59620   0.57060   0.71540   0.01267  Uiso   1.00
H21    H     0.66110   0.66670   0.72150   0.01267  Uiso   1.00
H22    H     0.42460   0.64750   0.84080   0.01267  Uiso   1.00
H23    H     0.31080   0.71070   0.79570   0.01267  Uiso   1.00
H24    H     0.29820   0.60780   0.78410   0.01267  Uiso   1.00
C49    C     0.59690   0.62600   0.74200   0.01267  Uiso   1.00
C50    C     0.36440   0.65660   0.79350   0.01267  Uiso   1.00
N1     N     0.45360   0.66210   0.73380   0.01267  Uiso   1.00
H25    H     0.53860   0.22000   0.77740   0.01267  Uiso   1.00
H26    H     0.59600   0.13620   0.80710   0.01267  Uiso   1.00
H27    H     0.37020   0.11640   0.70530   0.01267  Uiso   1.00
H28    H     0.40380   0.07060   0.78460   0.01267  Uiso   1.00
H29    H     0.33890   0.16670   0.77850   0.01267  Uiso   1.00
H30    H     0.57540   0.14750   0.65920   0.01267  Uiso   1.00
H31    H     0.68920   0.21070   0.70430   0.01267  Uiso   1.00
H32    H     0.70180   0.10780   0.71590   0.01267  Uiso   1.00
C51    C     0.40310   0.12600   0.75800   0.01267  Uiso   1.00
C52    C     0.63560   0.15660   0.70650   0.01267  Uiso   1.00
N2     N     0.54640   0.16210   0.76620   0.01267  Uiso   1.00
H33    H     0.53860   0.28000   0.27740   0.01267  Uiso   1.00
H34    H     0.59600   0.36380   0.30710   0.01267  Uiso   1.00
H35    H     0.37020   0.38360   0.20530   0.01267  Uiso   1.00
H36    H     0.40380   0.42940   0.28460   0.01267  Uiso   1.00
H37    H     0.33890   0.33330   0.27850   0.01267  Uiso   1.00
H38    H     0.57540   0.35250   0.15920   0.01267  Uiso   1.00
H39    H     0.68920   0.28930   0.20430   0.01267  Uiso   1.00
H40    H     0.70180   0.39220   0.21590   0.01267  Uiso   1.00
C53    C     0.40310   0.37400   0.25800   0.01267  Uiso   1.00
C54    C     0.63560   0.34340   0.20650   0.01267  Uiso   1.00
N3     N     0.54640   0.33790   0.26620   0.01267  Uiso   1.00
H41    H     0.46140   0.78000   0.22260   0.01267  Uiso   1.00
H42    H     0.40400   0.86380   0.19290   0.01267  Uiso   1.00
H43    H     0.62980   0.88360   0.29470   0.01267  Uiso   1.00
H44    H     0.59620   0.92940   0.21540   0.01267  Uiso   1.00
H45    H     0.66110   0.83330   0.22150   0.01267  Uiso   1.00
H46    H     0.42460   0.85250   0.34080   0.01267  Uiso   1.00
H47    H     0.31080   0.78930   0.29570   0.01267  Uiso   1.00
H48    H     0.29820   0.89220   0.28410   0.01267  Uiso   1.00
C55    C     0.59690   0.87400   0.24200   0.01267  Uiso   1.00
C56    C     0.36440   0.84340   0.29350   0.01267  Uiso   1.00
N4     N     0.45360   0.83790   0.23380   0.01267  Uiso   1.00
