data_KEFWID_clean
_audit_creation_date              2014-07-02
_audit_creation_method            'Materials Studio'
_symmetry_space_group_name_H-M    'P1'
_symmetry_Int_Tables_number       1
_symmetry_cell_setting            triclinic
loop_
_symmetry_equiv_pos_as_xyz
  x,y,z
_cell_length_a                    10.7608
_cell_length_b                    11.6351
_cell_length_c                    16.8538
_cell_angle_alpha                 84.9662
_cell_angle_beta                  79.0621
_cell_angle_gamma                 62.4561
loop_
_atom_site_label
_atom_site_type_symbol
_atom_site_fract_x
_atom_site_fract_y
_atom_site_fract_z
_atom_site_U_iso_or_equiv
_atom_site_adp_type
_atom_site_occupancy
Gd1    Gd    0.74409   0.17086   0.05143   0.01267  Uiso   1.00
Gd2    Gd    0.08505   0.17086   0.44857   0.01267  Uiso   1.00
Gd3    Gd    0.25591   0.82914   0.94857   0.01267  Uiso   1.00
Gd4    Gd    0.91495   0.82914   0.55143   0.01267  Uiso   1.00
Co1    Co    0.50000   0.50000   0.00000   0.01267  Uiso   1.00
Co2    Co    0.00000   0.50000   0.50000   0.01267  Uiso   1.00
H1     H     0.68140   0.53700   0.82630   0.01267  Uiso   1.00
H2     H     0.58500   0.71300   0.19100   0.01267  Uiso   1.00
H3     H     0.97340   0.41420   0.06900   0.01267  Uiso   1.00
H4     H     0.16830   0.47200   0.07880   0.01267  Uiso   1.00
H5     H     0.78160   0.53700   0.67370   0.01267  Uiso   1.00
H6     H     0.70200   0.71300   0.30900   0.01267  Uiso   1.00
H7     H     0.61240   0.41420   0.43100   0.01267  Uiso   1.00
H8     H     0.35970   0.47200   0.42120   0.01267  Uiso   1.00
H9     H     0.31860   0.46300   0.17370   0.01267  Uiso   1.00
H10    H     0.41500   0.28700   0.80900   0.01267  Uiso   1.00
H11    H     0.02660   0.58580   0.93100   0.01267  Uiso   1.00
H12    H     0.83170   0.52800   0.92120   0.01267  Uiso   1.00
H13    H     0.21840   0.46300   0.32630   0.01267  Uiso   1.00
H14    H     0.29800   0.28700   0.69100   0.01267  Uiso   1.00
H15    H     0.38760   0.58580   0.56900   0.01267  Uiso   1.00
H16    H     0.64030   0.52800   0.57880   0.01267  Uiso   1.00
C1     C     0.78770   0.33960   0.81500   0.01267  Uiso   1.00
C2     C     0.73900   0.46520   0.79330   0.01267  Uiso   1.00
C3     C     0.77090   0.27740   0.89270   0.01267  Uiso   1.00
C4     C     0.64590   0.64080   0.21730   0.01267  Uiso   1.00
C5     C     0.68780   0.51560   0.20120   0.01267  Uiso   1.00
C6     C     0.65230   0.45340   0.14080   0.01267  Uiso   1.00
C7     C     0.45210   0.26200   0.02750   0.01267  Uiso   1.00
C8     C     0.08320   0.14880   0.00770   0.01267  Uiso   1.00
C9     C     0.13510   0.24040   0.02340   0.01267  Uiso   1.00
C10    C     0.07070   0.36220   0.05420   0.01267  Uiso   1.00
C11    C     0.17980   0.39480   0.05920   0.01267  Uiso   1.00
C12    C     0.30310   0.29380   0.03060   0.01267  Uiso   1.00
C13    C     0.87270   0.33960   0.68500   0.01267  Uiso   1.00
C14    C     0.79580   0.46520   0.70670   0.01267  Uiso   1.00
C15    C     0.95170   0.27740   0.60730   0.01267  Uiso   1.00
C16    C     0.71330   0.64080   0.28270   0.01267  Uiso   1.00
C17    C     0.79660   0.51560   0.29880   0.01267  Uiso   1.00
C18    C     0.89430   0.45340   0.35920   0.01267  Uiso   1.00
C19    C     0.28590   0.26200   0.47250   0.01267  Uiso   1.00
C20    C     0.76800   0.14880   0.49230   0.01267  Uiso   1.00
C21    C     0.62450   0.24040   0.47660   0.01267  Uiso   1.00
C22    C     0.56710   0.36220   0.44580   0.01267  Uiso   1.00
C23    C     0.42540   0.39480   0.44080   0.01267  Uiso   1.00
C24    C     0.40310   0.29380   0.46940   0.01267  Uiso   1.00
C25    C     0.21230   0.66040   0.18500   0.01267  Uiso   1.00
C26    C     0.26100   0.53480   0.20670   0.01267  Uiso   1.00
C27    C     0.22910   0.72260   0.10730   0.01267  Uiso   1.00
C28    C     0.35410   0.35920   0.78270   0.01267  Uiso   1.00
C29    C     0.31220   0.48440   0.79880   0.01267  Uiso   1.00
C30    C     0.34770   0.54660   0.85920   0.01267  Uiso   1.00
C31    C     0.54790   0.73800   0.97250   0.01267  Uiso   1.00
C32    C     0.91680   0.85120   0.99230   0.01267  Uiso   1.00
C33    C     0.86490   0.75960   0.97660   0.01267  Uiso   1.00
C34    C     0.92930   0.63780   0.94580   0.01267  Uiso   1.00
C35    C     0.82020   0.60520   0.94080   0.01267  Uiso   1.00
C36    C     0.69690   0.70620   0.96940   0.01267  Uiso   1.00
C37    C     0.12730   0.66040   0.31500   0.01267  Uiso   1.00
C38    C     0.20420   0.53480   0.29330   0.01267  Uiso   1.00
C39    C     0.04830   0.72260   0.39270   0.01267  Uiso   1.00
C40    C     0.28670   0.35920   0.71730   0.01267  Uiso   1.00
C41    C     0.20340   0.48440   0.70120   0.01267  Uiso   1.00
C42    C     0.10570   0.54660   0.64080   0.01267  Uiso   1.00
C43    C     0.71410   0.73800   0.52750   0.01267  Uiso   1.00
C44    C     0.23200   0.85120   0.50770   0.01267  Uiso   1.00
C45    C     0.37550   0.75960   0.52340   0.01267  Uiso   1.00
C46    C     0.43290   0.63780   0.55420   0.01267  Uiso   1.00
C47    C     0.57460   0.60520   0.55920   0.01267  Uiso   1.00
C48    C     0.59690   0.70620   0.53060   0.01267  Uiso   1.00
O1     O     0.82500   0.15780   0.89940   0.01267  Uiso   1.00
O2     O     0.70240   0.35100   0.95400   0.01267  Uiso   1.00
O3     O     0.16930   0.04320   0.97910   0.01267  Uiso   1.00
O4     O     0.95080   0.19100   0.02410   0.01267  Uiso   1.00
O5     O     0.27890   0.19600   0.00830   0.01267  Uiso   1.00
O6     O     0.47810   0.34380   0.05960   0.01267  Uiso   1.00
O7     O     0.55130   0.16000   0.99640   0.01267  Uiso   1.00
O8     O     0.70270   0.33240   0.14220   0.01267  Uiso   1.00
O9     O     0.57370   0.53120   0.09400   0.01267  Uiso   1.00
O10    O     0.01720   0.15780   0.60060   0.01267  Uiso   1.00
O11    O     0.94660   0.35100   0.54600   0.01267  Uiso   1.00
O12    O     0.78750   0.04320   0.52090   0.01267  Uiso   1.00
O13    O     0.85820   0.19100   0.47590   0.01267  Uiso   1.00
O14    O     0.52510   0.19600   0.49170   0.01267  Uiso   1.00
O15    O     0.17810   0.34380   0.44040   0.01267  Uiso   1.00
O16    O     0.28870   0.16000   0.50360   0.01267  Uiso   1.00
O17    O     0.96490   0.33240   0.35780   0.01267  Uiso   1.00
O18    O     0.89510   0.53120   0.40600   0.01267  Uiso   1.00
O19    O     0.17500   0.84220   0.10060   0.01267  Uiso   1.00
O20    O     0.29760   0.64900   0.04600   0.01267  Uiso   1.00
O21    O     0.83070   0.95680   0.02090   0.01267  Uiso   1.00
O22    O     0.04920   0.80900   0.97590   0.01267  Uiso   1.00
O23    O     0.72110   0.80400   0.99170   0.01267  Uiso   1.00
O24    O     0.52190   0.65620   0.94040   0.01267  Uiso   1.00
O25    O     0.44870   0.84000   0.00360   0.01267  Uiso   1.00
O26    O     0.29730   0.66760   0.85780   0.01267  Uiso   1.00
O27    O     0.42630   0.46880   0.90600   0.01267  Uiso   1.00
O28    O     0.98280   0.84220   0.39940   0.01267  Uiso   1.00
O29    O     0.05340   0.64900   0.45400   0.01267  Uiso   1.00
O30    O     0.21250   0.95680   0.47910   0.01267  Uiso   1.00
O31    O     0.14180   0.80900   0.52410   0.01267  Uiso   1.00
O32    O     0.47490   0.80400   0.50830   0.01267  Uiso   1.00
O33    O     0.82190   0.65620   0.55960   0.01267  Uiso   1.00
O34    O     0.71130   0.84000   0.49640   0.01267  Uiso   1.00
O35    O     0.03510   0.66760   0.64220   0.01267  Uiso   1.00
O36    O     0.10490   0.46880   0.59400   0.01267  Uiso   1.00
O37    O     0.87030   0.25940   0.75000   0.01267  Uiso   1.00
O38    O     0.12970   0.74060   0.25000   0.01267  Uiso   1.00
O39    O     0.78170   0.43660   0.25000   0.01267  Uiso   1.00
O40    O     0.21830   0.56340   0.75000   0.01267  Uiso   1.00
