data_image0
_cell_length_a       12.7949
_cell_length_b       8.2582
_cell_length_c       18.2006
_cell_angle_alpha    90
_cell_angle_beta     107.778
_cell_angle_gamma    90

_symmetry_space_group_name_H-M    "P 1"
_symmetry_int_tables_number       1

loop_
  _symmetry_equiv_pos_as_xyz
  'x, y, z'

loop_
  _atom_site_label
  _atom_site_occupancy
  _atom_site_fract_x
  _atom_site_fract_y
  _atom_site_fract_z
  _atom_site_thermal_displace_type
  _atom_site_B_iso_or_equiv
  _atom_site_type_symbol
  Co1      1.0000 0.25856  0.80963  0.55834  Biso   1.000  Co
  O1       1.0000 0.41652  0.75540  0.56480  Biso   1.000  O
  O2       1.0000 0.44277  0.49930  0.60903  Biso   1.000  O
  O3       1.0000 0.61079  0.75380  0.53536  Biso   1.000  O
  O4       1.0000 0.26889  0.66110  0.18659  Biso   1.000  O
  O5       1.0000 0.11813  0.62870  0.08973  Biso   1.000  O
  O6       1.0000 0.70204  0.95090  0.45467  Biso   1.000  O
  O7       1.0000 0.19615  0.78840  0.44080  Biso   1.000  O
  O8       1.0000 0.14888  0.70520  0.28856  Biso   1.000  O
  O9       1.0000 0.87151  0.85880  0.51962  Biso   1.000  O
  O10      1.0000 0.01528  0.82840  0.42325  Biso   1.000  O
  C1       1.0000 0.47300  0.62780  0.58428  Biso   1.000  C
  C2       1.0000 0.58630  0.63220  0.57905  Biso   1.000  C
  C3       1.0000 0.67590  0.54370  0.61170  Biso   1.000  C
  H1       1.0000 0.68010  0.45390  0.64330  Biso   1.000  H
  C4       1.0000 0.76270  0.61110  0.58972  Biso   1.000  C
  H2       1.0000 0.83510  0.57520  0.60440  Biso   1.000  H
  C5       1.0000 0.72120  0.73760  0.54331  Biso   1.000  C
  C6       1.0000 0.16710  0.64570  0.16198  Biso   1.000  C
  C7       1.0000 0.09810  0.66320  0.21312  Biso   1.000  C
  C8       1.0000 0.98800  0.66240  0.19849  Biso   1.000  C
  H3       1.0000 0.93570  0.63680  0.15190  Biso   1.000  H
  C9       1.0000 0.96790  0.70810  0.26766  Biso   1.000  C
  H4       1.0000 0.89960  0.71940  0.27530  Biso   1.000  H
  C10      1.0000 0.06670  0.73250  0.32072  Biso   1.000  C
  C11      1.0000 0.09570  0.78770  0.40173  Biso   1.000  C
  C12      1.0000 0.76910  0.85810  0.50270  Biso   1.000  C
  Co2      1.0000 0.74144  0.30963  0.94166  Biso   1.000  Co
  O11      1.0000 0.58348  0.25540  0.93520  Biso   1.000  O
  O12      1.0000 0.55723  0.99930  0.89097  Biso   1.000  O
  O13      1.0000 0.38921  0.25380  0.96464  Biso   1.000  O
  O14      1.0000 0.73111  0.16110  0.31341  Biso   1.000  O
  O15      1.0000 0.88187  0.12870  0.41027  Biso   1.000  O
  O16      1.0000 0.29796  0.45090  0.04533  Biso   1.000  O
  O17      1.0000 0.80385  0.28840  0.05920  Biso   1.000  O
  O18      1.0000 0.85112  0.20520  0.21144  Biso   1.000  O
  O19      1.0000 0.12849  0.35880  0.98038  Biso   1.000  O
  O20      1.0000 0.98472  0.32840  0.07675  Biso   1.000  O
  C13      1.0000 0.52700  0.12780  0.91572  Biso   1.000  C
  C14      1.0000 0.41370  0.13220  0.92095  Biso   1.000  C
  C15      1.0000 0.32410  0.04370  0.88830  Biso   1.000  C
  H5       1.0000 0.31990  0.95390  0.85670  Biso   1.000  H
  C16      1.0000 0.23730  0.11110  0.91028  Biso   1.000  C
  H6       1.0000 0.16490  0.07520  0.89560  Biso   1.000  H
  C17      1.0000 0.27880  0.23760  0.95669  Biso   1.000  C
  C18      1.0000 0.83290  0.14570  0.33802  Biso   1.000  C
  C19      1.0000 0.90190  0.16320  0.28688  Biso   1.000  C
  C20      1.0000 0.01200  0.16240  0.30151  Biso   1.000  C
  H7       1.0000 0.06430  0.13680  0.34810  Biso   1.000  H
  C21      1.0000 0.03210  0.20810  0.23234  Biso   1.000  C
  H8       1.0000 0.10040  0.21940  0.22470  Biso   1.000  H
  C22      1.0000 0.93330  0.23250  0.17928  Biso   1.000  C
  C23      1.0000 0.90430  0.28770  0.09827  Biso   1.000  C
  C24      1.0000 0.23090  0.35810  0.99730  Biso   1.000  C
  Co3      1.0000 0.74144  0.19037  0.44166  Biso   1.000  Co
  O21      1.0000 0.58348  0.24460  0.43520  Biso   1.000  O
  O22      1.0000 0.55723  0.50070  0.39097  Biso   1.000  O
  O23      1.0000 0.38921  0.24620  0.46464  Biso   1.000  O
  O24      1.0000 0.73111  0.33890  0.81341  Biso   1.000  O
  O25      1.0000 0.88187  0.37130  0.91027  Biso   1.000  O
  O26      1.0000 0.29796  0.04910  0.54533  Biso   1.000  O
  O27      1.0000 0.80385  0.21160  0.55920  Biso   1.000  O
  O28      1.0000 0.85112  0.29480  0.71144  Biso   1.000  O
  O29      1.0000 0.12849  0.14120  0.48038  Biso   1.000  O
  O30      1.0000 0.98472  0.17160  0.57675  Biso   1.000  O
  C25      1.0000 0.52700  0.37220  0.41572  Biso   1.000  C
  C26      1.0000 0.41370  0.36780  0.42095  Biso   1.000  C
  C27      1.0000 0.32410  0.45630  0.38830  Biso   1.000  C
  H9       1.0000 0.31990  0.54610  0.35670  Biso   1.000  H
  C28      1.0000 0.23730  0.38890  0.41028  Biso   1.000  C
  H10      1.0000 0.16490  0.42480  0.39560  Biso   1.000  H
  C29      1.0000 0.27880  0.26240  0.45669  Biso   1.000  C
  C30      1.0000 0.83290  0.35430  0.83802  Biso   1.000  C
  C31      1.0000 0.90190  0.33680  0.78688  Biso   1.000  C
  C32      1.0000 0.01200  0.33760  0.80151  Biso   1.000  C
  H11      1.0000 0.06430  0.36320  0.84810  Biso   1.000  H
  C33      1.0000 0.03210  0.29190  0.73234  Biso   1.000  C
  H12      1.0000 0.10040  0.28060  0.72470  Biso   1.000  H
  C34      1.0000 0.93330  0.26750  0.67928  Biso   1.000  C
  C35      1.0000 0.90430  0.21230  0.59827  Biso   1.000  C
  C36      1.0000 0.23090  0.14190  0.49730  Biso   1.000  C
  Co4      1.0000 0.25856  0.69037  0.05834  Biso   1.000  Co
  O31      1.0000 0.41652  0.74460  0.06480  Biso   1.000  O
  O32      1.0000 0.44277  0.00070  0.10903  Biso   1.000  O
  O33      1.0000 0.61079  0.74620  0.03536  Biso   1.000  O
  O34      1.0000 0.26889  0.83890  0.68659  Biso   1.000  O
  O35      1.0000 0.11813  0.87130  0.58973  Biso   1.000  O
  O36      1.0000 0.70204  0.54910  0.95467  Biso   1.000  O
  O37      1.0000 0.19615  0.71160  0.94080  Biso   1.000  O
  O38      1.0000 0.14888  0.79480  0.78856  Biso   1.000  O
  O39      1.0000 0.87151  0.64120  0.01962  Biso   1.000  O
  O40      1.0000 0.01528  0.67160  0.92325  Biso   1.000  O
  C37      1.0000 0.47300  0.87220  0.08428  Biso   1.000  C
  C38      1.0000 0.58630  0.86780  0.07905  Biso   1.000  C
  C39      1.0000 0.67590  0.95630  0.11170  Biso   1.000  C
  H13      1.0000 0.68010  0.04610  0.14330  Biso   1.000  H
  C40      1.0000 0.76270  0.88890  0.08972  Biso   1.000  C
  H14      1.0000 0.83510  0.92480  0.10440  Biso   1.000  H
  C41      1.0000 0.72120  0.76240  0.04331  Biso   1.000  C
  C42      1.0000 0.16710  0.85430  0.66198  Biso   1.000  C
  C43      1.0000 0.09810  0.83680  0.71312  Biso   1.000  C
  C44      1.0000 0.98800  0.83760  0.69849  Biso   1.000  C
  H15      1.0000 0.93570  0.86320  0.65190  Biso   1.000  H
  C45      1.0000 0.96790  0.79190  0.76766  Biso   1.000  C
  H16      1.0000 0.89960  0.78060  0.77530  Biso   1.000  H
  C46      1.0000 0.06670  0.76750  0.82072  Biso   1.000  C
  C47      1.0000 0.09570  0.71230  0.90173  Biso   1.000  C
  C48      1.0000 0.76910  0.64190  0.00270  Biso   1.000  C
  Co5      1.0000 0.00000  0.00000  0.50000  Biso   1.000  Co
  Co6      1.0000 0.00000  0.50000  0.00000  Biso   1.000  Co
