data_KEGYAX_clean
_audit_creation_date              2014-07-02
_audit_creation_method            'Materials Studio'
_symmetry_space_group_name_H-M    'P1'
_symmetry_Int_Tables_number       1
_symmetry_cell_setting            triclinic
loop_
_symmetry_equiv_pos_as_xyz
  x,y,z
_cell_length_a                    6.3632
_cell_length_b                    9.4906
_cell_length_c                    15.1002
_cell_angle_alpha                 96.5750
_cell_angle_beta                  93.0940
_cell_angle_gamma                 100.2210
loop_
_atom_site_label
_atom_site_type_symbol
_atom_site_fract_x
_atom_site_fract_y
_atom_site_fract_z
_atom_site_U_iso_or_equiv
_atom_site_adp_type
_atom_site_occupancy
Ag1    Ag    0.62477   0.13980   0.98749   0.01267  Uiso   1.00
Ag2    Ag    0.13808   0.58685   0.57397   0.01267  Uiso   1.00
Ag3    Ag    0.44510   0.59046   0.41613   0.01267  Uiso   1.00
Ag4    Ag    0.37523   0.86020   0.01251   0.01267  Uiso   1.00
Ag5    Ag    0.86192   0.41315   0.42603   0.01267  Uiso   1.00
Ag6    Ag    0.55490   0.40954   0.58387   0.01267  Uiso   1.00
H1     H     0.17800   0.60100   0.20100   0.01267  Uiso   1.00
H2     H     0.54900   0.11000   0.42300   0.01267  Uiso   1.00
H3     H     0.11400   0.11500   0.10000   0.01267  Uiso   1.00
H4     H     0.76980   0.00320   0.26530   0.01267  Uiso   1.00
H5     H     0.77760   0.76940   0.25780   0.01267  Uiso   1.00
H6     H     0.86740   0.90580   0.39010   0.01267  Uiso   1.00
H7     H     0.18580   0.00660   0.45650   0.01267  Uiso   1.00
H8     H     0.00050   0.13670   0.38090   0.01267  Uiso   1.00
H9     H     0.01430   0.18970   0.24210   0.01267  Uiso   1.00
H10    H     0.82200   0.39900   0.79900   0.01267  Uiso   1.00
H11    H     0.45100   0.89000   0.57700   0.01267  Uiso   1.00
H12    H     0.88600   0.88500   0.90000   0.01267  Uiso   1.00
H13    H     0.23020   0.99680   0.73470   0.01267  Uiso   1.00
H14    H     0.22240   0.23060   0.74220   0.01267  Uiso   1.00
H15    H     0.13260   0.09420   0.60990   0.01267  Uiso   1.00
H16    H     0.81420   0.99340   0.54350   0.01267  Uiso   1.00
H17    H     0.99950   0.86330   0.61910   0.01267  Uiso   1.00
H18    H     0.98570   0.81030   0.75790   0.01267  Uiso   1.00
C1     C     0.88340   0.97460   0.22980   0.01267  Uiso   1.00
C2     C     0.91800   0.83330   0.26400   0.01267  Uiso   1.00
C3     C     0.98560   0.86480   0.36510   0.01267  Uiso   1.00
C4     C     0.18100   0.98540   0.39130   0.01267  Uiso   1.00
C5     C     0.13410   0.12280   0.35470   0.01267  Uiso   1.00
C6     C     0.07220   0.10390   0.25340   0.01267  Uiso   1.00
C7     C     0.78380   0.95270   0.13450   0.01267  Uiso   1.00
C8     C     0.06170   0.75710   0.20700   0.01267  Uiso   1.00
C9     C     0.98610   0.73120   0.41190   0.01267  Uiso   1.00
C10    C     0.39350   0.93680   0.37160   0.01267  Uiso   1.00
C11    C     0.28770   0.26320   0.38890   0.01267  Uiso   1.00
C12    C     0.26880   0.10770   0.20040   0.01267  Uiso   1.00
C13    C     0.11660   0.02540   0.77020   0.01267  Uiso   1.00
C14    C     0.08200   0.16670   0.73600   0.01267  Uiso   1.00
C15    C     0.01440   0.13520   0.63490   0.01267  Uiso   1.00
C16    C     0.81900   0.01460   0.60870   0.01267  Uiso   1.00
C17    C     0.86590   0.87720   0.64530   0.01267  Uiso   1.00
C18    C     0.92780   0.89610   0.74660   0.01267  Uiso   1.00
C19    C     0.21620   0.04730   0.86550   0.01267  Uiso   1.00
C20    C     0.93830   0.24290   0.79300   0.01267  Uiso   1.00
C21    C     0.01390   0.26880   0.58810   0.01267  Uiso   1.00
C22    C     0.60650   0.06320   0.62840   0.01267  Uiso   1.00
C23    C     0.71230   0.73680   0.61110   0.01267  Uiso   1.00
C24    C     0.73120   0.89230   0.79960   0.01267  Uiso   1.00
O1     O     0.83390   0.05220   0.08600   0.01267  Uiso   1.00
O2     O     0.64650   0.84020   0.11000   0.01267  Uiso   1.00
O3     O     0.15050   0.80930   0.14680   0.01267  Uiso   1.00
O4     O     0.06950   0.62460   0.22500   0.01267  Uiso   1.00
O5     O     0.12150   0.73930   0.47640   0.01267  Uiso   1.00
O6     O     0.83930   0.62500   0.38660   0.01267  Uiso   1.00
O7     O     0.40580   0.82070   0.33270   0.01267  Uiso   1.00
O8     O     0.56980   0.02560   0.40730   0.01267  Uiso   1.00
O9     O     0.43480   0.26210   0.44790   0.01267  Uiso   1.00
O10    O     0.24930   0.37630   0.36010   0.01267  Uiso   1.00
O11    O     0.44520   0.11510   0.23620   0.01267  Uiso   1.00
O12    O     0.24540   0.11820   0.11440   0.01267  Uiso   1.00
O13    O     0.16610   0.94780   0.91400   0.01267  Uiso   1.00
O14    O     0.35350   0.15980   0.89000   0.01267  Uiso   1.00
O15    O     0.84950   0.19070   0.85320   0.01267  Uiso   1.00
O16    O     0.93050   0.37540   0.77500   0.01267  Uiso   1.00
O17    O     0.87850   0.26070   0.52360   0.01267  Uiso   1.00
O18    O     0.16070   0.37500   0.61340   0.01267  Uiso   1.00
O19    O     0.59420   0.17930   0.66730   0.01267  Uiso   1.00
O20    O     0.43020   0.97440   0.59270   0.01267  Uiso   1.00
O21    O     0.56520   0.73790   0.55210   0.01267  Uiso   1.00
O22    O     0.75070   0.62370   0.63990   0.01267  Uiso   1.00
O23    O     0.55480   0.88490   0.76380   0.01267  Uiso   1.00
O24    O     0.75460   0.88180   0.88560   0.01267  Uiso   1.00
