data_image0
_cell_length_a       11.6012
_cell_length_b       11.6012
_cell_length_c       11.6012
_cell_angle_alpha    90
_cell_angle_beta     90
_cell_angle_gamma    90

_symmetry_space_group_name_H-M    "P 1"
_symmetry_int_tables_number       1

loop_
  _symmetry_equiv_pos_as_xyz
  'x, y, z'

loop_
  _atom_site_label
  _atom_site_occupancy
  _atom_site_fract_x
  _atom_site_fract_y
  _atom_site_fract_z
  _atom_site_thermal_displace_type
  _atom_site_B_iso_or_equiv
  _atom_site_type_symbol
  N1       1.0000 0.14970  0.64310  0.32140  Biso   1.000  N
  C1       1.0000 0.08690  0.59500  0.37880  Biso   1.000  C
  N2       1.0000 0.35030  0.35690  0.82140  Biso   1.000  N
  C2       1.0000 0.41310  0.40500  0.87880  Biso   1.000  C
  N3       1.0000 0.85030  0.14310  0.17860  Biso   1.000  N
  C3       1.0000 0.91310  0.09500  0.12120  Biso   1.000  C
  N4       1.0000 0.64970  0.85690  0.67860  Biso   1.000  N
  C4       1.0000 0.58690  0.90500  0.62120  Biso   1.000  C
  N5       1.0000 0.32140  0.14970  0.64310  Biso   1.000  N
  C5       1.0000 0.37880  0.08690  0.59500  Biso   1.000  C
  N6       1.0000 0.82140  0.35030  0.35690  Biso   1.000  N
  C6       1.0000 0.87880  0.41310  0.40500  Biso   1.000  C
  N7       1.0000 0.17860  0.85030  0.14310  Biso   1.000  N
  C7       1.0000 0.12120  0.91310  0.09500  Biso   1.000  C
  N8       1.0000 0.67860  0.64970  0.85690  Biso   1.000  N
  C8       1.0000 0.62120  0.58690  0.90500  Biso   1.000  C
  N9       1.0000 0.64310  0.32140  0.14970  Biso   1.000  N
  C9       1.0000 0.59500  0.37880  0.08690  Biso   1.000  C
  N10      1.0000 0.35690  0.82140  0.35030  Biso   1.000  N
  C10      1.0000 0.40500  0.87880  0.41310  Biso   1.000  C
  N11      1.0000 0.14310  0.17860  0.85030  Biso   1.000  N
  C11      1.0000 0.09500  0.12120  0.91310  Biso   1.000  C
  N12      1.0000 0.85690  0.67860  0.64970  Biso   1.000  N
  C12      1.0000 0.90500  0.62120  0.58690  Biso   1.000  C
  C13      1.0000 0.41620  0.58380  0.08380  Biso   1.000  C
  Cu1      1.0000 0.51310  0.48690  0.98690  Biso   1.000  Cu
  Zn1      1.0000 0.26113  0.73887  0.23887  Biso   1.000  Zn
  N13      1.0000 0.35870  0.64130  0.14130  Biso   1.000  N
  C14      1.0000 0.08380  0.41620  0.58380  Biso   1.000  C
  Cu2      1.0000 0.98690  0.51310  0.48690  Biso   1.000  Cu
  Zn2      1.0000 0.23887  0.26113  0.73887  Biso   1.000  Zn
  N14      1.0000 0.14130  0.35870  0.64130  Biso   1.000  N
  C15      1.0000 0.58380  0.08380  0.41620  Biso   1.000  C
  Cu3      1.0000 0.48690  0.98690  0.51310  Biso   1.000  Cu
  Zn3      1.0000 0.73887  0.23887  0.26113  Biso   1.000  Zn
  N15      1.0000 0.64130  0.14130  0.35870  Biso   1.000  N
  C16      1.0000 0.91620  0.91620  0.91620  Biso   1.000  C
  Cu4      1.0000 0.01310  0.01310  0.01310  Biso   1.000  Cu
  Zn4      1.0000 0.76113  0.76113  0.76113  Biso   1.000  Zn
  N16      1.0000 0.85870  0.85870  0.85870  Biso   1.000  N
