data_image0
_cell_length_a       11.6269
_cell_length_b       11.6269
_cell_length_c       11.6269
_cell_angle_alpha    90
_cell_angle_beta     90
_cell_angle_gamma    90

_symmetry_space_group_name_H-M    "P 1"
_symmetry_int_tables_number       1

loop_
  _symmetry_equiv_pos_as_xyz
  'x, y, z'

loop_
  _atom_site_label
  _atom_site_occupancy
  _atom_site_fract_x
  _atom_site_fract_y
  _atom_site_fract_z
  _atom_site_thermal_displace_type
  _atom_site_B_iso_or_equiv
  _atom_site_type_symbol
  Zn1      1.0000 0.00000  0.00000  0.00000  Biso   1.000  Zn
  Zn2      1.0000 0.00000  0.50000  0.50000  Biso   1.000  Zn
  Zn3      1.0000 0.50000  0.00000  0.50000  Biso   1.000  Zn
  Zn4      1.0000 0.50000  0.50000  0.00000  Biso   1.000  Zn
  Cu1      1.0000 0.75000  0.75000  0.75000  Biso   1.000  Cu
  Cu2      1.0000 0.25000  0.25000  0.75000  Biso   1.000  Cu
  Cu3      1.0000 0.25000  0.75000  0.25000  Biso   1.000  Cu
  Cu4      1.0000 0.75000  0.25000  0.25000  Biso   1.000  Cu
  C1       1.0000 0.84790  0.84790  0.84790  Biso   1.000  C
  N1       1.0000 0.90360  0.90360  0.90360  Biso   1.000  N
  C2       1.0000 0.84790  0.34790  0.34790  Biso   1.000  C
  N2       1.0000 0.90360  0.40360  0.40360  Biso   1.000  N
  C3       1.0000 0.34790  0.84790  0.34790  Biso   1.000  C
  N3       1.0000 0.40360  0.90360  0.40360  Biso   1.000  N
  C4       1.0000 0.34790  0.34790  0.84790  Biso   1.000  C
  N4       1.0000 0.40360  0.40360  0.90360  Biso   1.000  N
  C5       1.0000 0.15210  0.15210  0.84790  Biso   1.000  C
  N5       1.0000 0.09640  0.09640  0.90360  Biso   1.000  N
  C6       1.0000 0.15210  0.65210  0.34790  Biso   1.000  C
  N6       1.0000 0.09640  0.59640  0.40360  Biso   1.000  N
  C7       1.0000 0.65210  0.15210  0.34790  Biso   1.000  C
  N7       1.0000 0.59640  0.09640  0.40360  Biso   1.000  N
  C8       1.0000 0.65210  0.65210  0.84790  Biso   1.000  C
  N8       1.0000 0.59640  0.59640  0.90360  Biso   1.000  N
  C9       1.0000 0.15210  0.84790  0.15210  Biso   1.000  C
  N9       1.0000 0.09640  0.90360  0.09640  Biso   1.000  N
  C10      1.0000 0.15210  0.34790  0.65210  Biso   1.000  C
  N10      1.0000 0.09640  0.40360  0.59640  Biso   1.000  N
  C11      1.0000 0.65210  0.84790  0.65210  Biso   1.000  C
  N11      1.0000 0.59640  0.90360  0.59640  Biso   1.000  N
  C12      1.0000 0.65210  0.34790  0.15210  Biso   1.000  C
  N12      1.0000 0.59640  0.40360  0.09640  Biso   1.000  N
  C13      1.0000 0.84790  0.15210  0.15210  Biso   1.000  C
  N13      1.0000 0.90360  0.09640  0.09640  Biso   1.000  N
  C14      1.0000 0.84790  0.65210  0.65210  Biso   1.000  C
  N14      1.0000 0.90360  0.59640  0.59640  Biso   1.000  N
  C15      1.0000 0.34790  0.15210  0.65210  Biso   1.000  C
  N15      1.0000 0.40360  0.09640  0.59640  Biso   1.000  N
  C16      1.0000 0.34790  0.65210  0.15210  Biso   1.000  C
  N16      1.0000 0.40360  0.59640  0.09640  Biso   1.000  N
