data_image0
_cell_length_a       6.5192
_cell_length_b       15.4818
_cell_length_c       16.9913
_cell_angle_alpha    89.23
_cell_angle_beta     84.607
_cell_angle_gamma    85.574

_symmetry_space_group_name_H-M    "P 1"
_symmetry_int_tables_number       1

loop_
  _symmetry_equiv_pos_as_xyz
  'x, y, z'

loop_
  _atom_site_label
  _atom_site_occupancy
  _atom_site_fract_x
  _atom_site_fract_y
  _atom_site_fract_z
  _atom_site_thermal_displace_type
  _atom_site_B_iso_or_equiv
  _atom_site_type_symbol
  Ag1      1.0000 0.72880  0.02035  0.05761  Biso   1.000  Ag
  Ag2      1.0000 0.74721  0.53013  0.43691  Biso   1.000  Ag
  N1       1.0000 0.43990  0.10340  0.07280  Biso   1.000  N
  N2       1.0000 0.30470  0.10970  0.01460  Biso   1.000  N
  N3       1.0000 0.23710  0.22130  0.09460  Biso   1.000  N
  N4       1.0000 0.48370  0.48640  0.38210  Biso   1.000  N
  N5       1.0000 0.37360  0.42280  0.42340  Biso   1.000  N
  N6       1.0000 0.27550  0.43400  0.30390  Biso   1.000  N
  N7       1.0000 0.85510  0.39500  0.50660  Biso   1.000  N
  N8       1.0000 0.97640  0.39670  0.57090  Biso   1.000  N
  N9       1.0000 0.78650  0.28620  0.58600  Biso   1.000  N
  N10      1.0000 0.84200  0.07970  0.92420  Biso   1.000  N
  N11      1.0000 0.99250  0.02210  0.88610  Biso   1.000  N
  N12      1.0000 0.78420  0.07070  0.79980  Biso   1.000  N
  C1       1.0000 0.39470  0.16960  0.11950  Biso   1.000  C
  H1       1.0000 0.46270  0.17990  0.16450  Biso   1.000  H
  C2       1.0000 0.18570  0.18130  0.02910  Biso   1.000  C
  H2       1.0000 0.07940  0.20200  0.99840  Biso   1.000  H
  C3       1.0000 0.41700  0.49150  0.31100  Biso   1.000  C
  H3       1.0000 0.46200  0.53000  0.27100  Biso   1.000  H
  C4       1.0000 0.25380  0.39310  0.37560  Biso   1.000  C
  H4       1.0000 0.16380  0.34940  0.38840  Biso   1.000  H
  C5       1.0000 0.14570  0.30620  0.12690  Biso   1.000  C
  C6       1.0000 0.25680  0.32600  0.20050  Biso   1.000  C
  H5       1.0000 0.23530  0.28090  0.24090  Biso   1.000  H
  H6       1.0000 0.40570  0.32720  0.18600  Biso   1.000  H
  C7       1.0000 0.16730  0.41440  0.23290  Biso   1.000  C
  C8       1.0000 0.20220  0.48490  0.17020  Biso   1.000  C
  H7       1.0000 0.35030  0.48690  0.15460  Biso   1.000  H
  H8       1.0000 0.14900  0.54160  0.19170  Biso   1.000  H
  C9       1.0000 0.08910  0.46440  0.09810  Biso   1.000  C
  H9       1.0000 0.10850  0.51030  0.05750  Biso   1.000  H
  C10      1.0000 0.18450  0.37640  0.06420  Biso   1.000  C
  H10      1.0000 0.12090  0.36310  0.01620  Biso   1.000  H
  H11      1.0000 0.33330  0.37910  0.05050  Biso   1.000  H
  C11      1.0000 0.91710  0.30030  0.15060  Biso   1.000  C
  H12      1.0000 0.89680  0.25560  0.19130  Biso   1.000  H
  H13      1.0000 0.84680  0.28520  0.10470  Biso   1.000  H
  C12      1.0000 0.82810  0.39010  0.18300  Biso   1.000  C
  H14      1.0000 0.67820  0.38840  0.19840  Biso   1.000  H
  C13      1.0000 0.94020  0.41080  0.25700  Biso   1.000  C
  H15      1.0000 0.88300  0.46650  0.27940  Biso   1.000  H
  H16      1.0000 0.91900  0.36580  0.29750  Biso   1.000  H
  C14      1.0000 0.86210  0.45890  0.12130  Biso   1.000  C
  H17      1.0000 0.80160  0.51500  0.14200  Biso   1.000  H
  H18      1.0000 0.79280  0.44570  0.07470  Biso   1.000  H
  C15      1.0000 0.74770  0.32810  0.51760  Biso   1.000  C
  H19      1.0000 0.65500  0.31090  0.48280  Biso   1.000  H
  C16      1.0000 0.93000  0.33060  0.61680  Biso   1.000  C
  H20      1.0000 0.98830  0.31640  0.66430  Biso   1.000  H
  C17      1.0000 0.72120  0.10720  0.87050  Biso   1.000  C
  H21      1.0000 0.60560  0.14710  0.87990  Biso   1.000  H
  C18      1.0000 0.95190  0.01730  0.81230  Biso   1.000  C
  H22      1.0000 0.02820  0.98200  0.77370  Biso   1.000  H
  C19      1.0000 0.70530  0.20310  0.61380  Biso   1.000  C
  C20      1.0000 0.77830  0.18020  0.69560  Biso   1.000  C
  H23      1.0000 0.92950  0.17700  0.69270  Biso   1.000  H
  H24      1.0000 0.72360  0.22500  0.73380  Biso   1.000  H
  C21      1.0000 0.70030  0.09260  0.72200  Biso   1.000  C
  C22      1.0000 0.78430  0.02180  0.66290  Biso   1.000  C
  H25      1.0000 0.93560  0.01700  0.65880  Biso   1.000  H
  H26      1.0000 0.73580  0.96590  0.68110  Biso   1.000  H
  C23      1.0000 0.70880  0.04490  0.58230  Biso   1.000  C
  H27      1.0000 0.76180  0.99930  0.54370  Biso   1.000  H
  C24      1.0000 0.79010  0.13240  0.55450  Biso   1.000  C
  H28      1.0000 0.94150  0.12780  0.55050  Biso   1.000  H
  H29      1.0000 0.74600  0.14730  0.50210  Biso   1.000  H
  C25      1.0000 0.46860  0.21080  0.62100  Biso   1.000  C
  H30      1.0000 0.41880  0.22670  0.56970  Biso   1.000  H
  H31      1.0000 0.41560  0.25590  0.65910  Biso   1.000  H
  C26      1.0000 0.39170  0.12270  0.64880  Biso   1.000  C
  H32      1.0000 0.23880  0.12660  0.65320  Biso   1.000  H
  C27      1.0000 0.46740  0.09770  0.72950  Biso   1.000  C
  H33      1.0000 0.41250  0.14120  0.76890  Biso   1.000  H
  H34      1.0000 0.41870  0.04160  0.74670  Biso   1.000  H
  C28      1.0000 0.47570  0.05300  0.58840  Biso   1.000  C
  H35      1.0000 0.42300  0.99730  0.60480  Biso   1.000  H
  H36      1.0000 0.42830  0.06840  0.53670  Biso   1.000  H
  Ag3      1.0000 0.27120  0.97965  0.94239  Biso   1.000  Ag
  Ag4      1.0000 0.25279  0.46987  0.56309  Biso   1.000  Ag
  N13      1.0000 0.56010  0.89660  0.92720  Biso   1.000  N
  N14      1.0000 0.69530  0.89030  0.98540  Biso   1.000  N
  N15      1.0000 0.76290  0.77870  0.90540  Biso   1.000  N
  N16      1.0000 0.51630  0.51360  0.61790  Biso   1.000  N
  N17      1.0000 0.62640  0.57720  0.57660  Biso   1.000  N
  N18      1.0000 0.72450  0.56600  0.69610  Biso   1.000  N
  N19      1.0000 0.14490  0.60500  0.49340  Biso   1.000  N
  N20      1.0000 0.02360  0.60330  0.42910  Biso   1.000  N
  N21      1.0000 0.21350  0.71380  0.41400  Biso   1.000  N
  N22      1.0000 0.15800  0.92030  0.07580  Biso   1.000  N
  N23      1.0000 0.00750  0.97790  0.11390  Biso   1.000  N
  N24      1.0000 0.21580  0.92930  0.20020  Biso   1.000  N
  C29      1.0000 0.60530  0.83040  0.88050  Biso   1.000  C
  H37      1.0000 0.53730  0.82010  0.83550  Biso   1.000  H
  C30      1.0000 0.81430  0.81870  0.97090  Biso   1.000  C
  H38      1.0000 0.92060  0.79800  0.00160  Biso   1.000  H
  C31      1.0000 0.58300  0.50850  0.68900  Biso   1.000  C
  H39      1.0000 0.53800  0.47000  0.72900  Biso   1.000  H
  C32      1.0000 0.74620  0.60690  0.62440  Biso   1.000  C
  H40      1.0000 0.83620  0.65060  0.61160  Biso   1.000  H
  C33      1.0000 0.85430  0.69380  0.87310  Biso   1.000  C
  C34      1.0000 0.74320  0.67400  0.79950  Biso   1.000  C
  H41      1.0000 0.76470  0.71910  0.75910  Biso   1.000  H
  H42      1.0000 0.59430  0.67280  0.81400  Biso   1.000  H
  C35      1.0000 0.83270  0.58560  0.76710  Biso   1.000  C
  C36      1.0000 0.79780  0.51510  0.82980  Biso   1.000  C
  H43      1.0000 0.64970  0.51310  0.84540  Biso   1.000  H
  H44      1.0000 0.85100  0.45840  0.80830  Biso   1.000  H
  C37      1.0000 0.91090  0.53560  0.90190  Biso   1.000  C
  H45      1.0000 0.89150  0.48970  0.94250  Biso   1.000  H
  C38      1.0000 0.81550  0.62360  0.93580  Biso   1.000  C
  H46      1.0000 0.87910  0.63690  0.98380  Biso   1.000  H
  H47      1.0000 0.66670  0.62090  0.94950  Biso   1.000  H
  C39      1.0000 0.08290  0.69970  0.84940  Biso   1.000  C
  H48      1.0000 0.10320  0.74440  0.80870  Biso   1.000  H
  H49      1.0000 0.15320  0.71480  0.89530  Biso   1.000  H
  C40      1.0000 0.17190  0.60990  0.81700  Biso   1.000  C
  H50      1.0000 0.32180  0.61160  0.80160  Biso   1.000  H
  C41      1.0000 0.05980  0.58920  0.74300  Biso   1.000  C
  H51      1.0000 0.11700  0.53350  0.72060  Biso   1.000  H
  H52      1.0000 0.08100  0.63420  0.70250  Biso   1.000  H
  C42      1.0000 0.13790  0.54110  0.87870  Biso   1.000  C
  H53      1.0000 0.19840  0.48500  0.85800  Biso   1.000  H
  H54      1.0000 0.20720  0.55430  0.92530  Biso   1.000  H
  C43      1.0000 0.25230  0.67190  0.48240  Biso   1.000  C
  H55      1.0000 0.34500  0.68910  0.51720  Biso   1.000  H
  C44      1.0000 0.07000  0.66940  0.38320  Biso   1.000  C
  H56      1.0000 0.01170  0.68360  0.33570  Biso   1.000  H
  C45      1.0000 0.27880  0.89280  0.12950  Biso   1.000  C
  H57      1.0000 0.39440  0.85290  0.12010  Biso   1.000  H
  C46      1.0000 0.04810  0.98270  0.18770  Biso   1.000  C
  H58      1.0000 0.97180  0.01800  0.22630  Biso   1.000  H
  C47      1.0000 0.29470  0.79690  0.38620  Biso   1.000  C
  C48      1.0000 0.22170  0.81980  0.30440  Biso   1.000  C
  H59      1.0000 0.07050  0.82300  0.30730  Biso   1.000  H
  H60      1.0000 0.27640  0.77500  0.26620  Biso   1.000  H
  C49      1.0000 0.29970  0.90740  0.27800  Biso   1.000  C
  C50      1.0000 0.21570  0.97820  0.33710  Biso   1.000  C
  H61      1.0000 0.06440  0.98300  0.34120  Biso   1.000  H
  H62      1.0000 0.26420  0.03410  0.31890  Biso   1.000  H
  C51      1.0000 0.29120  0.95510  0.41770  Biso   1.000  C
  H63      1.0000 0.23820  0.00070  0.45630  Biso   1.000  H
  C52      1.0000 0.20990  0.86760  0.44550  Biso   1.000  C
  H64      1.0000 0.05850  0.87220  0.44950  Biso   1.000  H
  H65      1.0000 0.25400  0.85270  0.49790  Biso   1.000  H
  C53      1.0000 0.53140  0.78920  0.37900  Biso   1.000  C
  H66      1.0000 0.58120  0.77330  0.43030  Biso   1.000  H
  H67      1.0000 0.58440  0.74410  0.34090  Biso   1.000  H
  C54      1.0000 0.60830  0.87730  0.35120  Biso   1.000  C
  H68      1.0000 0.76120  0.87340  0.34680  Biso   1.000  H
  C55      1.0000 0.53260  0.90230  0.27050  Biso   1.000  C
  H69      1.0000 0.58750  0.85880  0.23110  Biso   1.000  H
  H70      1.0000 0.58130  0.95840  0.25330  Biso   1.000  H
  C56      1.0000 0.52430  0.94700  0.41160  Biso   1.000  C
  H71      1.0000 0.57700  0.00270  0.39520  Biso   1.000  H
  H72      1.0000 0.57170  0.93160  0.46330  Biso   1.000  H
