data_image0
_cell_length_a       21.8567
_cell_length_b       11.5525
_cell_length_c       21.4604
_cell_angle_alpha    90
_cell_angle_beta     117.611
_cell_angle_gamma    90

_symmetry_space_group_name_H-M    "P 1"
_symmetry_int_tables_number       1

loop_
  _symmetry_equiv_pos_as_xyz
  'x, y, z'

loop_
  _atom_site_label
  _atom_site_occupancy
  _atom_site_fract_x
  _atom_site_fract_y
  _atom_site_fract_z
  _atom_site_thermal_displace_type
  _atom_site_B_iso_or_equiv
  _atom_site_type_symbol
  Cu1      1.0000 0.74493  0.32630  0.41940  Biso   1.000  Cu
  Cu2      1.0000 0.75677  0.30125  0.60247  Biso   1.000  Cu
  N1       1.0000 0.79112  0.45610  0.48675  Biso   1.000  N
  N2       1.0000 0.78699  0.46706  0.54803  Biso   1.000  N
  N3       1.0000 0.84907  0.61079  0.53973  Biso   1.000  N
  N4       1.0000 0.79626  0.20053  0.49529  Biso   1.000  N
  N5       1.0000 0.78872  0.18071  0.55490  Biso   1.000  N
  N6       1.0000 0.84942  0.03911  0.54394  Biso   1.000  N
  N7       1.0000 0.14259  0.81029  0.82263  Biso   1.000  N
  N8       1.0000 0.09019  0.81990  0.84177  Biso   1.000  N
  N9       1.0000 0.04440  0.82214  0.72592  Biso   1.000  N
  N10      1.0000 0.97355  0.82778  0.52902  Biso   1.000  N
  N11      1.0000 0.65948  0.29143  0.45152  Biso   1.000  N
  N12      1.0000 0.66216  0.29370  0.51753  Biso   1.000  N
  N13      1.0000 0.55565  0.25648  0.43952  Biso   1.000  N
  N14      1.0000 0.31238  0.94719  0.15110  Biso   1.000  N
  N15      1.0000 0.36167  0.00560  0.14051  Biso   1.000  N
  N16      1.0000 0.36462  0.06625  0.23905  Biso   1.000  N
  N17      1.0000 0.27328  0.57805  0.35149  Biso   1.000  N
  N18      1.0000 0.24677  0.56360  0.27962  Biso   1.000  N
  N19      1.0000 0.32019  0.42311  0.33558  Biso   1.000  N
  N20      1.0000 0.38853  0.13222  0.42148  Biso   1.000  N
  C1       1.0000 0.82733  0.54220  0.48172  Biso   1.000  C
  H1       1.0000 0.83690  0.55490  0.44390  Biso   1.000  H
  C2       1.0000 0.82225  0.56060  0.57948  Biso   1.000  C
  H2       1.0000 0.82820  0.58880  0.62300  Biso   1.000  H
  C3       1.0000 0.89245  0.71690  0.55734  Biso   1.000  C
  C4       1.0000 0.84571  0.82480  0.54238  Biso   1.000  C
  H3       1.0000 0.81060  0.82590  0.49290  Biso   1.000  H
  H4       1.0000 0.82230  0.82360  0.57180  Biso   1.000  H
  C5       1.0000 0.89246  0.93260  0.55935  Biso   1.000  C
  C6       1.0000 0.94637  0.93310  0.63702  Biso   1.000  C
  H5       1.0000 0.92340  0.93260  0.66690  Biso   1.000  H
  H6       1.0000 0.97500  0.00290  0.64770  Biso   1.000  H
  C7       1.0000 0.99190  0.82380  0.65130  Biso   1.000  C
  C8       1.0000 0.94693  0.71360  0.63556  Biso   1.000  C
  H7       1.0000 0.97580  0.64430  0.64500  Biso   1.000  H
  H8       1.0000 0.92410  0.71130  0.66550  Biso   1.000  H
  C9       1.0000 0.93025  0.72260  0.51170  Biso   1.000  C
  H9       1.0000 0.95930  0.65380  0.52030  Biso   1.000  H
  H10      1.0000 0.89630  0.72370  0.46180  Biso   1.000  H
  C10      1.0000 0.92880  0.93140  0.51279  Biso   1.000  C
  H11      1.0000 0.89430  0.93030  0.46310  Biso   1.000  H
  H12      1.0000 0.95680  0.00150  0.52130  Biso   1.000  H
  C11      1.0000 0.02636  0.82710  0.60304  Biso   1.000  C
  H13      1.0000 0.05510  0.89670  0.61310  Biso   1.000  H
  H14      1.0000 0.05620  0.75930  0.61210  Biso   1.000  H
  C12      1.0000 0.82089  0.08380  0.58321  Biso   1.000  C
  H15      1.0000 0.82380  0.05030  0.62440  Biso   1.000  H
  C13      1.0000 0.83244  0.11530  0.48987  Biso   1.000  C
  H16      1.0000 0.84510  0.10730  0.45380  Biso   1.000  H
  C14      1.0000 0.11368  0.81150  0.75369  Biso   1.000  C
  H17      1.0000 0.13790  0.80580  0.72720  Biso   1.000  H
  C15      1.0000 0.03266  0.82670  0.78314  Biso   1.000  C
  H18      1.0000 0.98870  0.83380  0.78060  Biso   1.000  H
  C16      1.0000 0.59554  0.26880  0.40606  Biso   1.000  C
  H19      1.0000 0.57920  0.26190  0.35730  Biso   1.000  H
  C17      1.0000 0.59944  0.27340  0.50877  Biso   1.000  C
  H20      1.0000 0.58680  0.27100  0.54510  Biso   1.000  H
  C18      1.0000 0.48039  0.23210  0.40544  Biso   1.000  C
  C19      1.0000 0.46091  0.16270  0.33755  Biso   1.000  C
  H21      1.0000 0.47060  0.20850  0.30470  Biso   1.000  H
  H22      1.0000 0.48810  0.09130  0.34840  Biso   1.000  H
  C20      1.0000 0.38378  0.13400  0.30450  Biso   1.000  C
  C21      1.0000 0.34073  0.24600  0.28464  Biso   1.000  C
  H23      1.0000 0.29140  0.22760  0.26280  Biso   1.000  H
  H24      1.0000 0.34980  0.29130  0.25120  Biso   1.000  H
  C22      1.0000 0.36200  0.31520  0.35307  Biso   1.000  C
  C23      1.0000 0.43916  0.34630  0.38785  Biso   1.000  C
  H25      1.0000 0.45170  0.39110  0.43090  Biso   1.000  H
  H26      1.0000 0.44940  0.39300  0.35570  Biso   1.000  H
  C24      1.0000 0.46286  0.15920  0.45544  Biso   1.000  C
  H27      1.0000 0.48960  0.08720  0.46750  Biso   1.000  H
  H28      1.0000 0.47540  0.20240  0.49900  Biso   1.000  H
  C25      1.0000 0.36852  0.06370  0.35641  Biso   1.000  C
  H29      1.0000 0.31920  0.04500  0.33500  Biso   1.000  H
  H30      1.0000 0.39450  0.99100  0.36780  Biso   1.000  H
  C26      1.0000 0.34738  0.24050  0.40444  Biso   1.000  C
  H31      1.0000 0.35930  0.28420  0.44770  Biso   1.000  H
  H32      1.0000 0.29810  0.22160  0.38300  Biso   1.000  H
  C27      1.0000 0.31495  0.98490  0.20956  Biso   1.000  C
  H33      1.0000 0.28630  0.95900  0.22850  Biso   1.000  H
  C28      1.0000 0.39180  0.07620  0.19390  Biso   1.000  C
  H34      1.0000 0.42770  0.12720  0.20020  Biso   1.000  H
  C29      1.0000 0.31715  0.49510  0.38386  Biso   1.000  C
  H35      1.0000 0.34260  0.48670  0.43290  Biso   1.000  H
  C30      1.0000 0.27617  0.46960  0.27235  Biso   1.000  C
  H36      1.0000 0.26780  0.43800  0.22870  Biso   1.000  H
  Cu3      1.0000 0.25507  0.82630  0.08060  Biso   1.000  Cu
  Cu4      1.0000 0.24323  0.80125  0.89753  Biso   1.000  Cu
  N21      1.0000 0.20888  0.95610  0.01325  Biso   1.000  N
  N22      1.0000 0.21301  0.96706  0.95197  Biso   1.000  N
  N23      1.0000 0.15093  0.11079  0.96027  Biso   1.000  N
  N24      1.0000 0.20374  0.70053  0.00471  Biso   1.000  N
  N25      1.0000 0.21128  0.68071  0.94510  Biso   1.000  N
  N26      1.0000 0.15058  0.53911  0.95606  Biso   1.000  N
  N27      1.0000 0.85741  0.31029  0.67737  Biso   1.000  N
  N28      1.0000 0.90981  0.31990  0.65823  Biso   1.000  N
  N29      1.0000 0.95560  0.32214  0.77408  Biso   1.000  N
  N30      1.0000 0.02645  0.32778  0.97098  Biso   1.000  N
  N31      1.0000 0.34052  0.79143  0.04848  Biso   1.000  N
  N32      1.0000 0.33784  0.79370  0.98247  Biso   1.000  N
  N33      1.0000 0.44435  0.75648  0.06048  Biso   1.000  N
  N34      1.0000 0.68762  0.44719  0.34890  Biso   1.000  N
  N35      1.0000 0.63833  0.50560  0.35949  Biso   1.000  N
  N36      1.0000 0.63538  0.56625  0.26095  Biso   1.000  N
  N37      1.0000 0.72672  0.07805  0.14851  Biso   1.000  N
  N38      1.0000 0.75323  0.06360  0.22038  Biso   1.000  N
  N39      1.0000 0.67981  0.92311  0.16442  Biso   1.000  N
  N40      1.0000 0.61147  0.63222  0.07852  Biso   1.000  N
  C31      1.0000 0.17267  0.04220  0.01828  Biso   1.000  C
  H37      1.0000 0.16310  0.05490  0.05610  Biso   1.000  H
  C32      1.0000 0.17775  0.06060  0.92052  Biso   1.000  C
  H38      1.0000 0.17180  0.08880  0.87700  Biso   1.000  H
  C33      1.0000 0.10755  0.21690  0.94266  Biso   1.000  C
  C34      1.0000 0.15429  0.32480  0.95762  Biso   1.000  C
  H39      1.0000 0.18940  0.32590  0.00710  Biso   1.000  H
  H40      1.0000 0.17770  0.32360  0.92820  Biso   1.000  H
  C35      1.0000 0.10754  0.43260  0.94065  Biso   1.000  C
  C36      1.0000 0.05363  0.43310  0.86298  Biso   1.000  C
  H41      1.0000 0.07660  0.43260  0.83310  Biso   1.000  H
  H42      1.0000 0.02500  0.50290  0.85230  Biso   1.000  H
  C37      1.0000 0.00810  0.32380  0.84870  Biso   1.000  C
  C38      1.0000 0.05307  0.21360  0.86444  Biso   1.000  C
  H43      1.0000 0.02420  0.14430  0.85500  Biso   1.000  H
  H44      1.0000 0.07590  0.21130  0.83450  Biso   1.000  H
  C39      1.0000 0.06975  0.22260  0.98830  Biso   1.000  C
  H45      1.0000 0.04070  0.15380  0.97970  Biso   1.000  H
  H46      1.0000 0.10370  0.22370  0.03820  Biso   1.000  H
  C40      1.0000 0.07120  0.43140  0.98721  Biso   1.000  C
  H47      1.0000 0.10570  0.43030  0.03690  Biso   1.000  H
  H48      1.0000 0.04320  0.50150  0.97870  Biso   1.000  H
  C41      1.0000 0.97364  0.32710  0.89696  Biso   1.000  C
  H49      1.0000 0.94490  0.39670  0.88690  Biso   1.000  H
  H50      1.0000 0.94380  0.25930  0.88790  Biso   1.000  H
  C42      1.0000 0.17911  0.58380  0.91679  Biso   1.000  C
  H51      1.0000 0.17620  0.55030  0.87560  Biso   1.000  H
  C43      1.0000 0.16756  0.61530  0.01013  Biso   1.000  C
  H52      1.0000 0.15490  0.60730  0.04620  Biso   1.000  H
  C44      1.0000 0.88632  0.31150  0.74631  Biso   1.000  C
  H53      1.0000 0.86210  0.30580  0.77280  Biso   1.000  H
  C45      1.0000 0.96734  0.32670  0.71686  Biso   1.000  C
  H54      1.0000 0.01130  0.33380  0.71940  Biso   1.000  H
  C46      1.0000 0.40446  0.76880  0.09394  Biso   1.000  C
  H55      1.0000 0.42080  0.76190  0.14270  Biso   1.000  H
  C47      1.0000 0.40056  0.77340  0.99123  Biso   1.000  C
  H56      1.0000 0.41320  0.77100  0.95490  Biso   1.000  H
  C48      1.0000 0.51961  0.73210  0.09456  Biso   1.000  C
  C49      1.0000 0.53909  0.66270  0.16245  Biso   1.000  C
  H57      1.0000 0.52940  0.70850  0.19530  Biso   1.000  H
  H58      1.0000 0.51190  0.59130  0.15160  Biso   1.000  H
  C50      1.0000 0.61622  0.63400  0.19550  Biso   1.000  C
  C51      1.0000 0.65927  0.74600  0.21536  Biso   1.000  C
  H59      1.0000 0.70860  0.72760  0.23720  Biso   1.000  H
  H60      1.0000 0.65020  0.79130  0.24880  Biso   1.000  H
  C52      1.0000 0.63800  0.81520  0.14693  Biso   1.000  C
  C53      1.0000 0.56084  0.84630  0.11215  Biso   1.000  C
  H61      1.0000 0.54830  0.89110  0.06910  Biso   1.000  H
  H62      1.0000 0.55060  0.89300  0.14430  Biso   1.000  H
  C54      1.0000 0.53714  0.65920  0.04456  Biso   1.000  C
  H63      1.0000 0.51040  0.58720  0.03250  Biso   1.000  H
  H64      1.0000 0.52460  0.70240  0.00100  Biso   1.000  H
  C55      1.0000 0.63148  0.56370  0.14359  Biso   1.000  C
  H65      1.0000 0.68080  0.54500  0.16500  Biso   1.000  H
  H66      1.0000 0.60550  0.49100  0.13220  Biso   1.000  H
  C56      1.0000 0.65262  0.74050  0.09556  Biso   1.000  C
  H67      1.0000 0.64070  0.78420  0.05230  Biso   1.000  H
  H68      1.0000 0.70190  0.72160  0.11700  Biso   1.000  H
  C57      1.0000 0.68505  0.48490  0.29044  Biso   1.000  C
  H69      1.0000 0.71370  0.45900  0.27150  Biso   1.000  H
  C58      1.0000 0.60820  0.57620  0.30610  Biso   1.000  C
  H70      1.0000 0.57230  0.62720  0.29980  Biso   1.000  H
  C59      1.0000 0.68285  0.99510  0.11614  Biso   1.000  C
  H71      1.0000 0.65740  0.98670  0.06710  Biso   1.000  H
  C60      1.0000 0.72383  0.96960  0.22765  Biso   1.000  C
  H72      1.0000 0.73220  0.93800  0.27130  Biso   1.000  H
  Cu5      1.0000 0.25507  0.67370  0.58060  Biso   1.000  Cu
  Cu6      1.0000 0.24323  0.69875  0.39753  Biso   1.000  Cu
  N41      1.0000 0.20888  0.54390  0.51325  Biso   1.000  N
  N42      1.0000 0.21301  0.53294  0.45197  Biso   1.000  N
  N43      1.0000 0.15093  0.38921  0.46027  Biso   1.000  N
  N44      1.0000 0.20374  0.79947  0.50471  Biso   1.000  N
  N45      1.0000 0.21128  0.81929  0.44510  Biso   1.000  N
  N46      1.0000 0.15058  0.96089  0.45606  Biso   1.000  N
  N47      1.0000 0.85741  0.18971  0.17737  Biso   1.000  N
  N48      1.0000 0.90981  0.18010  0.15823  Biso   1.000  N
  N49      1.0000 0.95560  0.17786  0.27408  Biso   1.000  N
  N50      1.0000 0.02645  0.17222  0.47098  Biso   1.000  N
  N51      1.0000 0.34052  0.70857  0.54848  Biso   1.000  N
  N52      1.0000 0.33784  0.70630  0.48247  Biso   1.000  N
  N53      1.0000 0.44435  0.74352  0.56048  Biso   1.000  N
  N54      1.0000 0.68762  0.05281  0.84890  Biso   1.000  N
  N55      1.0000 0.63833  0.99440  0.85949  Biso   1.000  N
  N56      1.0000 0.63538  0.93375  0.76095  Biso   1.000  N
  N57      1.0000 0.72672  0.42195  0.64851  Biso   1.000  N
  N58      1.0000 0.75323  0.43640  0.72038  Biso   1.000  N
  N59      1.0000 0.67981  0.57689  0.66442  Biso   1.000  N
  N60      1.0000 0.61147  0.86778  0.57852  Biso   1.000  N
  C61      1.0000 0.17267  0.45780  0.51828  Biso   1.000  C
  H73      1.0000 0.16310  0.44510  0.55610  Biso   1.000  H
  C62      1.0000 0.17775  0.43940  0.42052  Biso   1.000  C
  H74      1.0000 0.17180  0.41120  0.37700  Biso   1.000  H
  C63      1.0000 0.10755  0.28310  0.44266  Biso   1.000  C
  C64      1.0000 0.15429  0.17520  0.45762  Biso   1.000  C
  H75      1.0000 0.18940  0.17410  0.50710  Biso   1.000  H
  H76      1.0000 0.17770  0.17640  0.42820  Biso   1.000  H
  C65      1.0000 0.10754  0.06740  0.44065  Biso   1.000  C
  C66      1.0000 0.05363  0.06690  0.36298  Biso   1.000  C
  H77      1.0000 0.07660  0.06740  0.33310  Biso   1.000  H
  H78      1.0000 0.02500  0.99710  0.35230  Biso   1.000  H
  C67      1.0000 0.00810  0.17620  0.34870  Biso   1.000  C
  C68      1.0000 0.05307  0.28640  0.36444  Biso   1.000  C
  H79      1.0000 0.02420  0.35570  0.35500  Biso   1.000  H
  H80      1.0000 0.07590  0.28870  0.33450  Biso   1.000  H
  C69      1.0000 0.06975  0.27740  0.48830  Biso   1.000  C
  H81      1.0000 0.04070  0.34620  0.47970  Biso   1.000  H
  H82      1.0000 0.10370  0.27630  0.53820  Biso   1.000  H
  C70      1.0000 0.07120  0.06860  0.48721  Biso   1.000  C
  H83      1.0000 0.10570  0.06970  0.53690  Biso   1.000  H
  H84      1.0000 0.04320  0.99850  0.47870  Biso   1.000  H
  C71      1.0000 0.97364  0.17290  0.39696  Biso   1.000  C
  H85      1.0000 0.94490  0.10330  0.38690  Biso   1.000  H
  H86      1.0000 0.94380  0.24070  0.38790  Biso   1.000  H
  C72      1.0000 0.17911  0.91620  0.41679  Biso   1.000  C
  H87      1.0000 0.17620  0.94970  0.37560  Biso   1.000  H
  C73      1.0000 0.16756  0.88470  0.51013  Biso   1.000  C
  H88      1.0000 0.15490  0.89270  0.54620  Biso   1.000  H
  C74      1.0000 0.88632  0.18850  0.24631  Biso   1.000  C
  H89      1.0000 0.86210  0.19420  0.27280  Biso   1.000  H
  C75      1.0000 0.96734  0.17330  0.21686  Biso   1.000  C
  H90      1.0000 0.01130  0.16620  0.21940  Biso   1.000  H
  C76      1.0000 0.40446  0.73120  0.59394  Biso   1.000  C
  H91      1.0000 0.42080  0.73810  0.64270  Biso   1.000  H
  C77      1.0000 0.40056  0.72660  0.49123  Biso   1.000  C
  H92      1.0000 0.41320  0.72900  0.45490  Biso   1.000  H
  C78      1.0000 0.51961  0.76790  0.59456  Biso   1.000  C
  C79      1.0000 0.53909  0.83730  0.66245  Biso   1.000  C
  H93      1.0000 0.52940  0.79150  0.69530  Biso   1.000  H
  H94      1.0000 0.51190  0.90870  0.65160  Biso   1.000  H
  C80      1.0000 0.61622  0.86600  0.69550  Biso   1.000  C
  C81      1.0000 0.65927  0.75400  0.71536  Biso   1.000  C
  H95      1.0000 0.70860  0.77240  0.73720  Biso   1.000  H
  H96      1.0000 0.65020  0.70870  0.74880  Biso   1.000  H
  C82      1.0000 0.63800  0.68480  0.64693  Biso   1.000  C
  C83      1.0000 0.56084  0.65370  0.61215  Biso   1.000  C
  H97      1.0000 0.54830  0.60890  0.56910  Biso   1.000  H
  H98      1.0000 0.55060  0.60700  0.64430  Biso   1.000  H
  C84      1.0000 0.53714  0.84080  0.54456  Biso   1.000  C
  H99      1.0000 0.51040  0.91280  0.53250  Biso   1.000  H
  H100     1.0000 0.52460  0.79760  0.50100  Biso   1.000  H
  C85      1.0000 0.63148  0.93630  0.64359  Biso   1.000  C
  H101     1.0000 0.68080  0.95500  0.66500  Biso   1.000  H
  H102     1.0000 0.60550  0.00900  0.63220  Biso   1.000  H
  C86      1.0000 0.65262  0.75950  0.59556  Biso   1.000  C
  H103     1.0000 0.64070  0.71580  0.55230  Biso   1.000  H
  H104     1.0000 0.70190  0.77840  0.61700  Biso   1.000  H
  C87      1.0000 0.68505  0.01510  0.79044  Biso   1.000  C
  H105     1.0000 0.71370  0.04100  0.77150  Biso   1.000  H
  C88      1.0000 0.60820  0.92380  0.80610  Biso   1.000  C
  H106     1.0000 0.57230  0.87280  0.79980  Biso   1.000  H
  C89      1.0000 0.68285  0.50490  0.61614  Biso   1.000  C
  H107     1.0000 0.65740  0.51330  0.56710  Biso   1.000  H
  C90      1.0000 0.72383  0.53040  0.72765  Biso   1.000  C
  H108     1.0000 0.73220  0.56200  0.77130  Biso   1.000  H
  Cu7      1.0000 0.74493  0.17370  0.91940  Biso   1.000  Cu
  Cu8      1.0000 0.75677  0.19875  0.10247  Biso   1.000  Cu
  N61      1.0000 0.79112  0.04390  0.98675  Biso   1.000  N
  N62      1.0000 0.78699  0.03294  0.04803  Biso   1.000  N
  N63      1.0000 0.84907  0.88921  0.03973  Biso   1.000  N
  N64      1.0000 0.79626  0.29947  0.99529  Biso   1.000  N
  N65      1.0000 0.78872  0.31929  0.05490  Biso   1.000  N
  N66      1.0000 0.84942  0.46089  0.04394  Biso   1.000  N
  N67      1.0000 0.14259  0.68971  0.32263  Biso   1.000  N
  N68      1.0000 0.09019  0.68010  0.34177  Biso   1.000  N
  N69      1.0000 0.04440  0.67786  0.22592  Biso   1.000  N
  N70      1.0000 0.97355  0.67222  0.02902  Biso   1.000  N
  N71      1.0000 0.65948  0.20857  0.95152  Biso   1.000  N
  N72      1.0000 0.66216  0.20630  0.01753  Biso   1.000  N
  N73      1.0000 0.55565  0.24352  0.93952  Biso   1.000  N
  N74      1.0000 0.31238  0.55281  0.65110  Biso   1.000  N
  N75      1.0000 0.36167  0.49440  0.64051  Biso   1.000  N
  N76      1.0000 0.36462  0.43375  0.73905  Biso   1.000  N
  N77      1.0000 0.27328  0.92195  0.85149  Biso   1.000  N
  N78      1.0000 0.24677  0.93640  0.77962  Biso   1.000  N
  N79      1.0000 0.32019  0.07689  0.83558  Biso   1.000  N
  N80      1.0000 0.38853  0.36778  0.92148  Biso   1.000  N
  C91      1.0000 0.82733  0.95780  0.98172  Biso   1.000  C
  H109     1.0000 0.83690  0.94510  0.94390  Biso   1.000  H
  C92      1.0000 0.82225  0.93940  0.07948  Biso   1.000  C
  H110     1.0000 0.82820  0.91120  0.12300  Biso   1.000  H
  C93      1.0000 0.89245  0.78310  0.05734  Biso   1.000  C
  C94      1.0000 0.84571  0.67520  0.04238  Biso   1.000  C
  H111     1.0000 0.81060  0.67410  0.99290  Biso   1.000  H
  H112     1.0000 0.82230  0.67640  0.07180  Biso   1.000  H
  C95      1.0000 0.89246  0.56740  0.05935  Biso   1.000  C
  C96      1.0000 0.94637  0.56690  0.13702  Biso   1.000  C
  H113     1.0000 0.92340  0.56740  0.16690  Biso   1.000  H
  H114     1.0000 0.97500  0.49710  0.14770  Biso   1.000  H
  C97      1.0000 0.99190  0.67620  0.15130  Biso   1.000  C
  C98      1.0000 0.94693  0.78640  0.13556  Biso   1.000  C
  H115     1.0000 0.97580  0.85570  0.14500  Biso   1.000  H
  H116     1.0000 0.92410  0.78870  0.16550  Biso   1.000  H
  C99      1.0000 0.93025  0.77740  0.01170  Biso   1.000  C
  H117     1.0000 0.95930  0.84620  0.02030  Biso   1.000  H
  H118     1.0000 0.89630  0.77630  0.96180  Biso   1.000  H
  C100     1.0000 0.92880  0.56860  0.01279  Biso   1.000  C
  H119     1.0000 0.89430  0.56970  0.96310  Biso   1.000  H
  H120     1.0000 0.95680  0.49850  0.02130  Biso   1.000  H
  C101     1.0000 0.02636  0.67290  0.10304  Biso   1.000  C
  H121     1.0000 0.05510  0.60330  0.11310  Biso   1.000  H
  H122     1.0000 0.05620  0.74070  0.11210  Biso   1.000  H
  C102     1.0000 0.82089  0.41620  0.08321  Biso   1.000  C
  H123     1.0000 0.82380  0.44970  0.12440  Biso   1.000  H
  C103     1.0000 0.83244  0.38470  0.98987  Biso   1.000  C
  H124     1.0000 0.84510  0.39270  0.95380  Biso   1.000  H
  C104     1.0000 0.11368  0.68850  0.25369  Biso   1.000  C
  H125     1.0000 0.13790  0.69420  0.22720  Biso   1.000  H
  C105     1.0000 0.03266  0.67330  0.28314  Biso   1.000  C
  H126     1.0000 0.98870  0.66620  0.28060  Biso   1.000  H
  C106     1.0000 0.59554  0.23120  0.90606  Biso   1.000  C
  H127     1.0000 0.57920  0.23810  0.85730  Biso   1.000  H
  C107     1.0000 0.59944  0.22660  0.00877  Biso   1.000  C
  H128     1.0000 0.58680  0.22900  0.04510  Biso   1.000  H
  C108     1.0000 0.48039  0.26790  0.90544  Biso   1.000  C
  C109     1.0000 0.46091  0.33730  0.83755  Biso   1.000  C
  H129     1.0000 0.47060  0.29150  0.80470  Biso   1.000  H
  H130     1.0000 0.48810  0.40870  0.84840  Biso   1.000  H
  C110     1.0000 0.38378  0.36600  0.80450  Biso   1.000  C
  C111     1.0000 0.34073  0.25400  0.78464  Biso   1.000  C
  H131     1.0000 0.29140  0.27240  0.76280  Biso   1.000  H
  H132     1.0000 0.34980  0.20870  0.75120  Biso   1.000  H
  C112     1.0000 0.36200  0.18480  0.85307  Biso   1.000  C
  C113     1.0000 0.43916  0.15370  0.88785  Biso   1.000  C
  H133     1.0000 0.45170  0.10890  0.93090  Biso   1.000  H
  H134     1.0000 0.44940  0.10700  0.85570  Biso   1.000  H
  C114     1.0000 0.46286  0.34080  0.95544  Biso   1.000  C
  H135     1.0000 0.48960  0.41280  0.96750  Biso   1.000  H
  H136     1.0000 0.47540  0.29760  0.99900  Biso   1.000  H
  C115     1.0000 0.36852  0.43630  0.85641  Biso   1.000  C
  H137     1.0000 0.31920  0.45500  0.83500  Biso   1.000  H
  H138     1.0000 0.39450  0.50900  0.86780  Biso   1.000  H
  C116     1.0000 0.34738  0.25950  0.90444  Biso   1.000  C
  H139     1.0000 0.35930  0.21580  0.94770  Biso   1.000  H
  H140     1.0000 0.29810  0.27840  0.88300  Biso   1.000  H
  C117     1.0000 0.31495  0.51510  0.70956  Biso   1.000  C
  H141     1.0000 0.28630  0.54100  0.72850  Biso   1.000  H
  C118     1.0000 0.39180  0.42380  0.69390  Biso   1.000  C
  H142     1.0000 0.42770  0.37280  0.70020  Biso   1.000  H
  C119     1.0000 0.31715  0.00490  0.88386  Biso   1.000  C
  H143     1.0000 0.34260  0.01330  0.93290  Biso   1.000  H
  C120     1.0000 0.27617  0.03040  0.77235  Biso   1.000  C
  H144     1.0000 0.26780  0.06200  0.72870  Biso   1.000  H
