data_image0
_cell_length_a       11.9308
_cell_length_b       18.9239
_cell_length_c       22.4189
_cell_angle_alpha    90
_cell_angle_beta     90
_cell_angle_gamma    90

_symmetry_space_group_name_H-M    "P 1"
_symmetry_int_tables_number       1

loop_
  _symmetry_equiv_pos_as_xyz
  'x, y, z'

loop_
  _atom_site_label
  _atom_site_occupancy
  _atom_site_fract_x
  _atom_site_fract_y
  _atom_site_fract_z
  _atom_site_thermal_displace_type
  _atom_site_B_iso_or_equiv
  _atom_site_type_symbol
  Ag1      1.0000 0.27978  0.19757  0.69825  Biso   1.000  Ag
  N1       1.0000 0.39340  0.29140  0.67840  Biso   1.000  N
  N2       1.0000 0.36940  0.36010  0.68340  Biso   1.000  N
  N3       1.0000 0.54290  0.35070  0.65378  Biso   1.000  N
  N4       1.0000 0.01480  0.17460  0.66810  Biso   1.000  N
  N5       1.0000 0.09170  0.22670  0.68300  Biso   1.000  N
  N6       1.0000 0.93740  0.27910  0.65630  Biso   1.000  N
  N7       1.0000 0.90880  0.63350  0.68710  Biso   1.000  N
  N8       1.0000 0.82240  0.62640  0.72430  Biso   1.000  N
  N9       1.0000 0.83250  0.53050  0.67067  Biso   1.000  N
  N10      1.0000 0.78950  0.37300  0.38870  Biso   1.000  N
  N11      1.0000 0.81800  0.44330  0.39260  Biso   1.000  N
  N12      1.0000 0.78870  0.40250  0.48274  Biso   1.000  N
  C1       1.0000 0.49750  0.28650  0.66240  Biso   1.000  C
  H1       1.0000 0.53580  0.24410  0.65740  Biso   1.000  H
  C2       1.0000 0.45940  0.39310  0.66890  Biso   1.000  C
  H2       1.0000 0.46530  0.44210  0.66910  Biso   1.000  H
  C3       1.0000 0.92530  0.20850  0.65230  Biso   1.000  C
  H3       1.0000 0.85990  0.18650  0.63950  Biso   1.000  H
  C4       1.0000 0.04380  0.28640  0.67440  Biso   1.000  C
  H4       1.0000 0.07880  0.32980  0.68010  Biso   1.000  H
  C5       1.0000 0.91370  0.57600  0.65640  Biso   1.000  C
  H5       1.0000 0.96780  0.56720  0.62750  Biso   1.000  H
  C6       1.0000 0.77730  0.56580  0.71340  Biso   1.000  C
  H6       1.0000 0.71410  0.54870  0.73290  Biso   1.000  H
  C7       1.0000 0.77310  0.35040  0.44300  Biso   1.000  C
  H7       1.0000 0.75320  0.30430  0.45280  Biso   1.000  H
  C8       1.0000 0.81790  0.45920  0.44950  Biso   1.000  C
  H8       1.0000 0.83550  0.50350  0.46490  Biso   1.000  H
  C9       1.0000 0.65720  0.36980  0.63460  Biso   1.000  C
  C10      1.0000 0.73900  0.31280  0.65640  Biso   1.000  C
  H9       1.0000 0.73550  0.30890  0.69950  Biso   1.000  H
  H10      1.0000 0.71930  0.26740  0.63930  Biso   1.000  H
  C11      1.0000 0.85640  0.33390  0.63710  Biso   1.000  C
  C12      1.0000 0.88850  0.40570  0.66540  Biso   1.000  C
  H11      1.0000 0.88640  0.40210  0.70850  Biso   1.000  H
  H12      1.0000 0.96400  0.41870  0.65360  Biso   1.000  H
  C13      1.0000 0.80660  0.46090  0.64450  Biso   1.000  C
  C14      1.0000 0.68700  0.44120  0.66300  Biso   1.000  C
  H13      1.0000 0.63490  0.47720  0.64970  Biso   1.000  H
  H14      1.0000 0.68210  0.43780  0.70610  Biso   1.000  H
  C15      1.0000 0.66230  0.37580  0.56640  Biso   1.000  C
  H15      1.0000 0.64270  0.33090  0.54830  Biso   1.000  H
  H16      1.0000 0.60960  0.41120  0.55260  Biso   1.000  H
  C16      1.0000 0.78170  0.39670  0.54870  Biso   1.000  C
  C17      1.0000 0.86290  0.33960  0.56830  Biso   1.000  C
  H17      1.0000 0.93850  0.35170  0.55610  Biso   1.000  H
  H18      1.0000 0.84300  0.29480  0.55020  Biso   1.000  H
  C18      1.0000 0.81220  0.46750  0.57640  Biso   1.000  C
  H19      1.0000 0.76030  0.50360  0.56290  Biso   1.000  H
  H20      1.0000 0.88720  0.48120  0.56430  Biso   1.000  H
  Ag2      1.0000 0.77978  0.30243  0.30175  Biso   1.000  Ag
  N13      1.0000 0.89340  0.20860  0.32160  Biso   1.000  N
  N14      1.0000 0.86940  0.13990  0.31660  Biso   1.000  N
  N15      1.0000 0.04290  0.14930  0.34622  Biso   1.000  N
  N16      1.0000 0.51480  0.32540  0.33190  Biso   1.000  N
  N17      1.0000 0.59170  0.27330  0.31700  Biso   1.000  N
  N18      1.0000 0.43740  0.22090  0.34370  Biso   1.000  N
  N19      1.0000 0.40880  0.86650  0.31290  Biso   1.000  N
  N20      1.0000 0.32240  0.87360  0.27570  Biso   1.000  N
  N21      1.0000 0.33250  0.96950  0.32933  Biso   1.000  N
  N22      1.0000 0.28950  0.12700  0.61130  Biso   1.000  N
  N23      1.0000 0.31800  0.05670  0.60740  Biso   1.000  N
  N24      1.0000 0.28870  0.09750  0.51726  Biso   1.000  N
  C19      1.0000 0.99750  0.21350  0.33760  Biso   1.000  C
  H21      1.0000 0.03580  0.25590  0.34260  Biso   1.000  H
  C20      1.0000 0.95940  0.10690  0.33110  Biso   1.000  C
  H22      1.0000 0.96530  0.05790  0.33090  Biso   1.000  H
  C21      1.0000 0.42530  0.29150  0.34770  Biso   1.000  C
  H23      1.0000 0.35990  0.31350  0.36050  Biso   1.000  H
  C22      1.0000 0.54380  0.21360  0.32560  Biso   1.000  C
  H24      1.0000 0.57880  0.17020  0.31990  Biso   1.000  H
  C23      1.0000 0.41370  0.92400  0.34360  Biso   1.000  C
  H25      1.0000 0.46780  0.93280  0.37250  Biso   1.000  H
  C24      1.0000 0.27730  0.93420  0.28660  Biso   1.000  C
  H26      1.0000 0.21410  0.95130  0.26710  Biso   1.000  H
  C25      1.0000 0.27310  0.14960  0.55700  Biso   1.000  C
  H27      1.0000 0.25320  0.19570  0.54720  Biso   1.000  H
  C26      1.0000 0.31790  0.04080  0.55050  Biso   1.000  C
  H28      1.0000 0.33550  0.99650  0.53510  Biso   1.000  H
  C27      1.0000 0.15720  0.13020  0.36540  Biso   1.000  C
  C28      1.0000 0.23900  0.18720  0.34360  Biso   1.000  C
  H29      1.0000 0.23550  0.19110  0.30050  Biso   1.000  H
  H30      1.0000 0.21930  0.23260  0.36070  Biso   1.000  H
  C29      1.0000 0.35640  0.16610  0.36290  Biso   1.000  C
  C30      1.0000 0.38850  0.09430  0.33460  Biso   1.000  C
  H31      1.0000 0.38640  0.09790  0.29150  Biso   1.000  H
  H32      1.0000 0.46400  0.08130  0.34640  Biso   1.000  H
  C31      1.0000 0.30660  0.03910  0.35550  Biso   1.000  C
  C32      1.0000 0.18700  0.05880  0.33700  Biso   1.000  C
  H33      1.0000 0.13490  0.02280  0.35030  Biso   1.000  H
  H34      1.0000 0.18210  0.06220  0.29390  Biso   1.000  H
  C33      1.0000 0.16230  0.12420  0.43360  Biso   1.000  C
  H35      1.0000 0.14270  0.16910  0.45170  Biso   1.000  H
  H36      1.0000 0.10960  0.08880  0.44740  Biso   1.000  H
  C34      1.0000 0.28170  0.10330  0.45130  Biso   1.000  C
  C35      1.0000 0.36290  0.16040  0.43170  Biso   1.000  C
  H37      1.0000 0.43850  0.14830  0.44390  Biso   1.000  H
  H38      1.0000 0.34300  0.20520  0.44980  Biso   1.000  H
  C36      1.0000 0.31220  0.03250  0.42360  Biso   1.000  C
  H39      1.0000 0.26030  0.99640  0.43710  Biso   1.000  H
  H40      1.0000 0.38720  0.01880  0.43570  Biso   1.000  H
  Ag3      1.0000 0.77978  0.69757  0.80175  Biso   1.000  Ag
  N25      1.0000 0.89340  0.79140  0.82160  Biso   1.000  N
  N26      1.0000 0.86940  0.86010  0.81660  Biso   1.000  N
  N27      1.0000 0.04290  0.85070  0.84622  Biso   1.000  N
  N28      1.0000 0.51480  0.67460  0.83190  Biso   1.000  N
  N29      1.0000 0.59170  0.72670  0.81700  Biso   1.000  N
  N30      1.0000 0.43740  0.77910  0.84370  Biso   1.000  N
  N31      1.0000 0.40880  0.13350  0.81290  Biso   1.000  N
  N32      1.0000 0.32240  0.12640  0.77570  Biso   1.000  N
  N33      1.0000 0.33250  0.03050  0.82933  Biso   1.000  N
  N34      1.0000 0.28950  0.87300  0.11130  Biso   1.000  N
  N35      1.0000 0.31800  0.94330  0.10740  Biso   1.000  N
  N36      1.0000 0.28870  0.90250  0.01726  Biso   1.000  N
  C37      1.0000 0.99750  0.78650  0.83760  Biso   1.000  C
  H41      1.0000 0.03580  0.74410  0.84260  Biso   1.000  H
  C38      1.0000 0.95940  0.89310  0.83110  Biso   1.000  C
  H42      1.0000 0.96530  0.94210  0.83090  Biso   1.000  H
  C39      1.0000 0.42530  0.70850  0.84770  Biso   1.000  C
  H43      1.0000 0.35990  0.68650  0.86050  Biso   1.000  H
  C40      1.0000 0.54380  0.78640  0.82560  Biso   1.000  C
  H44      1.0000 0.57880  0.82980  0.81990  Biso   1.000  H
  C41      1.0000 0.41370  0.07600  0.84360  Biso   1.000  C
  H45      1.0000 0.46780  0.06720  0.87250  Biso   1.000  H
  C42      1.0000 0.27730  0.06580  0.78660  Biso   1.000  C
  H46      1.0000 0.21410  0.04870  0.76710  Biso   1.000  H
  C43      1.0000 0.27310  0.85040  0.05700  Biso   1.000  C
  H47      1.0000 0.25320  0.80430  0.04720  Biso   1.000  H
  C44      1.0000 0.31790  0.95920  0.05050  Biso   1.000  C
  H48      1.0000 0.33550  0.00350  0.03510  Biso   1.000  H
  C45      1.0000 0.15720  0.86980  0.86540  Biso   1.000  C
  C46      1.0000 0.23900  0.81280  0.84360  Biso   1.000  C
  H49      1.0000 0.23550  0.80890  0.80050  Biso   1.000  H
  H50      1.0000 0.21930  0.76740  0.86070  Biso   1.000  H
  C47      1.0000 0.35640  0.83390  0.86290  Biso   1.000  C
  C48      1.0000 0.38850  0.90570  0.83460  Biso   1.000  C
  H51      1.0000 0.38640  0.90210  0.79150  Biso   1.000  H
  H52      1.0000 0.46400  0.91870  0.84640  Biso   1.000  H
  C49      1.0000 0.30660  0.96090  0.85550  Biso   1.000  C
  C50      1.0000 0.18700  0.94120  0.83700  Biso   1.000  C
  H53      1.0000 0.13490  0.97720  0.85030  Biso   1.000  H
  H54      1.0000 0.18210  0.93780  0.79390  Biso   1.000  H
  C51      1.0000 0.16230  0.87580  0.93360  Biso   1.000  C
  H55      1.0000 0.14270  0.83090  0.95170  Biso   1.000  H
  H56      1.0000 0.10960  0.91120  0.94740  Biso   1.000  H
  C52      1.0000 0.28170  0.89670  0.95130  Biso   1.000  C
  C53      1.0000 0.36290  0.83960  0.93170  Biso   1.000  C
  H57      1.0000 0.43850  0.85170  0.94390  Biso   1.000  H
  H58      1.0000 0.34300  0.79480  0.94980  Biso   1.000  H
  C54      1.0000 0.31220  0.96750  0.92360  Biso   1.000  C
  H59      1.0000 0.26030  0.00360  0.93710  Biso   1.000  H
  H60      1.0000 0.38720  0.98120  0.93570  Biso   1.000  H
  Ag4      1.0000 0.27978  0.80243  0.19825  Biso   1.000  Ag
  N37      1.0000 0.39340  0.70860  0.17840  Biso   1.000  N
  N38      1.0000 0.36940  0.63990  0.18340  Biso   1.000  N
  N39      1.0000 0.54290  0.64930  0.15378  Biso   1.000  N
  N40      1.0000 0.01480  0.82540  0.16810  Biso   1.000  N
  N41      1.0000 0.09170  0.77330  0.18300  Biso   1.000  N
  N42      1.0000 0.93740  0.72090  0.15630  Biso   1.000  N
  N43      1.0000 0.90880  0.36650  0.18710  Biso   1.000  N
  N44      1.0000 0.82240  0.37360  0.22430  Biso   1.000  N
  N45      1.0000 0.83250  0.46950  0.17067  Biso   1.000  N
  N46      1.0000 0.78950  0.62700  0.88870  Biso   1.000  N
  N47      1.0000 0.81800  0.55670  0.89260  Biso   1.000  N
  N48      1.0000 0.78870  0.59750  0.98274  Biso   1.000  N
  C55      1.0000 0.49750  0.71350  0.16240  Biso   1.000  C
  H61      1.0000 0.53580  0.75590  0.15740  Biso   1.000  H
  C56      1.0000 0.45940  0.60690  0.16890  Biso   1.000  C
  H62      1.0000 0.46530  0.55790  0.16910  Biso   1.000  H
  C57      1.0000 0.92530  0.79150  0.15230  Biso   1.000  C
  H63      1.0000 0.85990  0.81350  0.13950  Biso   1.000  H
  C58      1.0000 0.04380  0.71360  0.17440  Biso   1.000  C
  H64      1.0000 0.07880  0.67020  0.18010  Biso   1.000  H
  C59      1.0000 0.91370  0.42400  0.15640  Biso   1.000  C
  H65      1.0000 0.96780  0.43280  0.12750  Biso   1.000  H
  C60      1.0000 0.77730  0.43420  0.21340  Biso   1.000  C
  H66      1.0000 0.71410  0.45130  0.23290  Biso   1.000  H
  C61      1.0000 0.77310  0.64960  0.94300  Biso   1.000  C
  H67      1.0000 0.75320  0.69570  0.95280  Biso   1.000  H
  C62      1.0000 0.81790  0.54080  0.94950  Biso   1.000  C
  H68      1.0000 0.83550  0.49650  0.96490  Biso   1.000  H
  C63      1.0000 0.65720  0.63020  0.13460  Biso   1.000  C
  C64      1.0000 0.73900  0.68720  0.15640  Biso   1.000  C
  H69      1.0000 0.73550  0.69110  0.19950  Biso   1.000  H
  H70      1.0000 0.71930  0.73260  0.13930  Biso   1.000  H
  C65      1.0000 0.85640  0.66610  0.13710  Biso   1.000  C
  C66      1.0000 0.88850  0.59430  0.16540  Biso   1.000  C
  H71      1.0000 0.88640  0.59790  0.20850  Biso   1.000  H
  H72      1.0000 0.96400  0.58130  0.15360  Biso   1.000  H
  C67      1.0000 0.80660  0.53910  0.14450  Biso   1.000  C
  C68      1.0000 0.68700  0.55880  0.16300  Biso   1.000  C
  H73      1.0000 0.63490  0.52280  0.14970  Biso   1.000  H
  H74      1.0000 0.68210  0.56220  0.20610  Biso   1.000  H
  C69      1.0000 0.66230  0.62420  0.06640  Biso   1.000  C
  H75      1.0000 0.64270  0.66910  0.04830  Biso   1.000  H
  H76      1.0000 0.60960  0.58880  0.05260  Biso   1.000  H
  C70      1.0000 0.78170  0.60330  0.04870  Biso   1.000  C
  C71      1.0000 0.86290  0.66040  0.06830  Biso   1.000  C
  H77      1.0000 0.93850  0.64830  0.05610  Biso   1.000  H
  H78      1.0000 0.84300  0.70520  0.05020  Biso   1.000  H
  C72      1.0000 0.81220  0.53250  0.07640  Biso   1.000  C
  H79      1.0000 0.76030  0.49640  0.06290  Biso   1.000  H
  H80      1.0000 0.88720  0.51880  0.06430  Biso   1.000  H
  Ag5      1.0000 0.22022  0.30243  0.19825  Biso   1.000  Ag
  N49      1.0000 0.10660  0.20860  0.17840  Biso   1.000  N
  N50      1.0000 0.13060  0.13990  0.18340  Biso   1.000  N
  N51      1.0000 0.95710  0.14930  0.15378  Biso   1.000  N
  N52      1.0000 0.48520  0.32540  0.16810  Biso   1.000  N
  N53      1.0000 0.40830  0.27330  0.18300  Biso   1.000  N
  N54      1.0000 0.56260  0.22090  0.15630  Biso   1.000  N
  N55      1.0000 0.59120  0.86650  0.18710  Biso   1.000  N
  N56      1.0000 0.67760  0.87360  0.22430  Biso   1.000  N
  N57      1.0000 0.66750  0.96950  0.17067  Biso   1.000  N
  N58      1.0000 0.71050  0.12700  0.88870  Biso   1.000  N
  N59      1.0000 0.68200  0.05670  0.89260  Biso   1.000  N
  N60      1.0000 0.71130  0.09750  0.98274  Biso   1.000  N
  C73      1.0000 0.00250  0.21350  0.16240  Biso   1.000  C
  H81      1.0000 0.96420  0.25590  0.15740  Biso   1.000  H
  C74      1.0000 0.04060  0.10690  0.16890  Biso   1.000  C
  H82      1.0000 0.03470  0.05790  0.16910  Biso   1.000  H
  C75      1.0000 0.57470  0.29150  0.15230  Biso   1.000  C
  H83      1.0000 0.64010  0.31350  0.13950  Biso   1.000  H
  C76      1.0000 0.45620  0.21360  0.17440  Biso   1.000  C
  H84      1.0000 0.42120  0.17020  0.18010  Biso   1.000  H
  C77      1.0000 0.58630  0.92400  0.15640  Biso   1.000  C
  H85      1.0000 0.53220  0.93280  0.12750  Biso   1.000  H
  C78      1.0000 0.72270  0.93420  0.21340  Biso   1.000  C
  H86      1.0000 0.78590  0.95130  0.23290  Biso   1.000  H
  C79      1.0000 0.72690  0.14960  0.94300  Biso   1.000  C
  H87      1.0000 0.74680  0.19570  0.95280  Biso   1.000  H
  C80      1.0000 0.68210  0.04080  0.94950  Biso   1.000  C
  H88      1.0000 0.66450  0.99650  0.96490  Biso   1.000  H
  C81      1.0000 0.84280  0.13020  0.13460  Biso   1.000  C
  C82      1.0000 0.76100  0.18720  0.15640  Biso   1.000  C
  H89      1.0000 0.76450  0.19110  0.19950  Biso   1.000  H
  H90      1.0000 0.78070  0.23260  0.13930  Biso   1.000  H
  C83      1.0000 0.64360  0.16610  0.13710  Biso   1.000  C
  C84      1.0000 0.61150  0.09430  0.16540  Biso   1.000  C
  H91      1.0000 0.61360  0.09790  0.20850  Biso   1.000  H
  H92      1.0000 0.53600  0.08130  0.15360  Biso   1.000  H
  C85      1.0000 0.69340  0.03910  0.14450  Biso   1.000  C
  C86      1.0000 0.81300  0.05880  0.16300  Biso   1.000  C
  H93      1.0000 0.86510  0.02280  0.14970  Biso   1.000  H
  H94      1.0000 0.81790  0.06220  0.20610  Biso   1.000  H
  C87      1.0000 0.83770  0.12420  0.06640  Biso   1.000  C
  H95      1.0000 0.85730  0.16910  0.04830  Biso   1.000  H
  H96      1.0000 0.89040  0.08880  0.05260  Biso   1.000  H
  C88      1.0000 0.71830  0.10330  0.04870  Biso   1.000  C
  C89      1.0000 0.63710  0.16040  0.06830  Biso   1.000  C
  H97      1.0000 0.56150  0.14830  0.05610  Biso   1.000  H
  H98      1.0000 0.65700  0.20520  0.05020  Biso   1.000  H
  C90      1.0000 0.68780  0.03250  0.07640  Biso   1.000  C
  H99      1.0000 0.73970  0.99640  0.06290  Biso   1.000  H
  H100     1.0000 0.61280  0.01880  0.06430  Biso   1.000  H
  Ag6      1.0000 0.72022  0.19757  0.80175  Biso   1.000  Ag
  N61      1.0000 0.60660  0.29140  0.82160  Biso   1.000  N
  N62      1.0000 0.63060  0.36010  0.81660  Biso   1.000  N
  N63      1.0000 0.45710  0.35070  0.84622  Biso   1.000  N
  N64      1.0000 0.98520  0.17460  0.83190  Biso   1.000  N
  N65      1.0000 0.90830  0.22670  0.81700  Biso   1.000  N
  N66      1.0000 0.06260  0.27910  0.84370  Biso   1.000  N
  N67      1.0000 0.09120  0.63350  0.81290  Biso   1.000  N
  N68      1.0000 0.17760  0.62640  0.77570  Biso   1.000  N
  N69      1.0000 0.16750  0.53050  0.82933  Biso   1.000  N
  N70      1.0000 0.21050  0.37300  0.11130  Biso   1.000  N
  N71      1.0000 0.18200  0.44330  0.10740  Biso   1.000  N
  N72      1.0000 0.21130  0.40250  0.01726  Biso   1.000  N
  C91      1.0000 0.50250  0.28650  0.83760  Biso   1.000  C
  H101     1.0000 0.46420  0.24410  0.84260  Biso   1.000  H
  C92      1.0000 0.54060  0.39310  0.83110  Biso   1.000  C
  H102     1.0000 0.53470  0.44210  0.83090  Biso   1.000  H
  C93      1.0000 0.07470  0.20850  0.84770  Biso   1.000  C
  H103     1.0000 0.14010  0.18650  0.86050  Biso   1.000  H
  C94      1.0000 0.95620  0.28640  0.82560  Biso   1.000  C
  H104     1.0000 0.92120  0.32980  0.81990  Biso   1.000  H
  C95      1.0000 0.08630  0.57600  0.84360  Biso   1.000  C
  H105     1.0000 0.03220  0.56720  0.87250  Biso   1.000  H
  C96      1.0000 0.22270  0.56580  0.78660  Biso   1.000  C
  H106     1.0000 0.28590  0.54870  0.76710  Biso   1.000  H
  C97      1.0000 0.22690  0.35040  0.05700  Biso   1.000  C
  H107     1.0000 0.24680  0.30430  0.04720  Biso   1.000  H
  C98      1.0000 0.18210  0.45920  0.05050  Biso   1.000  C
  H108     1.0000 0.16450  0.50350  0.03510  Biso   1.000  H
  C99      1.0000 0.34280  0.36980  0.86540  Biso   1.000  C
  C100     1.0000 0.26100  0.31280  0.84360  Biso   1.000  C
  H109     1.0000 0.26450  0.30890  0.80050  Biso   1.000  H
  H110     1.0000 0.28070  0.26740  0.86070  Biso   1.000  H
  C101     1.0000 0.14360  0.33390  0.86290  Biso   1.000  C
  C102     1.0000 0.11150  0.40570  0.83460  Biso   1.000  C
  H111     1.0000 0.11360  0.40210  0.79150  Biso   1.000  H
  H112     1.0000 0.03600  0.41870  0.84640  Biso   1.000  H
  C103     1.0000 0.19340  0.46090  0.85550  Biso   1.000  C
  C104     1.0000 0.31300  0.44120  0.83700  Biso   1.000  C
  H113     1.0000 0.36510  0.47720  0.85030  Biso   1.000  H
  H114     1.0000 0.31790  0.43780  0.79390  Biso   1.000  H
  C105     1.0000 0.33770  0.37580  0.93360  Biso   1.000  C
  H115     1.0000 0.35730  0.33090  0.95170  Biso   1.000  H
  H116     1.0000 0.39040  0.41120  0.94740  Biso   1.000  H
  C106     1.0000 0.21830  0.39670  0.95130  Biso   1.000  C
  C107     1.0000 0.13710  0.33960  0.93170  Biso   1.000  C
  H117     1.0000 0.06150  0.35170  0.94390  Biso   1.000  H
  H118     1.0000 0.15700  0.29480  0.94980  Biso   1.000  H
  C108     1.0000 0.18780  0.46750  0.92360  Biso   1.000  C
  H119     1.0000 0.23970  0.50360  0.93710  Biso   1.000  H
  H120     1.0000 0.11280  0.48120  0.93570  Biso   1.000  H
  Ag7      1.0000 0.72022  0.80243  0.30175  Biso   1.000  Ag
  N73      1.0000 0.60660  0.70860  0.32160  Biso   1.000  N
  N74      1.0000 0.63060  0.63990  0.31660  Biso   1.000  N
  N75      1.0000 0.45710  0.64930  0.34622  Biso   1.000  N
  N76      1.0000 0.98520  0.82540  0.33190  Biso   1.000  N
  N77      1.0000 0.90830  0.77330  0.31700  Biso   1.000  N
  N78      1.0000 0.06260  0.72090  0.34370  Biso   1.000  N
  N79      1.0000 0.09120  0.36650  0.31290  Biso   1.000  N
  N80      1.0000 0.17760  0.37360  0.27570  Biso   1.000  N
  N81      1.0000 0.16750  0.46950  0.32933  Biso   1.000  N
  N82      1.0000 0.21050  0.62700  0.61130  Biso   1.000  N
  N83      1.0000 0.18200  0.55670  0.60740  Biso   1.000  N
  N84      1.0000 0.21130  0.59750  0.51726  Biso   1.000  N
  C109     1.0000 0.50250  0.71350  0.33760  Biso   1.000  C
  H121     1.0000 0.46420  0.75590  0.34260  Biso   1.000  H
  C110     1.0000 0.54060  0.60690  0.33110  Biso   1.000  C
  H122     1.0000 0.53470  0.55790  0.33090  Biso   1.000  H
  C111     1.0000 0.07470  0.79150  0.34770  Biso   1.000  C
  H123     1.0000 0.14010  0.81350  0.36050  Biso   1.000  H
  C112     1.0000 0.95620  0.71360  0.32560  Biso   1.000  C
  H124     1.0000 0.92120  0.67020  0.31990  Biso   1.000  H
  C113     1.0000 0.08630  0.42400  0.34360  Biso   1.000  C
  H125     1.0000 0.03220  0.43280  0.37250  Biso   1.000  H
  C114     1.0000 0.22270  0.43420  0.28660  Biso   1.000  C
  H126     1.0000 0.28590  0.45130  0.26710  Biso   1.000  H
  C115     1.0000 0.22690  0.64960  0.55700  Biso   1.000  C
  H127     1.0000 0.24680  0.69570  0.54720  Biso   1.000  H
  C116     1.0000 0.18210  0.54080  0.55050  Biso   1.000  C
  H128     1.0000 0.16450  0.49650  0.53510  Biso   1.000  H
  C117     1.0000 0.34280  0.63020  0.36540  Biso   1.000  C
  C118     1.0000 0.26100  0.68720  0.34360  Biso   1.000  C
  H129     1.0000 0.26450  0.69110  0.30050  Biso   1.000  H
  H130     1.0000 0.28070  0.73260  0.36070  Biso   1.000  H
  C119     1.0000 0.14360  0.66610  0.36290  Biso   1.000  C
  C120     1.0000 0.11150  0.59430  0.33460  Biso   1.000  C
  H131     1.0000 0.11360  0.59790  0.29150  Biso   1.000  H
  H132     1.0000 0.03600  0.58130  0.34640  Biso   1.000  H
  C121     1.0000 0.19340  0.53910  0.35550  Biso   1.000  C
  C122     1.0000 0.31300  0.55880  0.33700  Biso   1.000  C
  H133     1.0000 0.36510  0.52280  0.35030  Biso   1.000  H
  H134     1.0000 0.31790  0.56220  0.29390  Biso   1.000  H
  C123     1.0000 0.33770  0.62420  0.43360  Biso   1.000  C
  H135     1.0000 0.35730  0.66910  0.45170  Biso   1.000  H
  H136     1.0000 0.39040  0.58880  0.44740  Biso   1.000  H
  C124     1.0000 0.21830  0.60330  0.45130  Biso   1.000  C
  C125     1.0000 0.13710  0.66040  0.43170  Biso   1.000  C
  H137     1.0000 0.06150  0.64830  0.44390  Biso   1.000  H
  H138     1.0000 0.15700  0.70520  0.44980  Biso   1.000  H
  C126     1.0000 0.18780  0.53250  0.42360  Biso   1.000  C
  H139     1.0000 0.23970  0.49640  0.43710  Biso   1.000  H
  H140     1.0000 0.11280  0.51880  0.43570  Biso   1.000  H
  Ag8      1.0000 0.22022  0.69757  0.69825  Biso   1.000  Ag
  N85      1.0000 0.10660  0.79140  0.67840  Biso   1.000  N
  N86      1.0000 0.13060  0.86010  0.68340  Biso   1.000  N
  N87      1.0000 0.95710  0.85070  0.65378  Biso   1.000  N
  N88      1.0000 0.48520  0.67460  0.66810  Biso   1.000  N
  N89      1.0000 0.40830  0.72670  0.68300  Biso   1.000  N
  N90      1.0000 0.56260  0.77910  0.65630  Biso   1.000  N
  N91      1.0000 0.59120  0.13350  0.68710  Biso   1.000  N
  N92      1.0000 0.67760  0.12640  0.72430  Biso   1.000  N
  N93      1.0000 0.66750  0.03050  0.67067  Biso   1.000  N
  N94      1.0000 0.71050  0.87300  0.38870  Biso   1.000  N
  N95      1.0000 0.68200  0.94330  0.39260  Biso   1.000  N
  N96      1.0000 0.71130  0.90250  0.48274  Biso   1.000  N
  C127     1.0000 0.00250  0.78650  0.66240  Biso   1.000  C
  H141     1.0000 0.96420  0.74410  0.65740  Biso   1.000  H
  C128     1.0000 0.04060  0.89310  0.66890  Biso   1.000  C
  H142     1.0000 0.03470  0.94210  0.66910  Biso   1.000  H
  C129     1.0000 0.57470  0.70850  0.65230  Biso   1.000  C
  H143     1.0000 0.64010  0.68650  0.63950  Biso   1.000  H
  C130     1.0000 0.45620  0.78640  0.67440  Biso   1.000  C
  H144     1.0000 0.42120  0.82980  0.68010  Biso   1.000  H
  C131     1.0000 0.58630  0.07600  0.65640  Biso   1.000  C
  H145     1.0000 0.53220  0.06720  0.62750  Biso   1.000  H
  C132     1.0000 0.72270  0.06580  0.71340  Biso   1.000  C
  H146     1.0000 0.78590  0.04870  0.73290  Biso   1.000  H
  C133     1.0000 0.72690  0.85040  0.44300  Biso   1.000  C
  H147     1.0000 0.74680  0.80430  0.45280  Biso   1.000  H
  C134     1.0000 0.68210  0.95920  0.44950  Biso   1.000  C
  H148     1.0000 0.66450  0.00350  0.46490  Biso   1.000  H
  C135     1.0000 0.84280  0.86980  0.63460  Biso   1.000  C
  C136     1.0000 0.76100  0.81280  0.65640  Biso   1.000  C
  H149     1.0000 0.76450  0.80890  0.69950  Biso   1.000  H
  H150     1.0000 0.78070  0.76740  0.63930  Biso   1.000  H
  C137     1.0000 0.64360  0.83390  0.63710  Biso   1.000  C
  C138     1.0000 0.61150  0.90570  0.66540  Biso   1.000  C
  H151     1.0000 0.61360  0.90210  0.70850  Biso   1.000  H
  H152     1.0000 0.53600  0.91870  0.65360  Biso   1.000  H
  C139     1.0000 0.69340  0.96090  0.64450  Biso   1.000  C
  C140     1.0000 0.81300  0.94120  0.66300  Biso   1.000  C
  H153     1.0000 0.86510  0.97720  0.64970  Biso   1.000  H
  H154     1.0000 0.81790  0.93780  0.70610  Biso   1.000  H
  C141     1.0000 0.83770  0.87580  0.56640  Biso   1.000  C
  H155     1.0000 0.85730  0.83090  0.54830  Biso   1.000  H
  H156     1.0000 0.89040  0.91120  0.55260  Biso   1.000  H
  C142     1.0000 0.71830  0.89670  0.54870  Biso   1.000  C
  C143     1.0000 0.63710  0.83960  0.56830  Biso   1.000  C
  H157     1.0000 0.56150  0.85170  0.55610  Biso   1.000  H
  H158     1.0000 0.65700  0.79480  0.55020  Biso   1.000  H
  C144     1.0000 0.68780  0.96750  0.57640  Biso   1.000  C
  H159     1.0000 0.73970  0.00360  0.56290  Biso   1.000  H
  H160     1.0000 0.61280  0.98120  0.56430  Biso   1.000  H
