data_image0
_cell_length_a       8.3176
_cell_length_b       9.1539
_cell_length_c       12.6302
_cell_angle_alpha    90
_cell_angle_beta     90
_cell_angle_gamma    90

_symmetry_space_group_name_H-M    "P 1"
_symmetry_int_tables_number       1

loop_
  _symmetry_equiv_pos_as_xyz
  'x, y, z'

loop_
  _atom_site_label
  _atom_site_occupancy
  _atom_site_fract_x
  _atom_site_fract_y
  _atom_site_fract_z
  _atom_site_thermal_displace_type
  _atom_site_B_iso_or_equiv
  _atom_site_type_symbol
  V1       1.0000 0.96867  0.21028  0.00223  Biso   1.000  V
  V2       1.0000 0.73354  0.55464  0.89431  Biso   1.000  V
  P1       1.0000 0.25581  0.06551  0.86639  Biso   1.000  P
  O1       1.0000 0.93420  0.38190  0.91460  Biso   1.000  O
  O2       1.0000 0.26450  0.94190  0.94850  Biso   1.000  O
  O3       1.0000 0.09770  0.15400  0.87730  Biso   1.000  O
  O4       1.0000 0.39990  0.16890  0.88110  Biso   1.000  O
  O5       1.0000 0.25860  0.99680  0.75640  Biso   1.000  O
  O6       1.0000 0.09820  0.11590  0.08180  Biso   1.000  O
  V3       1.0000 0.53133  0.78972  0.50223  Biso   1.000  V
  V4       1.0000 0.76646  0.44536  0.39431  Biso   1.000  V
  P2       1.0000 0.24419  0.93449  0.36639  Biso   1.000  P
  O7       1.0000 0.56580  0.61810  0.41460  Biso   1.000  O
  O8       1.0000 0.23550  0.05810  0.44850  Biso   1.000  O
  O9       1.0000 0.40230  0.84600  0.37730  Biso   1.000  O
  O10      1.0000 0.10010  0.83110  0.38110  Biso   1.000  O
  O11      1.0000 0.24140  0.00320  0.25640  Biso   1.000  O
  O12      1.0000 0.40180  0.88410  0.58180  Biso   1.000  O
  V5       1.0000 0.03133  0.71028  0.49777  Biso   1.000  V
  V6       1.0000 0.26646  0.05464  0.60569  Biso   1.000  V
  P3       1.0000 0.74419  0.56551  0.63361  Biso   1.000  P
  O13      1.0000 0.06580  0.88190  0.58540  Biso   1.000  O
  O14      1.0000 0.73550  0.44190  0.55150  Biso   1.000  O
  O15      1.0000 0.90230  0.65400  0.62270  Biso   1.000  O
  O16      1.0000 0.60010  0.66890  0.61890  Biso   1.000  O
  O17      1.0000 0.74140  0.49680  0.74360  Biso   1.000  O
  O18      1.0000 0.90180  0.61590  0.41820  Biso   1.000  O
  V7       1.0000 0.46867  0.28972  0.99777  Biso   1.000  V
  V8       1.0000 0.23354  0.94536  0.10569  Biso   1.000  V
  P4       1.0000 0.75581  0.43449  0.13361  Biso   1.000  P
  O19      1.0000 0.43420  0.11810  0.08540  Biso   1.000  O
  O20      1.0000 0.76450  0.55810  0.05150  Biso   1.000  O
  O21      1.0000 0.59770  0.34600  0.12270  Biso   1.000  O
  O22      1.0000 0.89990  0.33110  0.11890  Biso   1.000  O
  O23      1.0000 0.75860  0.50320  0.24360  Biso   1.000  O
  O24      1.0000 0.59820  0.38410  0.91820  Biso   1.000  O
