data_KEJBOQ_clean_h
_audit_creation_date              2014-07-02
_audit_creation_method            'Materials Studio'
_symmetry_space_group_name_H-M    'P1'
_symmetry_Int_Tables_number       1
_symmetry_cell_setting            triclinic
loop_
_symmetry_equiv_pos_as_xyz
  x,y,z
_cell_length_a                    12.6910
_cell_length_b                    15.5450
_cell_length_c                    18.3420
_cell_angle_alpha                 90.0000
_cell_angle_beta                  90.0000
_cell_angle_gamma                 90.0000
loop_
_atom_site_label
_atom_site_type_symbol
_atom_site_fract_x
_atom_site_fract_y
_atom_site_fract_z
_atom_site_U_iso_or_equiv
_atom_site_adp_type
_atom_site_occupancy
Cd1    Cd    0.18286   0.71257   0.68312   0.01267  Uiso   1.00
C1     C     0.04880   0.57850   0.72450   0.01267  Uiso   1.00
C2     C     0.98890   0.49570   0.74080   0.01267  Uiso   1.00
C3     C     0.02600   0.41890   0.71310   0.01267  Uiso   1.00
C4     C     0.97230   0.34360   0.73100   0.01267  Uiso   1.00
C5     C     0.85010   0.41790   0.79790   0.01267  Uiso   1.00
C6     C     0.89860   0.49560   0.78350   0.01267  Uiso   1.00
C7     C     0.85210   0.76690   0.40810   0.01267  Uiso   1.00
C8     C     0.93660   0.75190   0.46420   0.01267  Uiso   1.00
C9     C     0.95660   0.67030   0.49120   0.01267  Uiso   1.00
C10    C     0.02920   0.66080   0.54630   0.01267  Uiso   1.00
C11    C     0.06910   0.80500   0.54560   0.01267  Uiso   1.00
C12    C     0.99530   0.82110   0.49150   0.01267  Uiso   1.00
N1     N     0.88580   0.34240   0.77270   0.01267  Uiso   1.00
N2     N     0.08390   0.72700   0.57450   0.01267  Uiso   1.00
O1     O     0.00550   0.64940   0.73940   0.01267  Uiso   1.00
O2     O     0.13770   0.57160   0.69670   0.01267  Uiso   1.00
O3     O     0.82300   0.84280   0.39510   0.01267  Uiso   1.00
O4     O     0.81170   0.70260   0.37840   0.01267  Uiso   1.00
H1     H     0.09874   0.41824   0.67664   0.01267  Uiso   1.00
H2     H     0.00172   0.27896   0.70985   0.01267  Uiso   1.00
H3     H     0.77583   0.41588   0.83282   0.01267  Uiso   1.00
H4     H     0.86612   0.55871   0.80580   0.01267  Uiso   1.00
H5     H     0.91317   0.61237   0.46776   0.01267  Uiso   1.00
H6     H     0.04532   0.59440   0.57020   0.01267  Uiso   1.00
H7     H     0.12030   0.85956   0.56727   0.01267  Uiso   1.00
H8     H     0.98185   0.88869   0.46924   0.01267  Uiso   1.00
Cd2    Cd    0.31714   0.28743   0.18312   0.01267  Uiso   1.00
C13    C     0.45120   0.42150   0.22450   0.01267  Uiso   1.00
C14    C     0.51110   0.50430   0.24080   0.01267  Uiso   1.00
C15    C     0.47400   0.58110   0.21310   0.01267  Uiso   1.00
C16    C     0.52770   0.65640   0.23100   0.01267  Uiso   1.00
C17    C     0.64990   0.58210   0.29790   0.01267  Uiso   1.00
C18    C     0.60140   0.50440   0.28350   0.01267  Uiso   1.00
C19    C     0.64790   0.23310   0.90810   0.01267  Uiso   1.00
C20    C     0.56340   0.24810   0.96420   0.01267  Uiso   1.00
C21    C     0.54340   0.32970   0.99120   0.01267  Uiso   1.00
C22    C     0.47080   0.33920   0.04630   0.01267  Uiso   1.00
C23    C     0.43090   0.19500   0.04560   0.01267  Uiso   1.00
C24    C     0.50470   0.17890   0.99150   0.01267  Uiso   1.00
N3     N     0.61420   0.65760   0.27270   0.01267  Uiso   1.00
N4     N     0.41610   0.27300   0.07450   0.01267  Uiso   1.00
O5     O     0.49450   0.35060   0.23940   0.01267  Uiso   1.00
O6     O     0.36230   0.42840   0.19670   0.01267  Uiso   1.00
O7     O     0.67700   0.15720   0.89510   0.01267  Uiso   1.00
O8     O     0.68830   0.29740   0.87840   0.01267  Uiso   1.00
H9     H     0.40126   0.58176   0.17664   0.01267  Uiso   1.00
H10    H     0.49828   0.72104   0.20985   0.01267  Uiso   1.00
H11    H     0.72417   0.58412   0.33282   0.01267  Uiso   1.00
H12    H     0.63388   0.44129   0.30580   0.01267  Uiso   1.00
H13    H     0.58683   0.38763   0.96776   0.01267  Uiso   1.00
H14    H     0.45468   0.40560   0.07020   0.01267  Uiso   1.00
H15    H     0.37970   0.14044   0.06727   0.01267  Uiso   1.00
H16    H     0.51815   0.11131   0.96924   0.01267  Uiso   1.00
Cd3    Cd    0.81714   0.21257   0.81688   0.01267  Uiso   1.00
C25    C     0.95120   0.07850   0.77550   0.01267  Uiso   1.00
C26    C     0.01110   0.99570   0.75920   0.01267  Uiso   1.00
C27    C     0.97400   0.91890   0.78690   0.01267  Uiso   1.00
C28    C     0.02770   0.84360   0.76900   0.01267  Uiso   1.00
C29    C     0.14990   0.91790   0.70210   0.01267  Uiso   1.00
C30    C     0.10140   0.99560   0.71650   0.01267  Uiso   1.00
C31    C     0.14790   0.26690   0.09190   0.01267  Uiso   1.00
C32    C     0.06340   0.25190   0.03580   0.01267  Uiso   1.00
C33    C     0.04340   0.17030   0.00880   0.01267  Uiso   1.00
C34    C     0.97080   0.16080   0.95370   0.01267  Uiso   1.00
C35    C     0.93090   0.30500   0.95440   0.01267  Uiso   1.00
C36    C     0.00470   0.32110   0.00850   0.01267  Uiso   1.00
N5     N     0.11420   0.84240   0.72730   0.01267  Uiso   1.00
N6     N     0.91610   0.22700   0.92550   0.01267  Uiso   1.00
O9     O     0.99450   0.14940   0.76060   0.01267  Uiso   1.00
O10    O     0.86230   0.07160   0.80330   0.01267  Uiso   1.00
O11    O     0.17700   0.34280   0.10490   0.01267  Uiso   1.00
O12    O     0.18830   0.20260   0.12160   0.01267  Uiso   1.00
H17    H     0.90126   0.91824   0.82336   0.01267  Uiso   1.00
H18    H     0.99828   0.77896   0.79015   0.01267  Uiso   1.00
H19    H     0.22417   0.91588   0.66718   0.01267  Uiso   1.00
H20    H     0.13388   0.05871   0.69420   0.01267  Uiso   1.00
H21    H     0.08683   0.11237   0.03224   0.01267  Uiso   1.00
H22    H     0.95468   0.09440   0.92980   0.01267  Uiso   1.00
H23    H     0.87970   0.35956   0.93273   0.01267  Uiso   1.00
H24    H     0.01815   0.38869   0.03076   0.01267  Uiso   1.00
Cd4    Cd    0.68286   0.78743   0.31688   0.01267  Uiso   1.00
C37    C     0.54880   0.92150   0.27550   0.01267  Uiso   1.00
C38    C     0.48890   0.00430   0.25920   0.01267  Uiso   1.00
C39    C     0.52600   0.08110   0.28690   0.01267  Uiso   1.00
C40    C     0.47230   0.15640   0.26900   0.01267  Uiso   1.00
C41    C     0.35010   0.08210   0.20210   0.01267  Uiso   1.00
C42    C     0.39860   0.00440   0.21650   0.01267  Uiso   1.00
C43    C     0.35210   0.73310   0.59190   0.01267  Uiso   1.00
C44    C     0.43660   0.74810   0.53580   0.01267  Uiso   1.00
C45    C     0.45660   0.82970   0.50880   0.01267  Uiso   1.00
C46    C     0.52920   0.83920   0.45370   0.01267  Uiso   1.00
C47    C     0.56910   0.69500   0.45440   0.01267  Uiso   1.00
C48    C     0.49530   0.67890   0.50850   0.01267  Uiso   1.00
N7     N     0.38580   0.15760   0.22730   0.01267  Uiso   1.00
N8     N     0.58390   0.77300   0.42550   0.01267  Uiso   1.00
O13    O     0.50550   0.85060   0.26060   0.01267  Uiso   1.00
O14    O     0.63770   0.92840   0.30330   0.01267  Uiso   1.00
O15    O     0.32300   0.65720   0.60490   0.01267  Uiso   1.00
O16    O     0.31170   0.79740   0.62160   0.01267  Uiso   1.00
H25    H     0.59874   0.08176   0.32336   0.01267  Uiso   1.00
H26    H     0.50172   0.22104   0.29015   0.01267  Uiso   1.00
H27    H     0.27583   0.08412   0.16718   0.01267  Uiso   1.00
H28    H     0.36612   0.94129   0.19420   0.01267  Uiso   1.00
H29    H     0.41317   0.88763   0.53224   0.01267  Uiso   1.00
H30    H     0.54532   0.90560   0.42980   0.01267  Uiso   1.00
H31    H     0.62030   0.64044   0.43273   0.01267  Uiso   1.00
H32    H     0.48185   0.61131   0.53076   0.01267  Uiso   1.00
Cd5    Cd    0.81714   0.28743   0.31688   0.01267  Uiso   1.00
C49    C     0.95120   0.42150   0.27550   0.01267  Uiso   1.00
C50    C     0.01110   0.50430   0.25920   0.01267  Uiso   1.00
C51    C     0.97400   0.58110   0.28690   0.01267  Uiso   1.00
C52    C     0.02770   0.65640   0.26900   0.01267  Uiso   1.00
C53    C     0.14990   0.58210   0.20210   0.01267  Uiso   1.00
C54    C     0.10140   0.50440   0.21650   0.01267  Uiso   1.00
C55    C     0.14790   0.23310   0.59190   0.01267  Uiso   1.00
C56    C     0.06340   0.24810   0.53580   0.01267  Uiso   1.00
C57    C     0.04340   0.32970   0.50880   0.01267  Uiso   1.00
C58    C     0.97080   0.33920   0.45370   0.01267  Uiso   1.00
C59    C     0.93090   0.19500   0.45440   0.01267  Uiso   1.00
C60    C     0.00470   0.17890   0.50850   0.01267  Uiso   1.00
N9     N     0.11420   0.65760   0.22730   0.01267  Uiso   1.00
N10    N     0.91610   0.27300   0.42550   0.01267  Uiso   1.00
O17    O     0.99450   0.35060   0.26060   0.01267  Uiso   1.00
O18    O     0.86230   0.42840   0.30330   0.01267  Uiso   1.00
O19    O     0.17700   0.15720   0.60490   0.01267  Uiso   1.00
O20    O     0.18830   0.29740   0.62160   0.01267  Uiso   1.00
H33    H     0.90126   0.58176   0.32336   0.01267  Uiso   1.00
H34    H     0.99828   0.72104   0.29015   0.01267  Uiso   1.00
H35    H     0.22417   0.58412   0.16718   0.01267  Uiso   1.00
H36    H     0.13388   0.44129   0.19420   0.01267  Uiso   1.00
H37    H     0.08683   0.38763   0.53224   0.01267  Uiso   1.00
H38    H     0.95468   0.40560   0.42980   0.01267  Uiso   1.00
H39    H     0.87970   0.14044   0.43273   0.01267  Uiso   1.00
H40    H     0.01815   0.11131   0.53076   0.01267  Uiso   1.00
Cd6    Cd    0.68286   0.71257   0.81688   0.01267  Uiso   1.00
C61    C     0.54880   0.57850   0.77550   0.01267  Uiso   1.00
C62    C     0.48890   0.49570   0.75920   0.01267  Uiso   1.00
C63    C     0.52600   0.41890   0.78690   0.01267  Uiso   1.00
C64    C     0.47230   0.34360   0.76900   0.01267  Uiso   1.00
C65    C     0.35010   0.41790   0.70210   0.01267  Uiso   1.00
C66    C     0.39860   0.49560   0.71650   0.01267  Uiso   1.00
C67    C     0.35210   0.76690   0.09190   0.01267  Uiso   1.00
C68    C     0.43660   0.75190   0.03580   0.01267  Uiso   1.00
C69    C     0.45660   0.67030   0.00880   0.01267  Uiso   1.00
C70    C     0.52920   0.66080   0.95370   0.01267  Uiso   1.00
C71    C     0.56910   0.80500   0.95440   0.01267  Uiso   1.00
C72    C     0.49530   0.82110   0.00850   0.01267  Uiso   1.00
N11    N     0.38580   0.34240   0.72730   0.01267  Uiso   1.00
N12    N     0.58390   0.72700   0.92550   0.01267  Uiso   1.00
O21    O     0.50550   0.64940   0.76060   0.01267  Uiso   1.00
O22    O     0.63770   0.57160   0.80330   0.01267  Uiso   1.00
O23    O     0.32300   0.84280   0.10490   0.01267  Uiso   1.00
O24    O     0.31170   0.70260   0.12160   0.01267  Uiso   1.00
H41    H     0.59874   0.41824   0.82336   0.01267  Uiso   1.00
H42    H     0.50172   0.27896   0.79015   0.01267  Uiso   1.00
H43    H     0.27583   0.41588   0.66718   0.01267  Uiso   1.00
H44    H     0.36612   0.55871   0.69420   0.01267  Uiso   1.00
H45    H     0.41317   0.61237   0.03224   0.01267  Uiso   1.00
H46    H     0.54532   0.59440   0.92980   0.01267  Uiso   1.00
H47    H     0.62030   0.85956   0.93273   0.01267  Uiso   1.00
H48    H     0.48185   0.88869   0.03076   0.01267  Uiso   1.00
Cd7    Cd    0.18286   0.78743   0.18312   0.01267  Uiso   1.00
C73    C     0.04880   0.92150   0.22450   0.01267  Uiso   1.00
C74    C     0.98890   0.00430   0.24080   0.01267  Uiso   1.00
C75    C     0.02600   0.08110   0.21310   0.01267  Uiso   1.00
C76    C     0.97230   0.15640   0.23100   0.01267  Uiso   1.00
C77    C     0.85010   0.08210   0.29790   0.01267  Uiso   1.00
C78    C     0.89860   0.00440   0.28350   0.01267  Uiso   1.00
C79    C     0.85210   0.73310   0.90810   0.01267  Uiso   1.00
C80    C     0.93660   0.74810   0.96420   0.01267  Uiso   1.00
C81    C     0.95660   0.82970   0.99120   0.01267  Uiso   1.00
C82    C     0.02920   0.83920   0.04630   0.01267  Uiso   1.00
C83    C     0.06910   0.69500   0.04560   0.01267  Uiso   1.00
C84    C     0.99530   0.67890   0.99150   0.01267  Uiso   1.00
N13    N     0.88580   0.15760   0.27270   0.01267  Uiso   1.00
N14    N     0.08390   0.77300   0.07450   0.01267  Uiso   1.00
O25    O     0.00550   0.85060   0.23940   0.01267  Uiso   1.00
O26    O     0.13770   0.92840   0.19670   0.01267  Uiso   1.00
O27    O     0.82300   0.65720   0.89510   0.01267  Uiso   1.00
O28    O     0.81170   0.79740   0.87840   0.01267  Uiso   1.00
H49    H     0.09874   0.08176   0.17664   0.01267  Uiso   1.00
H50    H     0.00172   0.22104   0.20985   0.01267  Uiso   1.00
H51    H     0.77583   0.08412   0.33282   0.01267  Uiso   1.00
H52    H     0.86612   0.94129   0.30580   0.01267  Uiso   1.00
H53    H     0.91317   0.88763   0.96776   0.01267  Uiso   1.00
H54    H     0.04532   0.90560   0.07020   0.01267  Uiso   1.00
H55    H     0.12030   0.64044   0.06727   0.01267  Uiso   1.00
H56    H     0.98185   0.61131   0.96924   0.01267  Uiso   1.00
Cd8    Cd    0.31714   0.21257   0.68312   0.01267  Uiso   1.00
C85    C     0.45120   0.07850   0.72450   0.01267  Uiso   1.00
C86    C     0.51110   0.99570   0.74080   0.01267  Uiso   1.00
C87    C     0.47400   0.91890   0.71310   0.01267  Uiso   1.00
C88    C     0.52770   0.84360   0.73100   0.01267  Uiso   1.00
C89    C     0.64990   0.91790   0.79790   0.01267  Uiso   1.00
C90    C     0.60140   0.99560   0.78350   0.01267  Uiso   1.00
C91    C     0.64790   0.26690   0.40810   0.01267  Uiso   1.00
C92    C     0.56340   0.25190   0.46420   0.01267  Uiso   1.00
C93    C     0.54340   0.17030   0.49120   0.01267  Uiso   1.00
C94    C     0.47080   0.16080   0.54630   0.01267  Uiso   1.00
C95    C     0.43090   0.30500   0.54560   0.01267  Uiso   1.00
C96    C     0.50470   0.32110   0.49150   0.01267  Uiso   1.00
N15    N     0.61420   0.84240   0.77270   0.01267  Uiso   1.00
N16    N     0.41610   0.22700   0.57450   0.01267  Uiso   1.00
O29    O     0.49450   0.14940   0.73940   0.01267  Uiso   1.00
O30    O     0.36230   0.07160   0.69670   0.01267  Uiso   1.00
O31    O     0.67700   0.34280   0.39510   0.01267  Uiso   1.00
O32    O     0.68830   0.20260   0.37840   0.01267  Uiso   1.00
H57    H     0.40126   0.91824   0.67664   0.01267  Uiso   1.00
H58    H     0.49828   0.77896   0.70985   0.01267  Uiso   1.00
H59    H     0.72417   0.91588   0.83282   0.01267  Uiso   1.00
H60    H     0.63388   0.05871   0.80580   0.01267  Uiso   1.00
H61    H     0.58683   0.11237   0.46776   0.01267  Uiso   1.00
H62    H     0.45468   0.09440   0.57020   0.01267  Uiso   1.00
H63    H     0.37970   0.35956   0.56727   0.01267  Uiso   1.00
H64    H     0.51815   0.38869   0.46924   0.01267  Uiso   1.00
