data_KEJHIQ_clean_h
_audit_creation_date              2014-07-02
_audit_creation_method            'Materials Studio'
_symmetry_space_group_name_H-M    'P1'
_symmetry_Int_Tables_number       1
_symmetry_cell_setting            triclinic
loop_
_symmetry_equiv_pos_as_xyz
  x,y,z
_cell_length_a                    12.0810
_cell_length_b                    15.3230
_cell_length_c                    19.7050
_cell_angle_alpha                 90.0000
_cell_angle_beta                  90.0000
_cell_angle_gamma                 90.0000
loop_
_atom_site_label
_atom_site_type_symbol
_atom_site_fract_x
_atom_site_fract_y
_atom_site_fract_z
_atom_site_U_iso_or_equiv
_atom_site_adp_type
_atom_site_occupancy
Cd1    Cd    0.68885   0.27225   0.17872   0.01267  Uiso   1.00
C1     C     0.55500   0.40857   0.22136   0.01267  Uiso   1.00
C2     C     0.49370   0.49003   0.24227   0.01267  Uiso   1.00
C3     C     0.41540   0.48827   0.29337   0.01267  Uiso   1.00
C4     C     0.36580   0.56552   0.31236   0.01267  Uiso   1.00
C5     C     0.46290   0.64345   0.23317   0.01267  Uiso   1.00
C6     C     0.51790   0.56885   0.21131   0.01267  Uiso   1.00
C7     C     0.36500   0.25560   0.90507   0.01267  Uiso   1.00
C8     C     0.44990   0.26403   0.96059   0.01267  Uiso   1.00
C9     C     0.45230   0.33690   0.00135   0.01267  Uiso   1.00
C10    C     0.52200   0.33870   0.05735   0.01267  Uiso   1.00
C11    C     0.58900   0.20290   0.03207   0.01267  Uiso   1.00
C12    C     0.52120   0.19650   0.97631   0.01267  Uiso   1.00
N1     N     0.38850   0.64256   0.28364   0.01267  Uiso   1.00
N2     N     0.58900   0.27242   0.07367   0.01267  Uiso   1.00
O1     O     0.51090   0.33596   0.23066   0.01267  Uiso   1.00
O2     O     0.64758   0.41786   0.19421   0.01267  Uiso   1.00
O3     O     0.31535   0.32266   0.88600   0.01267  Uiso   1.00
O4     O     0.34470   0.18063   0.88302   0.01267  Uiso   1.00
H1     H     0.39306   0.42385   0.31886   0.01267  Uiso   1.00
H2     H     0.30153   0.56597   0.35472   0.01267  Uiso   1.00
H3     H     0.48037   0.70895   0.20791   0.01267  Uiso   1.00
H4     H     0.58181   0.57168   0.16880   0.01267  Uiso   1.00
H5     H     0.39730   0.39525   0.98904   0.01267  Uiso   1.00
H6     H     0.52379   0.39850   0.09175   0.01267  Uiso   1.00
H7     H     0.64873   0.14767   0.04477   0.01267  Uiso   1.00
H8     H     0.52368   0.13566   0.94305   0.01267  Uiso   1.00
Cd2    Cd    0.81115   0.72775   0.67872   0.01267  Uiso   1.00
C13    C     0.94500   0.59143   0.72136   0.01267  Uiso   1.00
C14    C     0.00630   0.50997   0.74227   0.01267  Uiso   1.00
C15    C     0.08460   0.51173   0.79337   0.01267  Uiso   1.00
C16    C     0.13420   0.43448   0.81236   0.01267  Uiso   1.00
C17    C     0.03710   0.35655   0.73317   0.01267  Uiso   1.00
C18    C     0.98210   0.43115   0.71131   0.01267  Uiso   1.00
C19    C     0.13500   0.74440   0.40507   0.01267  Uiso   1.00
C20    C     0.05010   0.73597   0.46059   0.01267  Uiso   1.00
C21    C     0.04770   0.66310   0.50135   0.01267  Uiso   1.00
C22    C     0.97800   0.66130   0.55735   0.01267  Uiso   1.00
C23    C     0.91100   0.79710   0.53207   0.01267  Uiso   1.00
C24    C     0.97880   0.80350   0.47631   0.01267  Uiso   1.00
N3     N     0.11150   0.35744   0.78364   0.01267  Uiso   1.00
N4     N     0.91100   0.72758   0.57367   0.01267  Uiso   1.00
O5     O     0.98910   0.66404   0.73066   0.01267  Uiso   1.00
O6     O     0.85242   0.58214   0.69421   0.01267  Uiso   1.00
O7     O     0.18465   0.67734   0.38600   0.01267  Uiso   1.00
O8     O     0.15530   0.81937   0.38302   0.01267  Uiso   1.00
H9     H     0.10694   0.57615   0.81886   0.01267  Uiso   1.00
H10    H     0.19847   0.43403   0.85472   0.01267  Uiso   1.00
H11    H     0.01963   0.29105   0.70791   0.01267  Uiso   1.00
H12    H     0.91819   0.42832   0.66880   0.01267  Uiso   1.00
H13    H     0.10270   0.60475   0.48904   0.01267  Uiso   1.00
H14    H     0.97621   0.60150   0.59175   0.01267  Uiso   1.00
H15    H     0.85127   0.85233   0.54477   0.01267  Uiso   1.00
H16    H     0.97632   0.86434   0.44305   0.01267  Uiso   1.00
Cd3    Cd    0.31115   0.77225   0.32128   0.01267  Uiso   1.00
C25    C     0.44500   0.90857   0.27864   0.01267  Uiso   1.00
C26    C     0.50630   0.99003   0.25773   0.01267  Uiso   1.00
C27    C     0.58460   0.98827   0.20663   0.01267  Uiso   1.00
C28    C     0.63420   0.06552   0.18764   0.01267  Uiso   1.00
C29    C     0.53710   0.14345   0.26683   0.01267  Uiso   1.00
C30    C     0.48210   0.06885   0.28869   0.01267  Uiso   1.00
C31    C     0.63500   0.75560   0.59493   0.01267  Uiso   1.00
C32    C     0.55010   0.76403   0.53941   0.01267  Uiso   1.00
C33    C     0.54770   0.83690   0.49865   0.01267  Uiso   1.00
C34    C     0.47800   0.83870   0.44265   0.01267  Uiso   1.00
C35    C     0.41100   0.70290   0.46793   0.01267  Uiso   1.00
C36    C     0.47880   0.69650   0.52369   0.01267  Uiso   1.00
N5     N     0.61150   0.14256   0.21636   0.01267  Uiso   1.00
N6     N     0.41100   0.77242   0.42633   0.01267  Uiso   1.00
O9     O     0.48910   0.83596   0.26934   0.01267  Uiso   1.00
O10    O     0.35242   0.91786   0.30579   0.01267  Uiso   1.00
O11    O     0.68465   0.82266   0.61400   0.01267  Uiso   1.00
O12    O     0.65530   0.68063   0.61698   0.01267  Uiso   1.00
H17    H     0.60694   0.92385   0.18114   0.01267  Uiso   1.00
H18    H     0.69847   0.06597   0.14528   0.01267  Uiso   1.00
H19    H     0.51963   0.20895   0.29209   0.01267  Uiso   1.00
H20    H     0.41819   0.07168   0.33120   0.01267  Uiso   1.00
H21    H     0.60270   0.89525   0.51096   0.01267  Uiso   1.00
H22    H     0.47621   0.89850   0.40825   0.01267  Uiso   1.00
H23    H     0.35127   0.64767   0.45523   0.01267  Uiso   1.00
H24    H     0.47632   0.63566   0.55695   0.01267  Uiso   1.00
Cd4    Cd    0.18885   0.22775   0.82128   0.01267  Uiso   1.00
C37    C     0.05500   0.09143   0.77864   0.01267  Uiso   1.00
C38    C     0.99370   0.00997   0.75773   0.01267  Uiso   1.00
C39    C     0.91540   0.01173   0.70663   0.01267  Uiso   1.00
C40    C     0.86580   0.93448   0.68764   0.01267  Uiso   1.00
C41    C     0.96290   0.85655   0.76683   0.01267  Uiso   1.00
C42    C     0.01790   0.93115   0.78869   0.01267  Uiso   1.00
C43    C     0.86500   0.24440   0.09493   0.01267  Uiso   1.00
C44    C     0.94990   0.23597   0.03941   0.01267  Uiso   1.00
C45    C     0.95230   0.16310   0.99865   0.01267  Uiso   1.00
C46    C     0.02200   0.16130   0.94265   0.01267  Uiso   1.00
C47    C     0.08900   0.29710   0.96793   0.01267  Uiso   1.00
C48    C     0.02120   0.30350   0.02369   0.01267  Uiso   1.00
N7     N     0.88850   0.85744   0.71636   0.01267  Uiso   1.00
N8     N     0.08900   0.22758   0.92633   0.01267  Uiso   1.00
O13    O     0.01090   0.16404   0.76934   0.01267  Uiso   1.00
O14    O     0.14758   0.08214   0.80579   0.01267  Uiso   1.00
O15    O     0.81535   0.17734   0.11400   0.01267  Uiso   1.00
O16    O     0.84470   0.31937   0.11698   0.01267  Uiso   1.00
H25    H     0.89306   0.07615   0.68114   0.01267  Uiso   1.00
H26    H     0.80153   0.93403   0.64528   0.01267  Uiso   1.00
H27    H     0.98037   0.79105   0.79209   0.01267  Uiso   1.00
H28    H     0.08181   0.92832   0.83120   0.01267  Uiso   1.00
H29    H     0.89730   0.10475   0.01096   0.01267  Uiso   1.00
H30    H     0.02379   0.10150   0.90825   0.01267  Uiso   1.00
H31    H     0.14873   0.35233   0.95523   0.01267  Uiso   1.00
H32    H     0.02368   0.36434   0.05695   0.01267  Uiso   1.00
Cd5    Cd    0.31115   0.72775   0.82128   0.01267  Uiso   1.00
C49    C     0.44500   0.59143   0.77864   0.01267  Uiso   1.00
C50    C     0.50630   0.50997   0.75773   0.01267  Uiso   1.00
C51    C     0.58460   0.51173   0.70663   0.01267  Uiso   1.00
C52    C     0.63420   0.43448   0.68764   0.01267  Uiso   1.00
C53    C     0.53710   0.35655   0.76683   0.01267  Uiso   1.00
C54    C     0.48210   0.43115   0.78869   0.01267  Uiso   1.00
C55    C     0.63500   0.74440   0.09493   0.01267  Uiso   1.00
C56    C     0.55010   0.73597   0.03941   0.01267  Uiso   1.00
C57    C     0.54770   0.66310   0.99865   0.01267  Uiso   1.00
C58    C     0.47800   0.66130   0.94265   0.01267  Uiso   1.00
C59    C     0.41100   0.79710   0.96793   0.01267  Uiso   1.00
C60    C     0.47880   0.80350   0.02369   0.01267  Uiso   1.00
N9     N     0.61150   0.35744   0.71636   0.01267  Uiso   1.00
N10    N     0.41100   0.72758   0.92633   0.01267  Uiso   1.00
O17    O     0.48910   0.66404   0.76934   0.01267  Uiso   1.00
O18    O     0.35242   0.58214   0.80579   0.01267  Uiso   1.00
O19    O     0.68465   0.67734   0.11400   0.01267  Uiso   1.00
O20    O     0.65530   0.81937   0.11698   0.01267  Uiso   1.00
H33    H     0.60694   0.57615   0.68114   0.01267  Uiso   1.00
H34    H     0.69847   0.43403   0.64528   0.01267  Uiso   1.00
H35    H     0.51963   0.29105   0.79209   0.01267  Uiso   1.00
H36    H     0.41819   0.42832   0.83120   0.01267  Uiso   1.00
H37    H     0.60270   0.60475   0.01096   0.01267  Uiso   1.00
H38    H     0.47621   0.60150   0.90825   0.01267  Uiso   1.00
H39    H     0.35127   0.85233   0.95523   0.01267  Uiso   1.00
H40    H     0.47632   0.86434   0.05695   0.01267  Uiso   1.00
Cd6    Cd    0.18885   0.27225   0.32128   0.01267  Uiso   1.00
C61    C     0.05500   0.40857   0.27864   0.01267  Uiso   1.00
C62    C     0.99370   0.49003   0.25773   0.01267  Uiso   1.00
C63    C     0.91540   0.48827   0.20663   0.01267  Uiso   1.00
C64    C     0.86580   0.56552   0.18764   0.01267  Uiso   1.00
C65    C     0.96290   0.64345   0.26683   0.01267  Uiso   1.00
C66    C     0.01790   0.56885   0.28869   0.01267  Uiso   1.00
C67    C     0.86500   0.25560   0.59493   0.01267  Uiso   1.00
C68    C     0.94990   0.26403   0.53941   0.01267  Uiso   1.00
C69    C     0.95230   0.33690   0.49865   0.01267  Uiso   1.00
C70    C     0.02200   0.33870   0.44265   0.01267  Uiso   1.00
C71    C     0.08900   0.20290   0.46793   0.01267  Uiso   1.00
C72    C     0.02120   0.19650   0.52369   0.01267  Uiso   1.00
N11    N     0.88850   0.64256   0.21636   0.01267  Uiso   1.00
N12    N     0.08900   0.27242   0.42633   0.01267  Uiso   1.00
O21    O     0.01090   0.33596   0.26934   0.01267  Uiso   1.00
O22    O     0.14758   0.41786   0.30579   0.01267  Uiso   1.00
O23    O     0.81535   0.32266   0.61400   0.01267  Uiso   1.00
O24    O     0.84470   0.18063   0.61698   0.01267  Uiso   1.00
H41    H     0.89306   0.42385   0.18114   0.01267  Uiso   1.00
H42    H     0.80153   0.56597   0.14528   0.01267  Uiso   1.00
H43    H     0.98037   0.70895   0.29209   0.01267  Uiso   1.00
H44    H     0.08181   0.57168   0.33120   0.01267  Uiso   1.00
H45    H     0.89730   0.39525   0.51096   0.01267  Uiso   1.00
H46    H     0.02379   0.39850   0.40825   0.01267  Uiso   1.00
H47    H     0.14873   0.14767   0.45523   0.01267  Uiso   1.00
H48    H     0.02368   0.13566   0.55695   0.01267  Uiso   1.00
Cd7    Cd    0.68885   0.22775   0.67872   0.01267  Uiso   1.00
C73    C     0.55500   0.09143   0.72136   0.01267  Uiso   1.00
C74    C     0.49370   0.00997   0.74227   0.01267  Uiso   1.00
C75    C     0.41540   0.01173   0.79337   0.01267  Uiso   1.00
C76    C     0.36580   0.93448   0.81236   0.01267  Uiso   1.00
C77    C     0.46290   0.85655   0.73317   0.01267  Uiso   1.00
C78    C     0.51790   0.93115   0.71131   0.01267  Uiso   1.00
C79    C     0.36500   0.24440   0.40507   0.01267  Uiso   1.00
C80    C     0.44990   0.23597   0.46059   0.01267  Uiso   1.00
C81    C     0.45230   0.16310   0.50135   0.01267  Uiso   1.00
C82    C     0.52200   0.16130   0.55735   0.01267  Uiso   1.00
C83    C     0.58900   0.29710   0.53207   0.01267  Uiso   1.00
C84    C     0.52120   0.30350   0.47631   0.01267  Uiso   1.00
N13    N     0.38850   0.85744   0.78364   0.01267  Uiso   1.00
N14    N     0.58900   0.22758   0.57367   0.01267  Uiso   1.00
O25    O     0.51090   0.16404   0.73066   0.01267  Uiso   1.00
O26    O     0.64758   0.08214   0.69421   0.01267  Uiso   1.00
O27    O     0.31535   0.17734   0.38600   0.01267  Uiso   1.00
O28    O     0.34470   0.31937   0.38302   0.01267  Uiso   1.00
H49    H     0.39306   0.07615   0.81886   0.01267  Uiso   1.00
H50    H     0.30153   0.93403   0.85472   0.01267  Uiso   1.00
H51    H     0.48037   0.79105   0.70791   0.01267  Uiso   1.00
H52    H     0.58181   0.92832   0.66880   0.01267  Uiso   1.00
H53    H     0.39730   0.10475   0.48904   0.01267  Uiso   1.00
H54    H     0.52379   0.10150   0.59175   0.01267  Uiso   1.00
H55    H     0.64873   0.35233   0.54477   0.01267  Uiso   1.00
H56    H     0.52368   0.36434   0.44305   0.01267  Uiso   1.00
Cd8    Cd    0.81115   0.77225   0.17872   0.01267  Uiso   1.00
C85    C     0.94500   0.90857   0.22136   0.01267  Uiso   1.00
C86    C     0.00630   0.99003   0.24227   0.01267  Uiso   1.00
C87    C     0.08460   0.98827   0.29337   0.01267  Uiso   1.00
C88    C     0.13420   0.06552   0.31236   0.01267  Uiso   1.00
C89    C     0.03710   0.14345   0.23317   0.01267  Uiso   1.00
C90    C     0.98210   0.06885   0.21131   0.01267  Uiso   1.00
C91    C     0.13500   0.75560   0.90507   0.01267  Uiso   1.00
C92    C     0.05010   0.76403   0.96059   0.01267  Uiso   1.00
C93    C     0.04770   0.83690   0.00135   0.01267  Uiso   1.00
C94    C     0.97800   0.83870   0.05735   0.01267  Uiso   1.00
C95    C     0.91100   0.70290   0.03207   0.01267  Uiso   1.00
C96    C     0.97880   0.69650   0.97631   0.01267  Uiso   1.00
N15    N     0.11150   0.14256   0.28364   0.01267  Uiso   1.00
N16    N     0.91100   0.77242   0.07367   0.01267  Uiso   1.00
O29    O     0.98910   0.83596   0.23066   0.01267  Uiso   1.00
O30    O     0.85242   0.91786   0.19421   0.01267  Uiso   1.00
O31    O     0.18465   0.82266   0.88600   0.01267  Uiso   1.00
O32    O     0.15530   0.68063   0.88302   0.01267  Uiso   1.00
H57    H     0.10694   0.92385   0.31886   0.01267  Uiso   1.00
H58    H     0.19847   0.06597   0.35472   0.01267  Uiso   1.00
H59    H     0.01963   0.20895   0.20791   0.01267  Uiso   1.00
H60    H     0.91819   0.07168   0.16880   0.01267  Uiso   1.00
H61    H     0.10270   0.89525   0.98904   0.01267  Uiso   1.00
H62    H     0.97621   0.89850   0.09175   0.01267  Uiso   1.00
H63    H     0.85127   0.64767   0.04477   0.01267  Uiso   1.00
H64    H     0.97632   0.63566   0.94305   0.01267  Uiso   1.00
