data_KENJEU_clean
_audit_creation_date              2014-07-02
_audit_creation_method            'Materials Studio'
_symmetry_space_group_name_H-M    'P1'
_symmetry_Int_Tables_number       1
_symmetry_cell_setting            triclinic
loop_
_symmetry_equiv_pos_as_xyz
  x,y,z
_cell_length_a                    13.6883
_cell_length_b                    24.9720
_cell_length_c                    18.2727
_cell_angle_alpha                 101.0970
_cell_angle_beta                  90.0000
_cell_angle_gamma                 90.0000
loop_
_atom_site_label
_atom_site_type_symbol
_atom_site_fract_x
_atom_site_fract_y
_atom_site_fract_z
_atom_site_U_iso_or_equiv
_atom_site_adp_type
_atom_site_occupancy
Zn1    Zn    0.18535   0.34769   0.62818   0.01267  Uiso   1.00
Zn2    Zn    0.89465   0.96160   0.77272   0.01267  Uiso   1.00
Zn3    Zn    0.78730   0.33866   0.07078   0.01267  Uiso   1.00
Zn4    Zn    0.68535   0.65231   0.87182   0.01267  Uiso   1.00
Zn5    Zn    0.39465   0.03840   0.72728   0.01267  Uiso   1.00
Zn6    Zn    0.28730   0.66134   0.42922   0.01267  Uiso   1.00
Zn7    Zn    0.81465   0.65231   0.37182   0.01267  Uiso   1.00
Zn8    Zn    0.10535   0.03840   0.22728   0.01267  Uiso   1.00
Zn9    Zn    0.21270   0.66134   0.92922   0.01267  Uiso   1.00
Zn10   Zn    0.31465   0.34769   0.12818   0.01267  Uiso   1.00
Zn11   Zn    0.60535   0.96160   0.27272   0.01267  Uiso   1.00
Zn12   Zn    0.71270   0.33866   0.57078   0.01267  Uiso   1.00
H1     H     0.01950   0.15440   0.61380   0.01267  Uiso   1.00
H2     H     0.88670   0.02440   0.49030   0.01267  Uiso   1.00
H3     H     0.88760   0.16810   0.42270   0.01267  Uiso   1.00
H4     H     0.11640   0.22380   0.58980   0.01267  Uiso   1.00
H5     H     0.98710   0.34770   0.53000   0.01267  Uiso   1.00
H6     H     0.88930   0.26700   0.48050   0.01267  Uiso   1.00
H7     H     0.86860   0.00350   0.61810   0.01267  Uiso   1.00
H8     H     0.08930   0.03180   0.75460   0.01267  Uiso   1.00
H9     H     0.11090   0.08900   0.66320   0.01267  Uiso   1.00
H10    H     0.74290   0.00880   0.41570   0.01267  Uiso   1.00
H11    H     0.72670   0.06360   0.23010   0.01267  Uiso   1.00
H12    H     0.84860   0.11810   0.30750   0.01267  Uiso   1.00
H13    H     0.50240   0.31710   0.35480   0.01267  Uiso   1.00
H14    H     0.54150   0.45210   0.26910   0.01267  Uiso   1.00
H15    H     0.40510   0.46180   0.46590   0.01267  Uiso   1.00
H16    H     0.28320   0.40500   0.50880   0.01267  Uiso   1.00
H17    H     0.37750   0.27190   0.56970   0.01267  Uiso   1.00
H18    H     0.49050   0.29160   0.47610   0.01267  Uiso   1.00
H19    H     0.63740   0.40460   0.18720   0.01267  Uiso   1.00
H20    H     0.57860   0.26850   0.25760   0.01267  Uiso   1.00
H21    H     0.69350   0.24910   0.15500   0.01267  Uiso   1.00
H22    H     0.32380   0.53750   0.42210   0.01267  Uiso   1.00
H23    H     0.49340   0.63750   0.34220   0.01267  Uiso   1.00
H24    H     0.57370   0.54900   0.31820   0.01267  Uiso   1.00
H25    H     0.09570   0.52600   0.70170   0.01267  Uiso   1.00
H26    H     0.26200   0.54940   0.69760   0.01267  Uiso   1.00
H27    H     0.25730   0.54100   0.61030   0.01267  Uiso   1.00
H28    H     0.24680   0.63210   0.66030   0.01267  Uiso   1.00
H29    H     0.15720   0.62190   0.70920   0.01267  Uiso   1.00
H30    H     0.09290   0.65430   0.61410   0.01267  Uiso   1.00
H31    H     0.99110   0.58800   0.63490   0.01267  Uiso   1.00
H32    H     0.99870   0.57840   0.54780   0.01267  Uiso   1.00
H33    H     0.09970   0.50680   0.54470   0.01267  Uiso   1.00
H34    H     0.00830   0.49770   0.59240   0.01267  Uiso   1.00
H35    H     0.20840   0.28870   0.83790   0.01267  Uiso   1.00
H36    H     0.20420   0.18280   0.74860   0.01267  Uiso   1.00
H37    H     0.11270   0.21450   0.78640   0.01267  Uiso   1.00
H38    H     0.16960   0.20800   0.90410   0.01267  Uiso   1.00
H39    H     0.16540   0.14920   0.85500   0.01267  Uiso   1.00
H40    H     0.31100   0.16590   0.92440   0.01267  Uiso   1.00
H41    H     0.42850   0.22440   0.88730   0.01267  Uiso   1.00
H42    H     0.33640   0.25570   0.92480   0.01267  Uiso   1.00
H43    H     0.37330   0.23150   0.76990   0.01267  Uiso   1.00
H44    H     0.37570   0.29020   0.81960   0.01267  Uiso   1.00
H45    H     0.51950   0.84560   0.88620   0.01267  Uiso   1.00
H46    H     0.38670   0.97560   0.00970   0.01267  Uiso   1.00
H47    H     0.38760   0.83190   0.07730   0.01267  Uiso   1.00
H48    H     0.61640   0.77620   0.91020   0.01267  Uiso   1.00
H49    H     0.48710   0.65230   0.97000   0.01267  Uiso   1.00
H50    H     0.38930   0.73300   0.01950   0.01267  Uiso   1.00
H51    H     0.36860   0.99650   0.88190   0.01267  Uiso   1.00
H52    H     0.58930   0.96820   0.74540   0.01267  Uiso   1.00
H53    H     0.61090   0.91100   0.83680   0.01267  Uiso   1.00
H54    H     0.24290   0.99120   0.08430   0.01267  Uiso   1.00
H55    H     0.22670   0.93640   0.26990   0.01267  Uiso   1.00
H56    H     0.34860   0.88190   0.19250   0.01267  Uiso   1.00
H57    H     0.00240   0.68290   0.14520   0.01267  Uiso   1.00
H58    H     0.04150   0.54790   0.23090   0.01267  Uiso   1.00
H59    H     0.90510   0.53820   0.03410   0.01267  Uiso   1.00
H60    H     0.78320   0.59500   0.99120   0.01267  Uiso   1.00
H61    H     0.87750   0.72810   0.93030   0.01267  Uiso   1.00
H62    H     0.99050   0.70840   0.02390   0.01267  Uiso   1.00
H63    H     0.13740   0.59540   0.31280   0.01267  Uiso   1.00
H64    H     0.07860   0.73150   0.24240   0.01267  Uiso   1.00
H65    H     0.19350   0.75090   0.34500   0.01267  Uiso   1.00
H66    H     0.82380   0.46250   0.07790   0.01267  Uiso   1.00
H67    H     0.99340   0.36250   0.15780   0.01267  Uiso   1.00
H68    H     0.07370   0.45100   0.18180   0.01267  Uiso   1.00
H69    H     0.59570   0.47400   0.79830   0.01267  Uiso   1.00
H70    H     0.76200   0.45060   0.80240   0.01267  Uiso   1.00
H71    H     0.75730   0.45900   0.88970   0.01267  Uiso   1.00
H72    H     0.74680   0.36790   0.83970   0.01267  Uiso   1.00
H73    H     0.65720   0.37810   0.79080   0.01267  Uiso   1.00
H74    H     0.59290   0.34570   0.88590   0.01267  Uiso   1.00
H75    H     0.49110   0.41200   0.86510   0.01267  Uiso   1.00
H76    H     0.49870   0.42160   0.95220   0.01267  Uiso   1.00
H77    H     0.59970   0.49320   0.95530   0.01267  Uiso   1.00
H78    H     0.50830   0.50230   0.90760   0.01267  Uiso   1.00
H79    H     0.70840   0.71130   0.66210   0.01267  Uiso   1.00
H80    H     0.70420   0.81720   0.75140   0.01267  Uiso   1.00
H81    H     0.61270   0.78550   0.71360   0.01267  Uiso   1.00
H82    H     0.66960   0.79200   0.59590   0.01267  Uiso   1.00
H83    H     0.66540   0.85080   0.64500   0.01267  Uiso   1.00
H84    H     0.81100   0.83410   0.57560   0.01267  Uiso   1.00
H85    H     0.92850   0.77560   0.61270   0.01267  Uiso   1.00
H86    H     0.83640   0.74430   0.57520   0.01267  Uiso   1.00
H87    H     0.87330   0.76850   0.73010   0.01267  Uiso   1.00
H88    H     0.87570   0.70980   0.68040   0.01267  Uiso   1.00
H89    H     0.98050   0.84560   0.38620   0.01267  Uiso   1.00
H90    H     0.11330   0.97560   0.50970   0.01267  Uiso   1.00
H91    H     0.11240   0.83190   0.57730   0.01267  Uiso   1.00
H92    H     0.88360   0.77620   0.41020   0.01267  Uiso   1.00
H93    H     0.01290   0.65230   0.47000   0.01267  Uiso   1.00
H94    H     0.11070   0.73300   0.51950   0.01267  Uiso   1.00
H95    H     0.13140   0.99650   0.38190   0.01267  Uiso   1.00
H96    H     0.91070   0.96820   0.24540   0.01267  Uiso   1.00
H97    H     0.88910   0.91100   0.33680   0.01267  Uiso   1.00
H98    H     0.25710   0.99120   0.58430   0.01267  Uiso   1.00
H99    H     0.27330   0.93640   0.76990   0.01267  Uiso   1.00
H100   H     0.15140   0.88190   0.69250   0.01267  Uiso   1.00
H101   H     0.49760   0.68290   0.64520   0.01267  Uiso   1.00
H102   H     0.45850   0.54790   0.73090   0.01267  Uiso   1.00
H103   H     0.59490   0.53820   0.53410   0.01267  Uiso   1.00
H104   H     0.71680   0.59500   0.49120   0.01267  Uiso   1.00
H105   H     0.62250   0.72810   0.43030   0.01267  Uiso   1.00
H106   H     0.50950   0.70840   0.52390   0.01267  Uiso   1.00
H107   H     0.36260   0.59540   0.81280   0.01267  Uiso   1.00
H108   H     0.42140   0.73150   0.74240   0.01267  Uiso   1.00
H109   H     0.30650   0.75090   0.84500   0.01267  Uiso   1.00
H110   H     0.67620   0.46250   0.57790   0.01267  Uiso   1.00
H111   H     0.50660   0.36250   0.65780   0.01267  Uiso   1.00
H112   H     0.42630   0.45100   0.68180   0.01267  Uiso   1.00
H113   H     0.90430   0.47400   0.29830   0.01267  Uiso   1.00
H114   H     0.73800   0.45060   0.30240   0.01267  Uiso   1.00
H115   H     0.74270   0.45900   0.38970   0.01267  Uiso   1.00
H116   H     0.75320   0.36790   0.33970   0.01267  Uiso   1.00
H117   H     0.84280   0.37810   0.29080   0.01267  Uiso   1.00
H118   H     0.90710   0.34570   0.38590   0.01267  Uiso   1.00
H119   H     0.00890   0.41200   0.36510   0.01267  Uiso   1.00
H120   H     0.00130   0.42160   0.45220   0.01267  Uiso   1.00
H121   H     0.90030   0.49320   0.45530   0.01267  Uiso   1.00
H122   H     0.99170   0.50230   0.40760   0.01267  Uiso   1.00
H123   H     0.79160   0.71130   0.16210   0.01267  Uiso   1.00
H124   H     0.79580   0.81720   0.25140   0.01267  Uiso   1.00
H125   H     0.88730   0.78550   0.21360   0.01267  Uiso   1.00
H126   H     0.83040   0.79200   0.09590   0.01267  Uiso   1.00
H127   H     0.83460   0.85080   0.14500   0.01267  Uiso   1.00
H128   H     0.68900   0.83410   0.07560   0.01267  Uiso   1.00
H129   H     0.57150   0.77560   0.11270   0.01267  Uiso   1.00
H130   H     0.66360   0.74430   0.07520   0.01267  Uiso   1.00
H131   H     0.62670   0.76850   0.23010   0.01267  Uiso   1.00
H132   H     0.62430   0.70980   0.18040   0.01267  Uiso   1.00
H133   H     0.48050   0.15440   0.11380   0.01267  Uiso   1.00
H134   H     0.61330   0.02440   0.99030   0.01267  Uiso   1.00
H135   H     0.61240   0.16810   0.92270   0.01267  Uiso   1.00
H136   H     0.38360   0.22380   0.08980   0.01267  Uiso   1.00
H137   H     0.51290   0.34770   0.03000   0.01267  Uiso   1.00
H138   H     0.61070   0.26700   0.98050   0.01267  Uiso   1.00
H139   H     0.63140   0.00350   0.11810   0.01267  Uiso   1.00
H140   H     0.41070   0.03180   0.25460   0.01267  Uiso   1.00
H141   H     0.38910   0.08900   0.16320   0.01267  Uiso   1.00
H142   H     0.75710   0.00880   0.91570   0.01267  Uiso   1.00
H143   H     0.77330   0.06360   0.73010   0.01267  Uiso   1.00
H144   H     0.65140   0.11810   0.80750   0.01267  Uiso   1.00
H145   H     0.99760   0.31710   0.85480   0.01267  Uiso   1.00
H146   H     0.95850   0.45210   0.76910   0.01267  Uiso   1.00
H147   H     0.09490   0.46180   0.96590   0.01267  Uiso   1.00
H148   H     0.21680   0.40500   0.00880   0.01267  Uiso   1.00
H149   H     0.12250   0.27190   0.06970   0.01267  Uiso   1.00
H150   H     0.00950   0.29160   0.97610   0.01267  Uiso   1.00
H151   H     0.86260   0.40460   0.68720   0.01267  Uiso   1.00
H152   H     0.92140   0.26850   0.75760   0.01267  Uiso   1.00
H153   H     0.80650   0.24910   0.65500   0.01267  Uiso   1.00
H154   H     0.17620   0.53750   0.92210   0.01267  Uiso   1.00
H155   H     0.00660   0.63750   0.84220   0.01267  Uiso   1.00
H156   H     0.92630   0.54900   0.81820   0.01267  Uiso   1.00
H157   H     0.40430   0.52600   0.20170   0.01267  Uiso   1.00
H158   H     0.23800   0.54940   0.19760   0.01267  Uiso   1.00
H159   H     0.24270   0.54100   0.11030   0.01267  Uiso   1.00
H160   H     0.25320   0.63210   0.16030   0.01267  Uiso   1.00
H161   H     0.34280   0.62190   0.20920   0.01267  Uiso   1.00
H162   H     0.40710   0.65430   0.11410   0.01267  Uiso   1.00
H163   H     0.50890   0.58800   0.13490   0.01267  Uiso   1.00
H164   H     0.50130   0.57840   0.04780   0.01267  Uiso   1.00
H165   H     0.40030   0.50680   0.04470   0.01267  Uiso   1.00
H166   H     0.49170   0.49770   0.09240   0.01267  Uiso   1.00
H167   H     0.29160   0.28870   0.33790   0.01267  Uiso   1.00
H168   H     0.29580   0.18280   0.24860   0.01267  Uiso   1.00
H169   H     0.38730   0.21450   0.28640   0.01267  Uiso   1.00
H170   H     0.33040   0.20800   0.40410   0.01267  Uiso   1.00
H171   H     0.33460   0.14920   0.35500   0.01267  Uiso   1.00
H172   H     0.18900   0.16590   0.42440   0.01267  Uiso   1.00
H173   H     0.07150   0.22440   0.38730   0.01267  Uiso   1.00
H174   H     0.16360   0.25570   0.42480   0.01267  Uiso   1.00
H175   H     0.12670   0.23150   0.26990   0.01267  Uiso   1.00
H176   H     0.12430   0.29020   0.31960   0.01267  Uiso   1.00
C1     C     0.96100   0.16958   0.51930   0.01267  Uiso   1.00
C2     C     0.98480   0.13886   0.57120   0.01267  Uiso   1.00
C3     C     0.95730   0.08511   0.56030   0.01267  Uiso   1.00
C4     C     0.90390   0.06111   0.49820   0.01267  Uiso   1.00
C5     C     0.87710   0.09353   0.44870   0.01267  Uiso   1.00
C6     C     0.90540   0.14718   0.45750   0.01267  Uiso   1.00
C7     C     0.07220   0.24488   0.56890   0.01267  Uiso   1.00
C8     C     0.00110   0.31236   0.53580   0.01267  Uiso   1.00
C9     C     0.94640   0.26805   0.50840   0.01267  Uiso   1.00
C10    C     0.92640   0.01749   0.64080   0.01267  Uiso   1.00
C11    C     0.04710   0.03330   0.71510   0.01267  Uiso   1.00
C12    C     0.05960   0.06480   0.66500   0.01267  Uiso   1.00
C13    C     0.75300   0.02932   0.37900   0.01267  Uiso   1.00
C14    C     0.74500   0.05950   0.27770   0.01267  Uiso   1.00
C15    C     0.81240   0.08980   0.32020   0.01267  Uiso   1.00
C16    C     0.44370   0.38555   0.41790   0.01267  Uiso   1.00
C17    C     0.49400   0.35441   0.35780   0.01267  Uiso   1.00
C18    C     0.53080   0.37967   0.30330   0.01267  Uiso   1.00
C19    C     0.51770   0.43518   0.30660   0.01267  Uiso   1.00
C20    C     0.46820   0.46476   0.36710   0.01267  Uiso   1.00
C21    C     0.43420   0.44079   0.42400   0.01267  Uiso   1.00
C22    C     0.32060   0.37461   0.51270   0.01267  Uiso   1.00
C23    C     0.37310   0.30140   0.54570   0.01267  Uiso   1.00
C24    C     0.43570   0.31195   0.49400   0.01267  Uiso   1.00
C25    C     0.63790   0.36820   0.19220   0.01267  Uiso   1.00
C26    C     0.60450   0.29358   0.23130   0.01267  Uiso   1.00
C27    C     0.66810   0.28340   0.17490   0.01267  Uiso   1.00
C28    C     0.37620   0.55151   0.39940   0.01267  Uiso   1.00
C29    C     0.46930   0.60589   0.35540   0.01267  Uiso   1.00
C30    C     0.51400   0.55722   0.34210   0.01267  Uiso   1.00
C31    C     0.13210   0.51372   0.65530   0.01267  Uiso   1.00
C32    C     0.21990   0.55220   0.65580   0.01267  Uiso   1.00
C33    C     0.18920   0.60970   0.66160   0.01267  Uiso   1.00
C34    C     0.12080   0.61770   0.59980   0.01267  Uiso   1.00
C35    C     0.03490   0.57690   0.59300   0.01267  Uiso   1.00
C36    C     0.06590   0.52010   0.59130   0.01267  Uiso   1.00
C37    C     0.16600   0.45530   0.65470   0.01267  Uiso   1.00
C38    C     0.17700   0.61600   0.52570   0.01267  Uiso   1.00
C39    C     0.23610   0.26199   0.79680   0.01267  Uiso   1.00
C40    C     0.18200   0.20850   0.79220   0.01267  Uiso   1.00
C41    C     0.19820   0.18420   0.86120   0.01267  Uiso   1.00
C42    C     0.30560   0.17660   0.87570   0.01267  Uiso   1.00
C43    C     0.35920   0.23030   0.88110   0.01267  Uiso   1.00
C44    C     0.34360   0.25490   0.81260   0.01267  Uiso   1.00
C45    C     0.22660   0.28400   0.72590   0.01267  Uiso   1.00
C46    C     0.35470   0.13060   0.81720   0.01267  Uiso   1.00
C47    C     0.46100   0.83042   0.98070   0.01267  Uiso   1.00
C48    C     0.48480   0.86114   0.92880   0.01267  Uiso   1.00
C49    C     0.45730   0.91489   0.93970   0.01267  Uiso   1.00
C50    C     0.40390   0.93889   0.00180   0.01267  Uiso   1.00
C51    C     0.37710   0.90647   0.05130   0.01267  Uiso   1.00
C52    C     0.40540   0.85282   0.04250   0.01267  Uiso   1.00
C53    C     0.57220   0.75512   0.93110   0.01267  Uiso   1.00
C54    C     0.50110   0.68764   0.96420   0.01267  Uiso   1.00
C55    C     0.44640   0.73195   0.99160   0.01267  Uiso   1.00
C56    C     0.42640   0.98251   0.85920   0.01267  Uiso   1.00
C57    C     0.54710   0.96670   0.78490   0.01267  Uiso   1.00
C58    C     0.55960   0.93520   0.83500   0.01267  Uiso   1.00
C59    C     0.25300   0.97068   0.12100   0.01267  Uiso   1.00
C60    C     0.24500   0.94050   0.22230   0.01267  Uiso   1.00
C61    C     0.31240   0.91020   0.17980   0.01267  Uiso   1.00
C62    C     0.94370   0.61445   0.08210   0.01267  Uiso   1.00
C63    C     0.99400   0.64559   0.14220   0.01267  Uiso   1.00
C64    C     0.03080   0.62033   0.19670   0.01267  Uiso   1.00
C65    C     0.01770   0.56482   0.19340   0.01267  Uiso   1.00
C66    C     0.96820   0.53524   0.13290   0.01267  Uiso   1.00
C67    C     0.93420   0.55921   0.07600   0.01267  Uiso   1.00
C68    C     0.82060   0.62539   0.98730   0.01267  Uiso   1.00
C69    C     0.87310   0.69860   0.95430   0.01267  Uiso   1.00
C70    C     0.93570   0.68805   0.00600   0.01267  Uiso   1.00
C71    C     0.13790   0.63180   0.30780   0.01267  Uiso   1.00
C72    C     0.10450   0.70642   0.26870   0.01267  Uiso   1.00
C73    C     0.16810   0.71660   0.32510   0.01267  Uiso   1.00
C74    C     0.87620   0.44849   0.10060   0.01267  Uiso   1.00
C75    C     0.96930   0.39411   0.14460   0.01267  Uiso   1.00
C76    C     0.01400   0.44278   0.15790   0.01267  Uiso   1.00
C77    C     0.63210   0.48628   0.84470   0.01267  Uiso   1.00
C78    C     0.71990   0.44780   0.84420   0.01267  Uiso   1.00
C79    C     0.68920   0.39030   0.83840   0.01267  Uiso   1.00
C80    C     0.62080   0.38230   0.90020   0.01267  Uiso   1.00
C81    C     0.53490   0.42310   0.90700   0.01267  Uiso   1.00
C82    C     0.56590   0.47990   0.90870   0.01267  Uiso   1.00
C83    C     0.66600   0.54470   0.84530   0.01267  Uiso   1.00
C84    C     0.67700   0.38400   0.97430   0.01267  Uiso   1.00
C85    C     0.73610   0.73801   0.70320   0.01267  Uiso   1.00
C86    C     0.68200   0.79150   0.70780   0.01267  Uiso   1.00
C87    C     0.69820   0.81580   0.63880   0.01267  Uiso   1.00
C88    C     0.80560   0.82340   0.62430   0.01267  Uiso   1.00
C89    C     0.85920   0.76970   0.61890   0.01267  Uiso   1.00
C90    C     0.84360   0.74510   0.68740   0.01267  Uiso   1.00
C91    C     0.72660   0.71600   0.77410   0.01267  Uiso   1.00
C92    C     0.85470   0.86940   0.68280   0.01267  Uiso   1.00
C93    C     0.03900   0.83042   0.48070   0.01267  Uiso   1.00
C94    C     0.01520   0.86114   0.42880   0.01267  Uiso   1.00
C95    C     0.04270   0.91489   0.43970   0.01267  Uiso   1.00
C96    C     0.09610   0.93889   0.50180   0.01267  Uiso   1.00
C97    C     0.12290   0.90647   0.55130   0.01267  Uiso   1.00
C98    C     0.09460   0.85282   0.54250   0.01267  Uiso   1.00
C99    C     0.92780   0.75512   0.43110   0.01267  Uiso   1.00
C100   C     0.99890   0.68764   0.46420   0.01267  Uiso   1.00
C101   C     0.05360   0.73195   0.49160   0.01267  Uiso   1.00
C102   C     0.07360   0.98251   0.35920   0.01267  Uiso   1.00
C103   C     0.95290   0.96670   0.28490   0.01267  Uiso   1.00
C104   C     0.94040   0.93520   0.33500   0.01267  Uiso   1.00
C105   C     0.24700   0.97068   0.62100   0.01267  Uiso   1.00
C106   C     0.25500   0.94050   0.72230   0.01267  Uiso   1.00
C107   C     0.18760   0.91020   0.67980   0.01267  Uiso   1.00
C108   C     0.55630   0.61445   0.58210   0.01267  Uiso   1.00
C109   C     0.50600   0.64559   0.64220   0.01267  Uiso   1.00
C110   C     0.46920   0.62033   0.69670   0.01267  Uiso   1.00
C111   C     0.48230   0.56482   0.69340   0.01267  Uiso   1.00
C112   C     0.53180   0.53524   0.63290   0.01267  Uiso   1.00
C113   C     0.56580   0.55921   0.57600   0.01267  Uiso   1.00
C114   C     0.67940   0.62539   0.48730   0.01267  Uiso   1.00
C115   C     0.62690   0.69860   0.45430   0.01267  Uiso   1.00
C116   C     0.56430   0.68805   0.50600   0.01267  Uiso   1.00
C117   C     0.36210   0.63180   0.80780   0.01267  Uiso   1.00
C118   C     0.39550   0.70642   0.76870   0.01267  Uiso   1.00
C119   C     0.33190   0.71660   0.82510   0.01267  Uiso   1.00
C120   C     0.62380   0.44849   0.60060   0.01267  Uiso   1.00
C121   C     0.53070   0.39411   0.64460   0.01267  Uiso   1.00
C122   C     0.48600   0.44278   0.65790   0.01267  Uiso   1.00
C123   C     0.86790   0.48628   0.34470   0.01267  Uiso   1.00
C124   C     0.78010   0.44780   0.34420   0.01267  Uiso   1.00
C125   C     0.81080   0.39030   0.33840   0.01267  Uiso   1.00
C126   C     0.87920   0.38230   0.40020   0.01267  Uiso   1.00
C127   C     0.96510   0.42310   0.40700   0.01267  Uiso   1.00
C128   C     0.93410   0.47990   0.40870   0.01267  Uiso   1.00
C129   C     0.83400   0.54470   0.34530   0.01267  Uiso   1.00
C130   C     0.82300   0.38400   0.47430   0.01267  Uiso   1.00
C131   C     0.76390   0.73801   0.20320   0.01267  Uiso   1.00
C132   C     0.81800   0.79150   0.20780   0.01267  Uiso   1.00
C133   C     0.80180   0.81580   0.13880   0.01267  Uiso   1.00
C134   C     0.69440   0.82340   0.12430   0.01267  Uiso   1.00
C135   C     0.64080   0.76970   0.11890   0.01267  Uiso   1.00
C136   C     0.65640   0.74510   0.18740   0.01267  Uiso   1.00
C137   C     0.77340   0.71600   0.27410   0.01267  Uiso   1.00
C138   C     0.64530   0.86940   0.18280   0.01267  Uiso   1.00
C139   C     0.53900   0.16958   0.01930   0.01267  Uiso   1.00
C140   C     0.51520   0.13886   0.07120   0.01267  Uiso   1.00
C141   C     0.54270   0.08511   0.06030   0.01267  Uiso   1.00
C142   C     0.59610   0.06111   0.99820   0.01267  Uiso   1.00
C143   C     0.62290   0.09353   0.94870   0.01267  Uiso   1.00
C144   C     0.59460   0.14718   0.95750   0.01267  Uiso   1.00
C145   C     0.42780   0.24488   0.06890   0.01267  Uiso   1.00
C146   C     0.49890   0.31236   0.03580   0.01267  Uiso   1.00
C147   C     0.55360   0.26805   0.00840   0.01267  Uiso   1.00
C148   C     0.57360   0.01749   0.14080   0.01267  Uiso   1.00
C149   C     0.45290   0.03330   0.21510   0.01267  Uiso   1.00
C150   C     0.44040   0.06480   0.16500   0.01267  Uiso   1.00
C151   C     0.74700   0.02932   0.87900   0.01267  Uiso   1.00
C152   C     0.75500   0.05950   0.77770   0.01267  Uiso   1.00
C153   C     0.68760   0.08980   0.82020   0.01267  Uiso   1.00
C154   C     0.05630   0.38555   0.91790   0.01267  Uiso   1.00
C155   C     0.00600   0.35441   0.85780   0.01267  Uiso   1.00
C156   C     0.96920   0.37967   0.80330   0.01267  Uiso   1.00
C157   C     0.98230   0.43518   0.80660   0.01267  Uiso   1.00
C158   C     0.03180   0.46476   0.86710   0.01267  Uiso   1.00
C159   C     0.06580   0.44079   0.92400   0.01267  Uiso   1.00
C160   C     0.17940   0.37461   0.01270   0.01267  Uiso   1.00
C161   C     0.12690   0.30140   0.04570   0.01267  Uiso   1.00
C162   C     0.06430   0.31195   0.99400   0.01267  Uiso   1.00
C163   C     0.86210   0.36820   0.69220   0.01267  Uiso   1.00
C164   C     0.89550   0.29358   0.73130   0.01267  Uiso   1.00
C165   C     0.83190   0.28340   0.67490   0.01267  Uiso   1.00
C166   C     0.12380   0.55151   0.89940   0.01267  Uiso   1.00
C167   C     0.03070   0.60589   0.85540   0.01267  Uiso   1.00
C168   C     0.98600   0.55722   0.84210   0.01267  Uiso   1.00
C169   C     0.36790   0.51372   0.15530   0.01267  Uiso   1.00
C170   C     0.28010   0.55220   0.15580   0.01267  Uiso   1.00
C171   C     0.31080   0.60970   0.16160   0.01267  Uiso   1.00
C172   C     0.37920   0.61770   0.09980   0.01267  Uiso   1.00
C173   C     0.46510   0.57690   0.09300   0.01267  Uiso   1.00
C174   C     0.43410   0.52010   0.09130   0.01267  Uiso   1.00
C175   C     0.33400   0.45530   0.15470   0.01267  Uiso   1.00
C176   C     0.32300   0.61600   0.02570   0.01267  Uiso   1.00
C177   C     0.26390   0.26199   0.29680   0.01267  Uiso   1.00
C178   C     0.31800   0.20850   0.29220   0.01267  Uiso   1.00
C179   C     0.30180   0.18420   0.36120   0.01267  Uiso   1.00
C180   C     0.19440   0.17660   0.37570   0.01267  Uiso   1.00
C181   C     0.14080   0.23030   0.38110   0.01267  Uiso   1.00
C182   C     0.15640   0.25490   0.31260   0.01267  Uiso   1.00
C183   C     0.27340   0.28400   0.22590   0.01267  Uiso   1.00
C184   C     0.14530   0.13060   0.31720   0.01267  Uiso   1.00
N1     N     0.08020   0.29770   0.57350   0.01267  Uiso   1.00
N2     N     0.99240   0.22495   0.53030   0.01267  Uiso   1.00
N3     N     0.96300   0.00312   0.70020   0.01267  Uiso   1.00
N4     N     0.98180   0.05492   0.61630   0.01267  Uiso   1.00
N5     N     0.70680   0.02113   0.31580   0.01267  Uiso   1.00
N6     N     0.81770   0.07113   0.38530   0.01267  Uiso   1.00
N7     N     0.30120   0.34062   0.55800   0.01267  Uiso   1.00
N8     N     0.40330   0.35885   0.47220   0.01267  Uiso   1.00
N9     N     0.69030   0.33025   0.15050   0.01267  Uiso   1.00
N10    N     0.58480   0.34855   0.24290   0.01267  Uiso   1.00
N11    N     0.38310   0.60189   0.39150   0.01267  Uiso   1.00
N12    N     0.45460   0.52194   0.37050   0.01267  Uiso   1.00
N13    N     0.58020   0.70230   0.92650   0.01267  Uiso   1.00
N14    N     0.49240   0.77505   0.96970   0.01267  Uiso   1.00
N15    N     0.46300   0.99688   0.79980   0.01267  Uiso   1.00
N16    N     0.48180   0.94508   0.88370   0.01267  Uiso   1.00
N17    N     0.20680   0.97887   0.18420   0.01267  Uiso   1.00
N18    N     0.31770   0.92887   0.11470   0.01267  Uiso   1.00
N19    N     0.80120   0.65938   0.94200   0.01267  Uiso   1.00
N20    N     0.90330   0.64115   0.02780   0.01267  Uiso   1.00
N21    N     0.19030   0.66975   0.34950   0.01267  Uiso   1.00
N22    N     0.08480   0.65145   0.25710   0.01267  Uiso   1.00
N23    N     0.88310   0.39811   0.10850   0.01267  Uiso   1.00
N24    N     0.95460   0.47806   0.12950   0.01267  Uiso   1.00
N25    N     0.91980   0.70230   0.42650   0.01267  Uiso   1.00
N26    N     0.00760   0.77505   0.46970   0.01267  Uiso   1.00
N27    N     0.03700   0.99688   0.29980   0.01267  Uiso   1.00
N28    N     0.01820   0.94508   0.38370   0.01267  Uiso   1.00
N29    N     0.29320   0.97887   0.68420   0.01267  Uiso   1.00
N30    N     0.18230   0.92887   0.61470   0.01267  Uiso   1.00
N31    N     0.69880   0.65938   0.44200   0.01267  Uiso   1.00
N32    N     0.59670   0.64115   0.52780   0.01267  Uiso   1.00
N33    N     0.30970   0.66975   0.84950   0.01267  Uiso   1.00
N34    N     0.41520   0.65145   0.75710   0.01267  Uiso   1.00
N35    N     0.61690   0.39811   0.60850   0.01267  Uiso   1.00
N36    N     0.54540   0.47806   0.62950   0.01267  Uiso   1.00
N37    N     0.41980   0.29770   0.07350   0.01267  Uiso   1.00
N38    N     0.50760   0.22495   0.03030   0.01267  Uiso   1.00
N39    N     0.53700   0.00312   0.20020   0.01267  Uiso   1.00
N40    N     0.51820   0.05492   0.11630   0.01267  Uiso   1.00
N41    N     0.79320   0.02113   0.81580   0.01267  Uiso   1.00
N42    N     0.68230   0.07113   0.88530   0.01267  Uiso   1.00
N43    N     0.19880   0.34062   0.05800   0.01267  Uiso   1.00
N44    N     0.09670   0.35885   0.97220   0.01267  Uiso   1.00
N45    N     0.80970   0.33025   0.65050   0.01267  Uiso   1.00
N46    N     0.91520   0.34855   0.74290   0.01267  Uiso   1.00
N47    N     0.11690   0.60189   0.89150   0.01267  Uiso   1.00
N48    N     0.04540   0.52194   0.87050   0.01267  Uiso   1.00
O1     O     0.12240   0.41809   0.62490   0.01267  Uiso   1.00
O2     O     0.24600   0.44823   0.68590   0.01267  Uiso   1.00
O3     O     0.23470   0.65460   0.52730   0.01267  Uiso   1.00
O4     O     0.16320   0.58010   0.46990   0.01267  Uiso   1.00
O5     O     0.19550   0.33191   0.72912   0.01267  Uiso   1.00
O6     O     0.24960   0.25491   0.66510   0.01267  Uiso   1.00
O7     O     0.44260   0.13575   0.79850   0.01267  Uiso   1.00
O8     O     0.30630   0.08995   0.79390   0.01267  Uiso   1.00
O9     O     0.62240   0.58191   0.87510   0.01267  Uiso   1.00
O10    O     0.74600   0.55177   0.81410   0.01267  Uiso   1.00
O11    O     0.73470   0.34540   0.97270   0.01267  Uiso   1.00
O12    O     0.66320   0.41990   0.03010   0.01267  Uiso   1.00
O13    O     0.69550   0.66809   0.77088   0.01267  Uiso   1.00
O14    O     0.74960   0.74509   0.83490   0.01267  Uiso   1.00
O15    O     0.94260   0.86425   0.70150   0.01267  Uiso   1.00
O16    O     0.80630   0.91005   0.70610   0.01267  Uiso   1.00
O17    O     0.87760   0.58191   0.37510   0.01267  Uiso   1.00
O18    O     0.75400   0.55177   0.31410   0.01267  Uiso   1.00
O19    O     0.76530   0.34540   0.47270   0.01267  Uiso   1.00
O20    O     0.83680   0.41990   0.53010   0.01267  Uiso   1.00
O21    O     0.80450   0.66809   0.27088   0.01267  Uiso   1.00
O22    O     0.75040   0.74509   0.33490   0.01267  Uiso   1.00
O23    O     0.55740   0.86425   0.20150   0.01267  Uiso   1.00
O24    O     0.69370   0.91005   0.20610   0.01267  Uiso   1.00
O25    O     0.37760   0.41809   0.12490   0.01267  Uiso   1.00
O26    O     0.25400   0.44823   0.18590   0.01267  Uiso   1.00
O27    O     0.26530   0.65460   0.02730   0.01267  Uiso   1.00
O28    O     0.33680   0.58010   0.96990   0.01267  Uiso   1.00
O29    O     0.30450   0.33191   0.22912   0.01267  Uiso   1.00
O30    O     0.25040   0.25491   0.16510   0.01267  Uiso   1.00
O31    O     0.05740   0.13575   0.29850   0.01267  Uiso   1.00
O32    O     0.19370   0.08995   0.29390   0.01267  Uiso   1.00
