data_image0
_cell_length_a       16.807
_cell_length_b       16.807
_cell_length_c       16.807
_cell_angle_alpha    90
_cell_angle_beta     90
_cell_angle_gamma    90

_symmetry_space_group_name_H-M    "P 1"
_symmetry_int_tables_number       1

loop_
  _symmetry_equiv_pos_as_xyz
  'x, y, z'

loop_
  _atom_site_label
  _atom_site_occupancy
  _atom_site_fract_x
  _atom_site_fract_y
  _atom_site_fract_z
  _atom_site_thermal_displace_type
  _atom_site_B_iso_or_equiv
  _atom_site_type_symbol
  C1       1.0000 0.82080  0.39100  0.34130  Biso   1.000  C
  C2       1.0000 0.87600  0.45730  0.30210  Biso   1.000  C
  C3       1.0000 0.94670  0.41400  0.26230  Biso   1.000  C
  C4       1.0000 0.99040  0.38640  0.57340  Biso   1.000  C
  O1       1.0000 0.78850  0.34340  0.29440  Biso   1.000  O
  O2       1.0000 0.90460  0.50670  0.36420  Biso   1.000  O
  O3       1.0000 0.81440  0.39010  0.41480  Biso   1.000  O
  O4       1.0000 0.01630  0.43350  0.28840  Biso   1.000  O
  O5       1.0000 0.93510  0.36420  0.21020  Biso   1.000  O
  O6       1.0000 0.92140  0.37890  0.54890  Biso   1.000  O
  O7       1.0000 0.02600  0.33460  0.61680  Biso   1.000  O
  Zn1      1.0000 0.87464  0.47271  0.48276  Biso   1.000  Zn
  C5       1.0000 0.67920  0.60900  0.84130  Biso   1.000  C
  C6       1.0000 0.62400  0.54270  0.80210  Biso   1.000  C
  C7       1.0000 0.55330  0.58600  0.76230  Biso   1.000  C
  C8       1.0000 0.50960  0.61360  0.07340  Biso   1.000  C
  O8       1.0000 0.71150  0.65660  0.79440  Biso   1.000  O
  O9       1.0000 0.59540  0.49330  0.86420  Biso   1.000  O
  O10      1.0000 0.68560  0.60990  0.91480  Biso   1.000  O
  O11      1.0000 0.48370  0.56650  0.78840  Biso   1.000  O
  O12      1.0000 0.56490  0.63580  0.71020  Biso   1.000  O
  O13      1.0000 0.57860  0.62110  0.04890  Biso   1.000  O
  O14      1.0000 0.47400  0.66540  0.11680  Biso   1.000  O
  Zn2      1.0000 0.62536  0.52729  0.98276  Biso   1.000  Zn
  C9       1.0000 0.17920  0.89100  0.15870  Biso   1.000  C
  C10      1.0000 0.12400  0.95730  0.19790  Biso   1.000  C
  C11      1.0000 0.05330  0.91400  0.23770  Biso   1.000  C
  C12      1.0000 0.00960  0.88640  0.92660  Biso   1.000  C
  O15      1.0000 0.21150  0.84340  0.20560  Biso   1.000  O
  O16      1.0000 0.09540  0.00670  0.13580  Biso   1.000  O
  O17      1.0000 0.18560  0.89010  0.08520  Biso   1.000  O
  O18      1.0000 0.98370  0.93350  0.21160  Biso   1.000  O
  O19      1.0000 0.06490  0.86420  0.28980  Biso   1.000  O
  O20      1.0000 0.07860  0.87890  0.95110  Biso   1.000  O
  O21      1.0000 0.97400  0.83460  0.88320  Biso   1.000  O
  Zn3      1.0000 0.12536  0.97271  0.01724  Biso   1.000  Zn
  C13      1.0000 0.32080  0.10900  0.65870  Biso   1.000  C
  C14      1.0000 0.37600  0.04270  0.69790  Biso   1.000  C
  C15      1.0000 0.44670  0.08600  0.73770  Biso   1.000  C
  C16      1.0000 0.49040  0.11360  0.42660  Biso   1.000  C
  O22      1.0000 0.28850  0.15660  0.70560  Biso   1.000  O
  O23      1.0000 0.40460  0.99330  0.63580  Biso   1.000  O
  O24      1.0000 0.31440  0.10990  0.58520  Biso   1.000  O
  O25      1.0000 0.51630  0.06650  0.71160  Biso   1.000  O
  O26      1.0000 0.43510  0.13580  0.78980  Biso   1.000  O
  O27      1.0000 0.42140  0.12110  0.45110  Biso   1.000  O
  O28      1.0000 0.52600  0.16540  0.38320  Biso   1.000  O
  Zn4      1.0000 0.37464  0.02729  0.51724  Biso   1.000  Zn
  C17      1.0000 0.34130  0.82080  0.39100  Biso   1.000  C
  C18      1.0000 0.30210  0.87600  0.45730  Biso   1.000  C
  C19      1.0000 0.26230  0.94670  0.41400  Biso   1.000  C
  C20      1.0000 0.57340  0.99040  0.38640  Biso   1.000  C
  O29      1.0000 0.29440  0.78850  0.34340  Biso   1.000  O
  O30      1.0000 0.36420  0.90460  0.50670  Biso   1.000  O
  O31      1.0000 0.41480  0.81440  0.39010  Biso   1.000  O
  O32      1.0000 0.28840  0.01630  0.43350  Biso   1.000  O
  O33      1.0000 0.21020  0.93510  0.36420  Biso   1.000  O
  O34      1.0000 0.54890  0.92140  0.37890  Biso   1.000  O
  O35      1.0000 0.61680  0.02600  0.33460  Biso   1.000  O
  Zn5      1.0000 0.48276  0.87464  0.47271  Biso   1.000  Zn
  C21      1.0000 0.84130  0.67920  0.60900  Biso   1.000  C
  C22      1.0000 0.80210  0.62400  0.54270  Biso   1.000  C
  C23      1.0000 0.76230  0.55330  0.58600  Biso   1.000  C
  C24      1.0000 0.07340  0.50960  0.61360  Biso   1.000  C
  O36      1.0000 0.79440  0.71150  0.65660  Biso   1.000  O
  O37      1.0000 0.86420  0.59540  0.49330  Biso   1.000  O
  O38      1.0000 0.91480  0.68560  0.60990  Biso   1.000  O
  O39      1.0000 0.78840  0.48370  0.56650  Biso   1.000  O
  O40      1.0000 0.71020  0.56490  0.63580  Biso   1.000  O
  O41      1.0000 0.04890  0.57860  0.62110  Biso   1.000  O
  O42      1.0000 0.11680  0.47400  0.66540  Biso   1.000  O
  Zn6      1.0000 0.98276  0.62536  0.52729  Biso   1.000  Zn
  C25      1.0000 0.15870  0.17920  0.89100  Biso   1.000  C
  C26      1.0000 0.19790  0.12400  0.95730  Biso   1.000  C
  C27      1.0000 0.23770  0.05330  0.91400  Biso   1.000  C
  C28      1.0000 0.92660  0.00960  0.88640  Biso   1.000  C
  O43      1.0000 0.20560  0.21150  0.84340  Biso   1.000  O
  O44      1.0000 0.13580  0.09540  0.00670  Biso   1.000  O
  O45      1.0000 0.08520  0.18560  0.89010  Biso   1.000  O
  O46      1.0000 0.21160  0.98370  0.93350  Biso   1.000  O
  O47      1.0000 0.28980  0.06490  0.86420  Biso   1.000  O
  O48      1.0000 0.95110  0.07860  0.87890  Biso   1.000  O
  O49      1.0000 0.88320  0.97400  0.83460  Biso   1.000  O
  Zn7      1.0000 0.01724  0.12536  0.97271  Biso   1.000  Zn
  C29      1.0000 0.65870  0.32080  0.10900  Biso   1.000  C
  C30      1.0000 0.69790  0.37600  0.04270  Biso   1.000  C
  C31      1.0000 0.73770  0.44670  0.08600  Biso   1.000  C
  C32      1.0000 0.42660  0.49040  0.11360  Biso   1.000  C
  O50      1.0000 0.70560  0.28850  0.15660  Biso   1.000  O
  O51      1.0000 0.63580  0.40460  0.99330  Biso   1.000  O
  O52      1.0000 0.58520  0.31440  0.10990  Biso   1.000  O
  O53      1.0000 0.71160  0.51630  0.06650  Biso   1.000  O
  O54      1.0000 0.78980  0.43510  0.13580  Biso   1.000  O
  O55      1.0000 0.45110  0.42140  0.12110  Biso   1.000  O
  O56      1.0000 0.38320  0.52600  0.16540  Biso   1.000  O
  Zn8      1.0000 0.51724  0.37464  0.02729  Biso   1.000  Zn
  C33      1.0000 0.39100  0.34130  0.82080  Biso   1.000  C
  C34      1.0000 0.45730  0.30210  0.87600  Biso   1.000  C
  C35      1.0000 0.41400  0.26230  0.94670  Biso   1.000  C
  C36      1.0000 0.38640  0.57340  0.99040  Biso   1.000  C
  O57      1.0000 0.34340  0.29440  0.78850  Biso   1.000  O
  O58      1.0000 0.50670  0.36420  0.90460  Biso   1.000  O
  O59      1.0000 0.39010  0.41480  0.81440  Biso   1.000  O
  O60      1.0000 0.43350  0.28840  0.01630  Biso   1.000  O
  O61      1.0000 0.36420  0.21020  0.93510  Biso   1.000  O
  O62      1.0000 0.37890  0.54890  0.92140  Biso   1.000  O
  O63      1.0000 0.33460  0.61680  0.02600  Biso   1.000  O
  Zn9      1.0000 0.47271  0.48276  0.87464  Biso   1.000  Zn
  C37      1.0000 0.60900  0.84130  0.67920  Biso   1.000  C
  C38      1.0000 0.54270  0.80210  0.62400  Biso   1.000  C
  C39      1.0000 0.58600  0.76230  0.55330  Biso   1.000  C
  C40      1.0000 0.61360  0.07340  0.50960  Biso   1.000  C
  O64      1.0000 0.65660  0.79440  0.71150  Biso   1.000  O
  O65      1.0000 0.49330  0.86420  0.59540  Biso   1.000  O
  O66      1.0000 0.60990  0.91480  0.68560  Biso   1.000  O
  O67      1.0000 0.56650  0.78840  0.48370  Biso   1.000  O
  O68      1.0000 0.63580  0.71020  0.56490  Biso   1.000  O
  O69      1.0000 0.62110  0.04890  0.57860  Biso   1.000  O
  O70      1.0000 0.66540  0.11680  0.47400  Biso   1.000  O
  Zn10     1.0000 0.52729  0.98276  0.62536  Biso   1.000  Zn
  C41      1.0000 0.89100  0.15870  0.17920  Biso   1.000  C
  C42      1.0000 0.95730  0.19790  0.12400  Biso   1.000  C
  C43      1.0000 0.91400  0.23770  0.05330  Biso   1.000  C
  C44      1.0000 0.88640  0.92660  0.00960  Biso   1.000  C
  O71      1.0000 0.84340  0.20560  0.21150  Biso   1.000  O
  O72      1.0000 0.00670  0.13580  0.09540  Biso   1.000  O
  O73      1.0000 0.89010  0.08520  0.18560  Biso   1.000  O
  O74      1.0000 0.93350  0.21160  0.98370  Biso   1.000  O
  O75      1.0000 0.86420  0.28980  0.06490  Biso   1.000  O
  O76      1.0000 0.87890  0.95110  0.07860  Biso   1.000  O
  O77      1.0000 0.83460  0.88320  0.97400  Biso   1.000  O
  Zn11     1.0000 0.97271  0.01724  0.12536  Biso   1.000  Zn
  C45      1.0000 0.10900  0.65870  0.32080  Biso   1.000  C
  C46      1.0000 0.04270  0.69790  0.37600  Biso   1.000  C
  C47      1.0000 0.08600  0.73770  0.44670  Biso   1.000  C
  C48      1.0000 0.11360  0.42660  0.49040  Biso   1.000  C
  O78      1.0000 0.15660  0.70560  0.28850  Biso   1.000  O
  O79      1.0000 0.99330  0.63580  0.40460  Biso   1.000  O
  O80      1.0000 0.10990  0.58520  0.31440  Biso   1.000  O
  O81      1.0000 0.06650  0.71160  0.51630  Biso   1.000  O
  O82      1.0000 0.13580  0.78980  0.43510  Biso   1.000  O
  O83      1.0000 0.12110  0.45110  0.42140  Biso   1.000  O
  O84      1.0000 0.16540  0.38320  0.52600  Biso   1.000  O
  Zn12     1.0000 0.02729  0.51724  0.37464  Biso   1.000  Zn
  C49      1.0000 0.04240  0.45760  0.54240  Biso   1.000  C
  O85      1.0000 0.99320  0.50680  0.49320  Biso   1.000  O
  Zn13     1.0000 0.87119  0.62881  0.37119  Biso   1.000  Zn
  Zn14     1.0000 0.14750  0.35250  0.64750  Biso   1.000  Zn
  C50      1.0000 0.45760  0.54240  0.04240  Biso   1.000  C
  O86      1.0000 0.50680  0.49320  0.99320  Biso   1.000  O
  Zn15     1.0000 0.62881  0.37119  0.87119  Biso   1.000  Zn
  Zn16     1.0000 0.35250  0.64750  0.14750  Biso   1.000  Zn
  C51      1.0000 0.95760  0.95760  0.95760  Biso   1.000  C
  O87      1.0000 0.00680  0.00680  0.00680  Biso   1.000  O
  Zn17     1.0000 0.12881  0.12881  0.12881  Biso   1.000  Zn
  Zn18     1.0000 0.85250  0.85250  0.85250  Biso   1.000  Zn
  C52      1.0000 0.54240  0.04240  0.45760  Biso   1.000  C
  O88      1.0000 0.49320  0.99320  0.50680  Biso   1.000  O
  Zn19     1.0000 0.37119  0.87119  0.62881  Biso   1.000  Zn
  Zn20     1.0000 0.64750  0.14750  0.35250  Biso   1.000  Zn
  Zn21     1.0000 0.82182  0.32182  0.17818  Biso   1.000  Zn
  Zn22     1.0000 0.67818  0.67818  0.67818  Biso   1.000  Zn
  Zn23     1.0000 0.17818  0.82182  0.32182  Biso   1.000  Zn
  Zn24     1.0000 0.32182  0.17818  0.82182  Biso   1.000  Zn
