data_KETHEY01_clean
_audit_creation_date              2015-10-16
_audit_creation_method            'Materials Studio'
_symmetry_space_group_name_H-M    'P1'
_symmetry_Int_Tables_number       1
_symmetry_cell_setting            triclinic
loop_
_symmetry_equiv_pos_as_xyz
  x,y,z
_cell_length_a                    9.2420
_cell_length_b                    9.7270
_cell_length_c                    18.2010
_cell_angle_alpha                 90.0000
_cell_angle_beta                  90.0000
_cell_angle_gamma                 105.1100
loop_
_atom_site_label
_atom_site_type_symbol
_atom_site_fract_x
_atom_site_fract_y
_atom_site_fract_z
_atom_site_U_iso_or_equiv
_atom_site_adp_type
_atom_site_occupancy
Cd1    Cd    0.36637   0.06172   0.43373   0.01267  Uiso   1.00
Cd2    Cd    0.63363   0.43828   0.93373   0.01267  Uiso   1.00
H1     H     0.89610   0.78300   0.72570   0.01267  Uiso   1.00
H2     H     0.75100   0.47760   0.36730   0.01267  Uiso   1.00
H3     H     0.97610   0.60500   0.95090   0.01267  Uiso   1.00
H4     H     0.83480   0.72150   0.39840   0.01267  Uiso   1.00
H5     H     0.47770   0.20440   0.68960   0.01267  Uiso   1.00
H6     H     0.71650   0.60660   0.78180   0.01267  Uiso   1.00
H7     H     0.16520   0.77850   0.89840   0.01267  Uiso   1.00
H8     H     0.28350   0.89340   0.28180   0.01267  Uiso   1.00
H9     H     0.24900   0.02240   0.86730   0.01267  Uiso   1.00
H10    H     0.86920   0.64060   0.16660   0.01267  Uiso   1.00
H11    H     0.02390   0.89500   0.45090   0.01267  Uiso   1.00
H12    H     0.10390   0.71700   0.22570   0.01267  Uiso   1.00
H13    H     0.52230   0.29560   0.18960   0.01267  Uiso   1.00
H14    H     0.13080   0.85940   0.66660   0.01267  Uiso   1.00
C1     C     0.19300   0.85660   0.30599   0.01267  Uiso   1.00
C2     C     0.92580   0.75340   0.37402   0.01267  Uiso   1.00
C3     C     0.82810   0.58000   0.27287   0.01267  Uiso   1.00
C4     C     0.17190   0.92000   0.77287   0.01267  Uiso   1.00
C5     C     0.80590   0.57410   0.19674   0.01267  Uiso   1.00
C6     C     0.08490   0.75100   0.27153   0.01267  Uiso   1.00
C7     C     0.91510   0.74900   0.77153   0.01267  Uiso   1.00
C8     C     0.68950   0.46920   0.16590   0.01267  Uiso   1.00
C9     C     0.07420   0.74660   0.87402   0.01267  Uiso   1.00
C10    C     0.31050   0.03080   0.66590   0.01267  Uiso   1.00
C11    C     0.37580   0.13380   0.78563   0.01267  Uiso   1.00
C12    C     0.73680   0.47510   0.31671   0.01267  Uiso   1.00
C13    C     0.66320   0.46820   0.08475   0.01267  Uiso   1.00
C14    C     0.59960   0.36580   0.21034   0.01267  Uiso   1.00
C15    C     0.33680   0.03180   0.58475   0.01267  Uiso   1.00
C16    C     0.04020   0.85810   0.40536   0.01267  Uiso   1.00
C17    C     0.26320   0.02490   0.81671   0.01267  Uiso   1.00
C18    C     0.80700   0.64340   0.80599   0.01267  Uiso   1.00
C19    C     0.40040   0.13420   0.71034   0.01267  Uiso   1.00
C20    C     0.05300   0.80410   0.80603   0.01267  Uiso   1.00
C21    C     0.52880   0.25130   0.33366   0.01267  Uiso   1.00
C22    C     0.94700   0.69590   0.30603   0.01267  Uiso   1.00
C23    C     0.95980   0.64190   0.90536   0.01267  Uiso   1.00
C24    C     0.19410   0.92590   0.69674   0.01267  Uiso   1.00
C25    C     0.47120   0.24870   0.83366   0.01267  Uiso   1.00
C26    C     0.62420   0.36620   0.28563   0.01267  Uiso   1.00
N1     N     0.17390   0.90840   0.37245   0.01267  Uiso   1.00
N2     N     0.82610   0.59160   0.87245   0.01267  Uiso   1.00
O1     O     0.57730   0.33890   0.80562   0.01267  Uiso   1.00
O2     O     0.23120   0.97510   0.54294   0.01267  Uiso   1.00
O3     O     0.76880   0.52490   0.04294   0.01267  Uiso   1.00
O4     O     0.43820   0.24900   0.90081   0.01267  Uiso   1.00
O5     O     0.46850   0.09210   0.56103   0.01267  Uiso   1.00
O6     O     0.53150   0.40790   0.06103   0.01267  Uiso   1.00
O7     O     0.56180   0.25100   0.40081   0.01267  Uiso   1.00
O8     O     0.42270   0.16110   0.30562   0.01267  Uiso   1.00
Cd3    Cd    0.63363   0.93828   0.56627   0.01267  Uiso   1.00
Cd4    Cd    0.36637   0.56172   0.06627   0.01267  Uiso   1.00
H15    H     0.28350   0.39340   0.21820   0.01267  Uiso   1.00
H16    H     0.71650   0.10660   0.71820   0.01267  Uiso   1.00
H17    H     0.52230   0.79560   0.31040   0.01267  Uiso   1.00
H18    H     0.02390   0.39500   0.04910   0.01267  Uiso   1.00
H19    H     0.16520   0.27850   0.60160   0.01267  Uiso   1.00
H20    H     0.86920   0.14060   0.33340   0.01267  Uiso   1.00
H21    H     0.89610   0.28300   0.77430   0.01267  Uiso   1.00
H22    H     0.97610   0.10500   0.54910   0.01267  Uiso   1.00
H23    H     0.47770   0.70440   0.81040   0.01267  Uiso   1.00
H24    H     0.13080   0.35940   0.83340   0.01267  Uiso   1.00
H25    H     0.10390   0.21700   0.27430   0.01267  Uiso   1.00
H26    H     0.24900   0.52240   0.63270   0.01267  Uiso   1.00
H27    H     0.83480   0.22150   0.10160   0.01267  Uiso   1.00
H28    H     0.75100   0.97760   0.13270   0.01267  Uiso   1.00
C27    C     0.47120   0.74870   0.66634   0.01267  Uiso   1.00
C28    C     0.33680   0.53180   0.91525   0.01267  Uiso   1.00
C29    C     0.95980   0.14190   0.59464   0.01267  Uiso   1.00
C30    C     0.73680   0.97510   0.18329   0.01267  Uiso   1.00
C31    C     0.05300   0.30410   0.69397   0.01267  Uiso   1.00
C32    C     0.66320   0.96820   0.41525   0.01267  Uiso   1.00
C33    C     0.08490   0.25100   0.22847   0.01267  Uiso   1.00
C34    C     0.94700   0.19590   0.19397   0.01267  Uiso   1.00
C35    C     0.52880   0.75130   0.16634   0.01267  Uiso   1.00
C36    C     0.31050   0.53080   0.83410   0.01267  Uiso   1.00
C37    C     0.59960   0.86580   0.28966   0.01267  Uiso   1.00
C38    C     0.07420   0.24660   0.62598   0.01267  Uiso   1.00
C39    C     0.40040   0.63420   0.78966   0.01267  Uiso   1.00
C40    C     0.80590   0.07410   0.30326   0.01267  Uiso   1.00
C41    C     0.62420   0.86620   0.21437   0.01267  Uiso   1.00
C42    C     0.37580   0.63380   0.71437   0.01267  Uiso   1.00
C43    C     0.82810   0.08000   0.22713   0.01267  Uiso   1.00
C44    C     0.68950   0.96920   0.33410   0.01267  Uiso   1.00
C45    C     0.04020   0.35810   0.09464   0.01267  Uiso   1.00
C46    C     0.19300   0.35660   0.19401   0.01267  Uiso   1.00
C47    C     0.26320   0.52490   0.68329   0.01267  Uiso   1.00
C48    C     0.19410   0.42590   0.80326   0.01267  Uiso   1.00
C49    C     0.17190   0.42000   0.72713   0.01267  Uiso   1.00
C50    C     0.91510   0.24900   0.72847   0.01267  Uiso   1.00
C51    C     0.92580   0.25340   0.12598   0.01267  Uiso   1.00
C52    C     0.80700   0.14340   0.69401   0.01267  Uiso   1.00
N3     N     0.17390   0.40840   0.12755   0.01267  Uiso   1.00
N4     N     0.82610   0.09160   0.62755   0.01267  Uiso   1.00
O9     O     0.42270   0.66110   0.19438   0.01267  Uiso   1.00
O10    O     0.23120   0.47510   0.95706   0.01267  Uiso   1.00
O11    O     0.46850   0.59210   0.93897   0.01267  Uiso   1.00
O12    O     0.56180   0.75100   0.09919   0.01267  Uiso   1.00
O13    O     0.76880   0.02490   0.45706   0.01267  Uiso   1.00
O14    O     0.53150   0.90790   0.43897   0.01267  Uiso   1.00
O15    O     0.43820   0.74900   0.59919   0.01267  Uiso   1.00
O16    O     0.57730   0.83890   0.69438   0.01267  Uiso   1.00
