data_KETHEY_clean
_audit_creation_date              2014-07-02
_audit_creation_method            'Materials Studio'
_symmetry_space_group_name_H-M    'P1'
_symmetry_Int_Tables_number       1
_symmetry_cell_setting            triclinic
loop_
_symmetry_equiv_pos_as_xyz
  x,y,z
_cell_length_a                    9.2380
_cell_length_b                    9.7430
_cell_length_c                    18.2250
_cell_angle_alpha                 90.0000
_cell_angle_beta                  90.0000
_cell_angle_gamma                 104.9400
loop_
_atom_site_label
_atom_site_type_symbol
_atom_site_fract_x
_atom_site_fract_y
_atom_site_fract_z
_atom_site_U_iso_or_equiv
_atom_site_adp_type
_atom_site_occupancy
Cd1    Cd    0.13315   0.43812   0.93392   0.01267  Uiso   1.00
Cd2    Cd    0.86685   0.06188   0.43392   0.01267  Uiso   1.00
Cd3    Cd    0.86685   0.56188   0.06608   0.01267  Uiso   1.00
Cd4    Cd    0.13315   0.93812   0.56608   0.01267  Uiso   1.00
H1     H     0.63280   0.85950   0.66670   0.01267  Uiso   1.00
H2     H     0.97750   0.20220   0.68980   0.01267  Uiso   1.00
H3     H     0.74900   0.02260   0.86710   0.01267  Uiso   1.00
H4     H     0.21630   0.60700   0.78280   0.01267  Uiso   1.00
H5     H     0.39590   0.78150   0.72590   0.01267  Uiso   1.00
H6     H     0.66570   0.77650   0.89750   0.01267  Uiso   1.00
H7     H     0.47550   0.60600   0.95110   0.01267  Uiso   1.00
H8     H     0.36720   0.64050   0.16670   0.01267  Uiso   1.00
H9     H     0.02250   0.29780   0.18980   0.01267  Uiso   1.00
H10    H     0.25100   0.47740   0.36710   0.01267  Uiso   1.00
H11    H     0.78370   0.89300   0.28280   0.01267  Uiso   1.00
H12    H     0.60410   0.71850   0.22590   0.01267  Uiso   1.00
H13    H     0.33430   0.72350   0.39750   0.01267  Uiso   1.00
H14    H     0.52450   0.89400   0.45110   0.01267  Uiso   1.00
H15    H     0.36720   0.14050   0.33330   0.01267  Uiso   1.00
H16    H     0.02250   0.79780   0.31020   0.01267  Uiso   1.00
H17    H     0.25100   0.97740   0.13290   0.01267  Uiso   1.00
H18    H     0.78370   0.39300   0.21720   0.01267  Uiso   1.00
H19    H     0.60410   0.21850   0.27410   0.01267  Uiso   1.00
H20    H     0.33430   0.22350   0.10250   0.01267  Uiso   1.00
H21    H     0.52450   0.39400   0.04890   0.01267  Uiso   1.00
H22    H     0.63280   0.35950   0.83330   0.01267  Uiso   1.00
H23    H     0.97750   0.70220   0.81020   0.01267  Uiso   1.00
H24    H     0.74900   0.52260   0.63290   0.01267  Uiso   1.00
H25    H     0.21630   0.10700   0.71720   0.01267  Uiso   1.00
H26    H     0.39590   0.28150   0.77410   0.01267  Uiso   1.00
H27    H     0.66570   0.27650   0.60250   0.01267  Uiso   1.00
H28    H     0.47550   0.10600   0.54890   0.01267  Uiso   1.00
C1     C     0.67200   0.91950   0.77270   0.01267  Uiso   1.00
C2     C     0.69530   0.92600   0.69700   0.01267  Uiso   1.00
C3     C     0.81030   0.03030   0.66660   0.01267  Uiso   1.00
C4     C     0.90000   0.13270   0.71050   0.01267  Uiso   1.00
C5     C     0.87540   0.13270   0.78560   0.01267  Uiso   1.00
C6     C     0.76340   0.02480   0.81660   0.01267  Uiso   1.00
C7     C     0.30710   0.64320   0.80660   0.01267  Uiso   1.00
C8     C     0.41500   0.74810   0.77180   0.01267  Uiso   1.00
C9     C     0.55290   0.80340   0.80630   0.01267  Uiso   1.00
C10    C     0.57420   0.74570   0.87350   0.01267  Uiso   1.00
C11    C     0.45940   0.64180   0.90530   0.01267  Uiso   1.00
C12    C     0.83720   0.03150   0.58440   0.01267  Uiso   1.00
C13    C     0.97190   0.24870   0.83420   0.01267  Uiso   1.00
C14    C     0.32800   0.58050   0.27270   0.01267  Uiso   1.00
C15    C     0.30470   0.57400   0.19700   0.01267  Uiso   1.00
C16    C     0.18970   0.46970   0.16660   0.01267  Uiso   1.00
C17    C     0.10000   0.36730   0.21050   0.01267  Uiso   1.00
C18    C     0.12460   0.36730   0.28560   0.01267  Uiso   1.00
C19    C     0.23660   0.47520   0.31660   0.01267  Uiso   1.00
C20    C     0.69290   0.85680   0.30660   0.01267  Uiso   1.00
C21    C     0.58500   0.75190   0.27180   0.01267  Uiso   1.00
C22    C     0.44710   0.69660   0.30630   0.01267  Uiso   1.00
C23    C     0.42580   0.75430   0.37350   0.01267  Uiso   1.00
C24    C     0.54060   0.85820   0.40530   0.01267  Uiso   1.00
C25    C     0.16280   0.46850   0.08440   0.01267  Uiso   1.00
C26    C     0.02810   0.25130   0.33420   0.01267  Uiso   1.00
C27    C     0.32800   0.08050   0.22730   0.01267  Uiso   1.00
C28    C     0.30470   0.07400   0.30300   0.01267  Uiso   1.00
C29    C     0.18970   0.96970   0.33340   0.01267  Uiso   1.00
C30    C     0.10000   0.86730   0.28950   0.01267  Uiso   1.00
C31    C     0.12460   0.86730   0.21440   0.01267  Uiso   1.00
C32    C     0.23660   0.97520   0.18340   0.01267  Uiso   1.00
C33    C     0.69290   0.35680   0.19340   0.01267  Uiso   1.00
C34    C     0.58500   0.25190   0.22820   0.01267  Uiso   1.00
C35    C     0.44710   0.19660   0.19370   0.01267  Uiso   1.00
C36    C     0.42580   0.25430   0.12650   0.01267  Uiso   1.00
C37    C     0.54060   0.35820   0.09470   0.01267  Uiso   1.00
C38    C     0.16280   0.96850   0.41560   0.01267  Uiso   1.00
C39    C     0.02810   0.75130   0.16580   0.01267  Uiso   1.00
C40    C     0.67200   0.41950   0.72730   0.01267  Uiso   1.00
C41    C     0.69530   0.42600   0.80300   0.01267  Uiso   1.00
C42    C     0.81030   0.53030   0.83340   0.01267  Uiso   1.00
C43    C     0.90000   0.63270   0.78950   0.01267  Uiso   1.00
C44    C     0.87540   0.63270   0.71440   0.01267  Uiso   1.00
C45    C     0.76340   0.52480   0.68340   0.01267  Uiso   1.00
C46    C     0.30710   0.14320   0.69340   0.01267  Uiso   1.00
C47    C     0.41500   0.24810   0.72820   0.01267  Uiso   1.00
C48    C     0.55290   0.30340   0.69370   0.01267  Uiso   1.00
C49    C     0.57420   0.24570   0.62650   0.01267  Uiso   1.00
C50    C     0.45940   0.14180   0.59470   0.01267  Uiso   1.00
C51    C     0.83720   0.53150   0.91560   0.01267  Uiso   1.00
C52    C     0.97190   0.74870   0.66580   0.01267  Uiso   1.00
N1     N     0.32660   0.59120   0.87270   0.01267  Uiso   1.00
N2     N     0.67340   0.90880   0.37270   0.01267  Uiso   1.00
N3     N     0.67340   0.40880   0.12730   0.01267  Uiso   1.00
N4     N     0.32660   0.09120   0.62730   0.01267  Uiso   1.00
O1     O     0.96810   0.09150   0.56146   0.01267  Uiso   1.00
O2     O     0.73160   0.97600   0.54300   0.01267  Uiso   1.00
O3     O     0.07730   0.33840   0.80580   0.01267  Uiso   1.00
O4     O     0.93820   0.24890   0.90070   0.01267  Uiso   1.00
O5     O     0.03190   0.40850   0.06146   0.01267  Uiso   1.00
O6     O     0.26840   0.52400   0.04300   0.01267  Uiso   1.00
O7     O     0.92270   0.16160   0.30580   0.01267  Uiso   1.00
O8     O     0.06180   0.25110   0.40070   0.01267  Uiso   1.00
O9     O     0.03190   0.90850   0.43854   0.01267  Uiso   1.00
O10    O     0.26840   0.02400   0.45700   0.01267  Uiso   1.00
O11    O     0.92270   0.66160   0.19420   0.01267  Uiso   1.00
O12    O     0.06180   0.75110   0.09930   0.01267  Uiso   1.00
O13    O     0.96810   0.59150   0.93854   0.01267  Uiso   1.00
O14    O     0.73160   0.47600   0.95700   0.01267  Uiso   1.00
O15    O     0.07730   0.83840   0.69420   0.01267  Uiso   1.00
O16    O     0.93820   0.74890   0.59930   0.01267  Uiso   1.00
