data_image0
_cell_length_a       9.2211
_cell_length_b       18.1848
_cell_length_c       9.7227
_cell_angle_alpha    90
_cell_angle_beta     104.994
_cell_angle_gamma    90

_symmetry_space_group_name_H-M    "P 1"
_symmetry_int_tables_number       1

loop_
  _symmetry_equiv_pos_as_xyz
  'x, y, z'

loop_
  _atom_site_label
  _atom_site_occupancy
  _atom_site_fract_x
  _atom_site_fract_y
  _atom_site_fract_z
  _atom_site_thermal_displace_type
  _atom_site_B_iso_or_equiv
  _atom_site_type_symbol
  Cd1      1.0000 0.86680  0.93390  0.06168  Biso   1.000  Cd
  C1       1.0000 0.69370  0.80612  0.85650  Biso   1.000  C
  H1       1.0000 0.78460  0.78210  0.89260  Biso   1.000  H
  C2       1.0000 0.58480  0.77163  0.75160  Biso   1.000  C
  H2       1.0000 0.60330  0.72570  0.71780  Biso   1.000  H
  C3       1.0000 0.44670  0.80628  0.69670  Biso   1.000  C
  C4       1.0000 0.42600  0.87400  0.75420  Biso   1.000  C
  H3       1.0000 0.33480  0.89840  0.72260  Biso   1.000  H
  C5       1.0000 0.53980  0.90547  0.85820  Biso   1.000  C
  H4       1.0000 0.52340  0.95100  0.89490  Biso   1.000  H
  C6       1.0000 0.32820  0.77302  0.58050  Biso   1.000  C
  C7       1.0000 0.30530  0.69704  0.57490  Biso   1.000  C
  H5       1.0000 0.36780  0.66690  0.64210  Biso   1.000  H
  C8       1.0000 0.19020  0.66611  0.46990  Biso   1.000  C
  C9       1.0000 0.16280  0.58482  0.46870  Biso   1.000  C
  C10      1.0000 0.10000  0.71073  0.36610  Biso   1.000  C
  H6       1.0000 0.02280  0.68990  0.29580  Biso   1.000  H
  C11      1.0000 0.02820  0.83375  0.25140  Biso   1.000  C
  C12      1.0000 0.12410  0.78597  0.36640  Biso   1.000  C
  C13      1.0000 0.23660  0.81685  0.47530  Biso   1.000  C
  H7       1.0000 0.25080  0.86750  0.47800  Biso   1.000  H
  N1       1.0000 0.67430  0.87249  0.90870  Biso   1.000  N
  O1       1.0000 0.26880  0.54281  0.52480  Biso   1.000  O
  O2       1.0000 0.03150  0.56130  0.40840  Biso   1.000  O
  O3       1.0000 0.06190  0.90112  0.25120  Biso   1.000  O
  O4       1.0000 0.92210  0.80591  0.16180  Biso   1.000  O
  Cd2      1.0000 0.13320  0.43390  0.43832  Biso   1.000  Cd
  C14      1.0000 0.30630  0.30612  0.64350  Biso   1.000  C
  H8       1.0000 0.21540  0.28210  0.60740  Biso   1.000  H
  C15      1.0000 0.41520  0.27163  0.74840  Biso   1.000  C
  H9       1.0000 0.39670  0.22570  0.78220  Biso   1.000  H
  C16      1.0000 0.55330  0.30628  0.80330  Biso   1.000  C
  C17      1.0000 0.57400  0.37400  0.74580  Biso   1.000  C
  H10      1.0000 0.66520  0.39840  0.77740  Biso   1.000  H
  C18      1.0000 0.46020  0.40547  0.64180  Biso   1.000  C
  H11      1.0000 0.47660  0.45100  0.60510  Biso   1.000  H
  C19      1.0000 0.67180  0.27302  0.91950  Biso   1.000  C
  C20      1.0000 0.69470  0.19704  0.92510  Biso   1.000  C
  H12      1.0000 0.63220  0.16690  0.85790  Biso   1.000  H
  C21      1.0000 0.80980  0.16611  0.03010  Biso   1.000  C
  C22      1.0000 0.83720  0.08482  0.03130  Biso   1.000  C
  C23      1.0000 0.90000  0.21073  0.13390  Biso   1.000  C
  H13      1.0000 0.97720  0.18990  0.20420  Biso   1.000  H
  C24      1.0000 0.97180  0.33375  0.24860  Biso   1.000  C
  C25      1.0000 0.87590  0.28597  0.13360  Biso   1.000  C
  C26      1.0000 0.76340  0.31685  0.02470  Biso   1.000  C
  H14      1.0000 0.74920  0.36750  0.02200  Biso   1.000  H
  N2       1.0000 0.32570  0.37249  0.59130  Biso   1.000  N
  O5       1.0000 0.73120  0.04281  0.97520  Biso   1.000  O
  O6       1.0000 0.96850  0.06130  0.09160  Biso   1.000  O
  O7       1.0000 0.93810  0.40112  0.24880  Biso   1.000  O
  O8       1.0000 0.07790  0.30591  0.33820  Biso   1.000  O
  Cd3      1.0000 0.13320  0.06610  0.93832  Biso   1.000  Cd
  C27      1.0000 0.30630  0.19388  0.14350  Biso   1.000  C
  H15      1.0000 0.21540  0.21790  0.10740  Biso   1.000  H
  C28      1.0000 0.41520  0.22837  0.24840  Biso   1.000  C
  H16      1.0000 0.39670  0.27430  0.28220  Biso   1.000  H
  C29      1.0000 0.55330  0.19372  0.30330  Biso   1.000  C
  C30      1.0000 0.57400  0.12600  0.24580  Biso   1.000  C
  H17      1.0000 0.66520  0.10160  0.27740  Biso   1.000  H
  C31      1.0000 0.46020  0.09453  0.14180  Biso   1.000  C
  H18      1.0000 0.47660  0.04900  0.10510  Biso   1.000  H
  C32      1.0000 0.67180  0.22698  0.41950  Biso   1.000  C
  C33      1.0000 0.69470  0.30296  0.42510  Biso   1.000  C
  H19      1.0000 0.63220  0.33310  0.35790  Biso   1.000  H
  C34      1.0000 0.80980  0.33389  0.53010  Biso   1.000  C
  C35      1.0000 0.83720  0.41518  0.53130  Biso   1.000  C
  C36      1.0000 0.90000  0.28927  0.63390  Biso   1.000  C
  H20      1.0000 0.97720  0.31010  0.70420  Biso   1.000  H
  C37      1.0000 0.97180  0.16625  0.74860  Biso   1.000  C
  C38      1.0000 0.87590  0.21403  0.63360  Biso   1.000  C
  C39      1.0000 0.76340  0.18315  0.52470  Biso   1.000  C
  H21      1.0000 0.74920  0.13250  0.52200  Biso   1.000  H
  N3       1.0000 0.32570  0.12751  0.09130  Biso   1.000  N
  O9       1.0000 0.73120  0.45719  0.47520  Biso   1.000  O
  O10      1.0000 0.96850  0.43870  0.59160  Biso   1.000  O
  O11      1.0000 0.93810  0.09888  0.74880  Biso   1.000  O
  O12      1.0000 0.07790  0.19409  0.83820  Biso   1.000  O
  Cd4      1.0000 0.86680  0.56610  0.56168  Biso   1.000  Cd
  C40      1.0000 0.69370  0.69388  0.35650  Biso   1.000  C
  H22      1.0000 0.78460  0.71790  0.39260  Biso   1.000  H
  C41      1.0000 0.58480  0.72837  0.25160  Biso   1.000  C
  H23      1.0000 0.60330  0.77430  0.21780  Biso   1.000  H
  C42      1.0000 0.44670  0.69372  0.19670  Biso   1.000  C
  C43      1.0000 0.42600  0.62600  0.25420  Biso   1.000  C
  H24      1.0000 0.33480  0.60160  0.22260  Biso   1.000  H
  C44      1.0000 0.53980  0.59453  0.35820  Biso   1.000  C
  H25      1.0000 0.52340  0.54900  0.39490  Biso   1.000  H
  C45      1.0000 0.32820  0.72698  0.08050  Biso   1.000  C
  C46      1.0000 0.30530  0.80296  0.07490  Biso   1.000  C
  H26      1.0000 0.36780  0.83310  0.14210  Biso   1.000  H
  C47      1.0000 0.19020  0.83389  0.96990  Biso   1.000  C
  C48      1.0000 0.16280  0.91518  0.96870  Biso   1.000  C
  C49      1.0000 0.10000  0.78927  0.86610  Biso   1.000  C
  H27      1.0000 0.02280  0.81010  0.79580  Biso   1.000  H
  C50      1.0000 0.02820  0.66625  0.75140  Biso   1.000  C
  C51      1.0000 0.12410  0.71403  0.86640  Biso   1.000  C
  C52      1.0000 0.23660  0.68315  0.97530  Biso   1.000  C
  H28      1.0000 0.25080  0.63250  0.97800  Biso   1.000  H
  N4       1.0000 0.67430  0.62751  0.40870  Biso   1.000  N
  O13      1.0000 0.26880  0.95719  0.02480  Biso   1.000  O
  O14      1.0000 0.03150  0.93870  0.90840  Biso   1.000  O
  O15      1.0000 0.06190  0.59888  0.75120  Biso   1.000  O
  O16      1.0000 0.92210  0.69409  0.66180  Biso   1.000  O
