data_KETSEI_clean
_audit_creation_date              2014-07-02
_audit_creation_method            'Materials Studio'
_symmetry_space_group_name_H-M    'P1'
_symmetry_Int_Tables_number       1
_symmetry_cell_setting            triclinic
loop_
_symmetry_equiv_pos_as_xyz
  x,y,z
_cell_length_a                    7.9180
_cell_length_b                    8.4419
_cell_length_c                    19.6170
_cell_angle_alpha                 87.8165
_cell_angle_beta                  85.3400
_cell_angle_gamma                 62.0325
loop_
_atom_site_label
_atom_site_type_symbol
_atom_site_fract_x
_atom_site_fract_y
_atom_site_fract_z
_atom_site_U_iso_or_equiv
_atom_site_adp_type
_atom_site_occupancy
Dy1    Dy    0.79437   0.92550   0.48756   0.01267  Uiso   1.00
Dy2    Dy    0.28013   0.92550   0.01244   0.01267  Uiso   1.00
Dy3    Dy    0.20563   0.07450   0.51244   0.01267  Uiso   1.00
Dy4    Dy    0.71987   0.07450   0.98756   0.01267  Uiso   1.00
H1     H     0.24680   0.53260   0.32190   0.01267  Uiso   1.00
H2     H     0.05690   0.55000   0.29600   0.01267  Uiso   1.00
H3     H     0.18430   0.80680   0.26500   0.01267  Uiso   1.00
H4     H     0.67600   0.53000   0.46210   0.01267  Uiso   1.00
H5     H     0.84990   0.44160   0.40760   0.01267  Uiso   1.00
H6     H     0.63990   0.45480   0.32650   0.01267  Uiso   1.00
H7     H     0.46620   0.54660   0.38110   0.01267  Uiso   1.00
H8     H     0.50750   0.75700   0.30280   0.01267  Uiso   1.00
H9     H     0.69860   0.71020   0.33660   0.01267  Uiso   1.00
H10    H     0.22060   0.53260   0.17810   0.01267  Uiso   1.00
H11    H     0.39310   0.55000   0.20400   0.01267  Uiso   1.00
H12    H     0.00890   0.80680   0.23500   0.01267  Uiso   1.00
H13    H     0.79400   0.53000   0.03790   0.01267  Uiso   1.00
H14    H     0.70850   0.44160   0.09240   0.01267  Uiso   1.00
H15    H     0.90530   0.45480   0.17350   0.01267  Uiso   1.00
H16    H     0.98720   0.54660   0.11890   0.01267  Uiso   1.00
H17    H     0.73550   0.75700   0.19720   0.01267  Uiso   1.00
H18    H     0.59120   0.71020   0.16340   0.01267  Uiso   1.00
H19    H     0.75320   0.46740   0.67810   0.01267  Uiso   1.00
H20    H     0.94310   0.45000   0.70400   0.01267  Uiso   1.00
H21    H     0.81570   0.19320   0.73500   0.01267  Uiso   1.00
H22    H     0.32400   0.47000   0.53790   0.01267  Uiso   1.00
H23    H     0.15010   0.55840   0.59240   0.01267  Uiso   1.00
H24    H     0.36010   0.54520   0.67350   0.01267  Uiso   1.00
H25    H     0.53380   0.45340   0.61890   0.01267  Uiso   1.00
H26    H     0.49250   0.24300   0.69720   0.01267  Uiso   1.00
H27    H     0.30140   0.28980   0.66340   0.01267  Uiso   1.00
H28    H     0.77940   0.46740   0.82190   0.01267  Uiso   1.00
H29    H     0.60690   0.45000   0.79600   0.01267  Uiso   1.00
H30    H     0.99110   0.19320   0.76500   0.01267  Uiso   1.00
H31    H     0.20600   0.47000   0.96210   0.01267  Uiso   1.00
H32    H     0.29150   0.55840   0.90760   0.01267  Uiso   1.00
H33    H     0.09470   0.54520   0.82650   0.01267  Uiso   1.00
H34    H     0.01280   0.45340   0.88110   0.01267  Uiso   1.00
H35    H     0.26450   0.24300   0.80280   0.01267  Uiso   1.00
H36    H     0.40880   0.28980   0.83660   0.01267  Uiso   1.00
C1     C     0.00820   0.72520   0.37250   0.01267  Uiso   1.00
C2     C     0.11870   0.61780   0.31010   0.01267  Uiso   1.00
C3     C     0.75290   0.26900   0.44440   0.01267  Uiso   1.00
C4     C     0.72590   0.45080   0.42270   0.01267  Uiso   1.00
C5     C     0.59160   0.53400   0.36590   0.01267  Uiso   1.00
C6     C     0.57220   0.71860   0.34490   0.01267  Uiso   1.00
C7     C     0.46050   0.85340   0.40010   0.01267  Uiso   1.00
C8     C     0.26660   0.72520   0.12750   0.01267  Uiso   1.00
C9     C     0.26350   0.61780   0.18990   0.01267  Uiso   1.00
C10    C     0.97810   0.26900   0.05560   0.01267  Uiso   1.00
C11    C     0.82330   0.45080   0.07730   0.01267  Uiso   1.00
C12    C     0.87440   0.53400   0.13410   0.01267  Uiso   1.00
C13    C     0.70920   0.71860   0.15510   0.01267  Uiso   1.00
C14    C     0.68610   0.85340   0.09990   0.01267  Uiso   1.00
C15    C     0.99180   0.27480   0.62750   0.01267  Uiso   1.00
C16    C     0.88130   0.38220   0.68990   0.01267  Uiso   1.00
C17    C     0.24710   0.73100   0.55560   0.01267  Uiso   1.00
C18    C     0.27410   0.54920   0.57730   0.01267  Uiso   1.00
C19    C     0.40840   0.46600   0.63410   0.01267  Uiso   1.00
C20    C     0.42780   0.28140   0.65510   0.01267  Uiso   1.00
C21    C     0.53950   0.14660   0.59990   0.01267  Uiso   1.00
C22    C     0.73340   0.27480   0.87250   0.01267  Uiso   1.00
C23    C     0.73650   0.38220   0.81010   0.01267  Uiso   1.00
C24    C     0.02190   0.73100   0.94440   0.01267  Uiso   1.00
C25    C     0.17670   0.54920   0.92270   0.01267  Uiso   1.00
C26    C     0.12560   0.46600   0.86590   0.01267  Uiso   1.00
C27    C     0.29080   0.28140   0.84490   0.01267  Uiso   1.00
C28    C     0.31390   0.14660   0.90010   0.01267  Uiso   1.00
C29    C     0.13460   0.73080   0.25000   0.01267  Uiso   1.00
C30    C     0.86540   0.26920   0.75000   0.01267  Uiso   1.00
O1     O     0.90920   0.89260   0.36961   0.01267  Uiso   1.00
O2     O     0.01100   0.64480   0.42902   0.01267  Uiso   1.00
O3     O     0.90960   0.15560   0.46698   0.01267  Uiso   1.00
O4     O     0.61940   0.22620   0.44192   0.01267  Uiso   1.00
O5     O     0.28490   0.90700   0.40909   0.01267  Uiso   1.00
O6     O     0.54130   0.91020   0.43924   0.01267  Uiso   1.00
O7     O     0.19820   0.89260   0.13039   0.01267  Uiso   1.00
O8     O     0.34420   0.64480   0.07098   0.01267  Uiso   1.00
O9     O     0.93480   0.15560   0.03302   0.01267  Uiso   1.00
O10    O     0.15440   0.22620   0.05808   0.01267  Uiso   1.00
O11    O     0.80810   0.90700   0.09091   0.01267  Uiso   1.00
O12    O     0.54850   0.91020   0.06076   0.01267  Uiso   1.00
O13    O     0.09080   0.10740   0.63039   0.01267  Uiso   1.00
O14    O     0.98900   0.35520   0.57098   0.01267  Uiso   1.00
O15    O     0.09040   0.84440   0.53302   0.01267  Uiso   1.00
O16    O     0.38060   0.77380   0.55808   0.01267  Uiso   1.00
O17    O     0.71510   0.09300   0.59091   0.01267  Uiso   1.00
O18    O     0.45870   0.08980   0.56076   0.01267  Uiso   1.00
O19    O     0.80180   0.10740   0.86961   0.01267  Uiso   1.00
O20    O     0.65580   0.35520   0.92902   0.01267  Uiso   1.00
O21    O     0.06520   0.84440   0.96698   0.01267  Uiso   1.00
O22    O     0.84560   0.77380   0.94192   0.01267  Uiso   1.00
O23    O     0.19190   0.09300   0.90909   0.01267  Uiso   1.00
O24    O     0.45150   0.08980   0.93924   0.01267  Uiso   1.00
