data_image0
_cell_length_a       10.8984
_cell_length_b       11.426
_cell_length_c       15.059
_cell_angle_alpha    90
_cell_angle_beta     90
_cell_angle_gamma    90

_symmetry_space_group_name_H-M    "P 1"
_symmetry_int_tables_number       1

loop_
  _symmetry_equiv_pos_as_xyz
  'x, y, z'

loop_
  _atom_site_label
  _atom_site_occupancy
  _atom_site_fract_x
  _atom_site_fract_y
  _atom_site_fract_z
  _atom_site_thermal_displace_type
  _atom_site_B_iso_or_equiv
  _atom_site_type_symbol
  O1       1.0000 0.33280  0.25130  0.20770  Biso   1.000  O
  O2       1.0000 0.37540  0.08370  0.41320  Biso   1.000  O
  O3       1.0000 0.17030  0.98110  0.33940  Biso   1.000  O
  O4       1.0000 0.16940  0.98230  0.13980  Biso   1.000  O
  O5       1.0000 0.31700  0.29500  0.02410  Biso   1.000  O
  C1       1.0000 0.31660  0.13030  0.33570  Biso   1.000  C
  C2       1.0000 0.28890  0.16180  0.14750  Biso   1.000  C
  C3       1.0000 0.20110  0.07880  0.19590  Biso   1.000  C
  C4       1.0000 0.25960  0.03350  0.28140  Biso   1.000  C
  C5       1.0000 0.22910  0.22530  0.07080  Biso   1.000  C
  C6       1.0000 0.40050  0.20630  0.28030  Biso   1.000  C
  H1       1.0000 0.25190  0.17900  0.35610  Biso   1.000  H
  H2       1.0000 0.35660  0.11800  0.12560  Biso   1.000  H
  H3       1.0000 0.12780  0.12080  0.21060  Biso   1.000  H
  H4       1.0000 0.32100  0.97720  0.26670  Biso   1.000  H
  H5       1.0000 0.43040  0.26950  0.31550  Biso   1.000  H
  H6       1.0000 0.16510  0.27470  0.09310  Biso   1.000  H
  H7       1.0000 0.19360  0.16970  0.03120  Biso   1.000  H
  O6       1.0000 0.83280  0.75130  0.20770  Biso   1.000  O
  O7       1.0000 0.87540  0.58370  0.41320  Biso   1.000  O
  O8       1.0000 0.67030  0.48110  0.33940  Biso   1.000  O
  O9       1.0000 0.66940  0.48230  0.13980  Biso   1.000  O
  O10      1.0000 0.81700  0.79500  0.02410  Biso   1.000  O
  C7       1.0000 0.81660  0.63030  0.33570  Biso   1.000  C
  C8       1.0000 0.78890  0.66180  0.14750  Biso   1.000  C
  C9       1.0000 0.70110  0.57880  0.19590  Biso   1.000  C
  C10      1.0000 0.75960  0.53350  0.28140  Biso   1.000  C
  C11      1.0000 0.72910  0.72530  0.07080  Biso   1.000  C
  C12      1.0000 0.90050  0.70630  0.28030  Biso   1.000  C
  H8       1.0000 0.75190  0.67900  0.35610  Biso   1.000  H
  H9       1.0000 0.85660  0.61800  0.12560  Biso   1.000  H
  H10      1.0000 0.62780  0.62080  0.21060  Biso   1.000  H
  H11      1.0000 0.82100  0.47720  0.26670  Biso   1.000  H
  H12      1.0000 0.93040  0.76950  0.31550  Biso   1.000  H
  H13      1.0000 0.66510  0.77470  0.09310  Biso   1.000  H
  H14      1.0000 0.69360  0.66970  0.03120  Biso   1.000  H
  O11      1.0000 0.66720  0.74870  0.70770  Biso   1.000  O
  O12      1.0000 0.62460  0.91630  0.91320  Biso   1.000  O
  O13      1.0000 0.82970  0.01890  0.83940  Biso   1.000  O
  O14      1.0000 0.83060  0.01770  0.63980  Biso   1.000  O
  O15      1.0000 0.68300  0.70500  0.52410  Biso   1.000  O
  C13      1.0000 0.68340  0.86970  0.83570  Biso   1.000  C
  C14      1.0000 0.71110  0.83820  0.64750  Biso   1.000  C
  C15      1.0000 0.79890  0.92120  0.69590  Biso   1.000  C
  C16      1.0000 0.74040  0.96650  0.78140  Biso   1.000  C
  C17      1.0000 0.77090  0.77470  0.57080  Biso   1.000  C
  C18      1.0000 0.59950  0.79370  0.78030  Biso   1.000  C
  H15      1.0000 0.74810  0.82100  0.85610  Biso   1.000  H
  H16      1.0000 0.64340  0.88200  0.62560  Biso   1.000  H
  H17      1.0000 0.87220  0.87920  0.71060  Biso   1.000  H
  H18      1.0000 0.67900  0.02280  0.76670  Biso   1.000  H
  H19      1.0000 0.56960  0.73050  0.81550  Biso   1.000  H
  H20      1.0000 0.83490  0.72530  0.59310  Biso   1.000  H
  H21      1.0000 0.80640  0.83030  0.53120  Biso   1.000  H
  O16      1.0000 0.16720  0.24870  0.70770  Biso   1.000  O
  O17      1.0000 0.12460  0.41630  0.91320  Biso   1.000  O
  O18      1.0000 0.32970  0.51890  0.83940  Biso   1.000  O
  O19      1.0000 0.33060  0.51770  0.63980  Biso   1.000  O
  O20      1.0000 0.18300  0.20500  0.52410  Biso   1.000  O
  C19      1.0000 0.18340  0.36970  0.83570  Biso   1.000  C
  C20      1.0000 0.21110  0.33820  0.64750  Biso   1.000  C
  C21      1.0000 0.29890  0.42120  0.69590  Biso   1.000  C
  C22      1.0000 0.24040  0.46650  0.78140  Biso   1.000  C
  C23      1.0000 0.27090  0.27470  0.57080  Biso   1.000  C
  C24      1.0000 0.09950  0.29370  0.78030  Biso   1.000  C
  H22      1.0000 0.24810  0.32100  0.85610  Biso   1.000  H
  H23      1.0000 0.14340  0.38200  0.62560  Biso   1.000  H
  H24      1.0000 0.37220  0.37920  0.71060  Biso   1.000  H
  H25      1.0000 0.17900  0.52280  0.76670  Biso   1.000  H
  H26      1.0000 0.06960  0.23050  0.81550  Biso   1.000  H
  H27      1.0000 0.33490  0.22530  0.59310  Biso   1.000  H
  H28      1.0000 0.30640  0.33030  0.53120  Biso   1.000  H
  O21      1.0000 0.66720  0.25130  0.29230  Biso   1.000  O
  O22      1.0000 0.62460  0.08370  0.08680  Biso   1.000  O
  O23      1.0000 0.82970  0.98110  0.16060  Biso   1.000  O
  O24      1.0000 0.83060  0.98230  0.36020  Biso   1.000  O
  O25      1.0000 0.68300  0.29500  0.47590  Biso   1.000  O
  C25      1.0000 0.68340  0.13030  0.16430  Biso   1.000  C
  C26      1.0000 0.71110  0.16180  0.35250  Biso   1.000  C
  C27      1.0000 0.79890  0.07880  0.30410  Biso   1.000  C
  C28      1.0000 0.74040  0.03350  0.21860  Biso   1.000  C
  C29      1.0000 0.77090  0.22530  0.42920  Biso   1.000  C
  C30      1.0000 0.59950  0.20630  0.21970  Biso   1.000  C
  H29      1.0000 0.74810  0.17900  0.14390  Biso   1.000  H
  H30      1.0000 0.64340  0.11800  0.37440  Biso   1.000  H
  H31      1.0000 0.87220  0.12080  0.28940  Biso   1.000  H
  H32      1.0000 0.67900  0.97720  0.23330  Biso   1.000  H
  H33      1.0000 0.56960  0.26950  0.18450  Biso   1.000  H
  H34      1.0000 0.83490  0.27470  0.40690  Biso   1.000  H
  H35      1.0000 0.80640  0.16970  0.46880  Biso   1.000  H
  O26      1.0000 0.16720  0.75130  0.29230  Biso   1.000  O
  O27      1.0000 0.12460  0.58370  0.08680  Biso   1.000  O
  O28      1.0000 0.32970  0.48110  0.16060  Biso   1.000  O
  O29      1.0000 0.33060  0.48230  0.36020  Biso   1.000  O
  O30      1.0000 0.18300  0.79500  0.47590  Biso   1.000  O
  C31      1.0000 0.18340  0.63030  0.16430  Biso   1.000  C
  C32      1.0000 0.21110  0.66180  0.35250  Biso   1.000  C
  C33      1.0000 0.29890  0.57880  0.30410  Biso   1.000  C
  C34      1.0000 0.24040  0.53350  0.21860  Biso   1.000  C
  C35      1.0000 0.27090  0.72530  0.42920  Biso   1.000  C
  C36      1.0000 0.09950  0.70630  0.21970  Biso   1.000  C
  H36      1.0000 0.24810  0.67900  0.14390  Biso   1.000  H
  H37      1.0000 0.14340  0.61800  0.37440  Biso   1.000  H
  H38      1.0000 0.37220  0.62080  0.28940  Biso   1.000  H
  H39      1.0000 0.17900  0.47720  0.23330  Biso   1.000  H
  H40      1.0000 0.06960  0.76950  0.18450  Biso   1.000  H
  H41      1.0000 0.33490  0.77470  0.40690  Biso   1.000  H
  H42      1.0000 0.30640  0.66970  0.46880  Biso   1.000  H
  O31      1.0000 0.33280  0.74870  0.79230  Biso   1.000  O
  O32      1.0000 0.37540  0.91630  0.58680  Biso   1.000  O
  O33      1.0000 0.17030  0.01890  0.66060  Biso   1.000  O
  O34      1.0000 0.16940  0.01770  0.86020  Biso   1.000  O
  O35      1.0000 0.31700  0.70500  0.97590  Biso   1.000  O
  C37      1.0000 0.31660  0.86970  0.66430  Biso   1.000  C
  C38      1.0000 0.28890  0.83820  0.85250  Biso   1.000  C
  C39      1.0000 0.20110  0.92120  0.80410  Biso   1.000  C
  C40      1.0000 0.25960  0.96650  0.71860  Biso   1.000  C
  C41      1.0000 0.22910  0.77470  0.92920  Biso   1.000  C
  C42      1.0000 0.40050  0.79370  0.71970  Biso   1.000  C
  H43      1.0000 0.25190  0.82100  0.64390  Biso   1.000  H
  H44      1.0000 0.35660  0.88200  0.87440  Biso   1.000  H
  H45      1.0000 0.12780  0.87920  0.78940  Biso   1.000  H
  H46      1.0000 0.32100  0.02280  0.73330  Biso   1.000  H
  H47      1.0000 0.43040  0.73050  0.68450  Biso   1.000  H
  H48      1.0000 0.16510  0.72530  0.90690  Biso   1.000  H
  H49      1.0000 0.19360  0.83030  0.96880  Biso   1.000  H
  O36      1.0000 0.83280  0.24870  0.79230  Biso   1.000  O
  O37      1.0000 0.87540  0.41630  0.58680  Biso   1.000  O
  O38      1.0000 0.67030  0.51890  0.66060  Biso   1.000  O
  O39      1.0000 0.66940  0.51770  0.86020  Biso   1.000  O
  O40      1.0000 0.81700  0.20500  0.97590  Biso   1.000  O
  C43      1.0000 0.81660  0.36970  0.66430  Biso   1.000  C
  C44      1.0000 0.78890  0.33820  0.85250  Biso   1.000  C
  C45      1.0000 0.70110  0.42120  0.80410  Biso   1.000  C
  C46      1.0000 0.75960  0.46650  0.71860  Biso   1.000  C
  C47      1.0000 0.72910  0.27470  0.92920  Biso   1.000  C
  C48      1.0000 0.90050  0.29370  0.71970  Biso   1.000  C
  H50      1.0000 0.75190  0.32100  0.64390  Biso   1.000  H
  H51      1.0000 0.85660  0.38200  0.87440  Biso   1.000  H
  H52      1.0000 0.62780  0.37920  0.78940  Biso   1.000  H
  H53      1.0000 0.82100  0.52280  0.73330  Biso   1.000  H
  H54      1.0000 0.93040  0.23050  0.68450  Biso   1.000  H
  H55      1.0000 0.66510  0.22530  0.90690  Biso   1.000  H
  H56      1.0000 0.69360  0.33030  0.96880  Biso   1.000  H
  Ca1      1.0000 0.20585  0.00000  0.50000  Biso   1.000  Ca
  Ca2      1.0000 0.70585  0.50000  0.50000  Biso   1.000  Ca
  Ca3      1.0000 0.79415  0.00000  0.00000  Biso   1.000  Ca
  Ca4      1.0000 0.29415  0.50000  0.00000  Biso   1.000  Ca
  O41      1.0000 0.50000  0.13820  0.25000  Biso   1.000  O
  O42      1.0000 0.00000  0.63820  0.25000  Biso   1.000  O
  O43      1.0000 0.50000  0.86180  0.75000  Biso   1.000  O
  O44      1.0000 0.00000  0.36180  0.75000  Biso   1.000  O
