data_image0
_cell_length_a       13.0943
_cell_length_b       26.7035
_cell_length_c       13.132
_cell_angle_alpha    90
_cell_angle_beta     115.872
_cell_angle_gamma    90

_symmetry_space_group_name_H-M    "P 1"
_symmetry_int_tables_number       1

loop_
  _symmetry_equiv_pos_as_xyz
  'x, y, z'

loop_
  _atom_site_label
  _atom_site_occupancy
  _atom_site_fract_x
  _atom_site_fract_y
  _atom_site_fract_z
  _atom_site_thermal_displace_type
  _atom_site_B_iso_or_equiv
  _atom_site_type_symbol
  Eu1      1.0000 0.17896  0.50456  0.58141  Biso   1.000  Eu
  Eu2      1.0000 0.54888  0.50655  0.99621  Biso   1.000  Eu
  C1       1.0000 0.02260  0.57760  0.38810  Biso   1.000  C
  C2       1.0000 0.98800  0.62760  0.33490  Biso   1.000  C
  C3       1.0000 0.88440  0.64830  0.32020  Biso   1.000  C
  H1       1.0000 0.83480  0.62940  0.33810  Biso   1.000  H
  C4       1.0000 0.85470  0.69630  0.27950  Biso   1.000  C
  H2       1.0000 0.78530  0.70960  0.26950  Biso   1.000  H
  C5       1.0000 0.06080  0.65600  0.30620  Biso   1.000  C
  H3       1.0000 0.13030  0.64270  0.31660  Biso   1.000  H
  C6       1.0000 0.03050  0.70370  0.26230  Biso   1.000  C
  C7       1.0000 0.92830  0.72450  0.25370  Biso   1.000  C
  C8       1.0000 0.92330  0.77650  0.21530  Biso   1.000  C
  C9       1.0000 0.09430  0.74010  0.22260  Biso   1.000  C
  C10      1.0000 0.09790  0.72190  0.11440  Biso   1.000  C
  H4       1.0000 0.12850  0.74700  0.08380  Biso   1.000  H
  H5       1.0000 0.01900  0.71490  0.06180  Biso   1.000  H
  H6       1.0000 0.14320  0.69200  0.12790  Biso   1.000  H
  C11      1.0000 0.21340  0.75050  0.31430  Biso   1.000  C
  H7       1.0000 0.24750  0.77650  0.28950  Biso   1.000  H
  H8       1.0000 0.25760  0.72040  0.32560  Biso   1.000  H
  H9       1.0000 0.21330  0.76010  0.38380  Biso   1.000  H
  C12      1.0000 0.01870  0.78640  0.19850  Biso   1.000  C
  C13      1.0000 0.03630  0.83390  0.16670  Biso   1.000  C
  H10      1.0000 0.10110  0.84070  0.15680  Biso   1.000  H
  C14      1.0000 0.84320  0.81350  0.19860  Biso   1.000  C
  H11      1.0000 0.77950  0.80720  0.21060  Biso   1.000  H
  C15      1.0000 0.86080  0.86030  0.16340  Biso   1.000  C
  H12      1.0000 0.80610  0.88500  0.14860  Biso   1.000  H
  C16      1.0000 0.95700  0.87130  0.14950  Biso   1.000  C
  C17      1.0000 0.97570  0.92310  0.11650  Biso   1.000  C
  C18      1.0000 0.37800  0.58140  0.79440  Biso   1.000  C
  C19      1.0000 0.39770  0.63340  0.76230  Biso   1.000  C
  C20      1.0000 0.47950  0.66360  0.84190  Biso   1.000  C
  H13      1.0000 0.52270  0.65170  0.91470  Biso   1.000  H
  C21      1.0000 0.33360  0.65050  0.65300  Biso   1.000  C
  H14      1.0000 0.27960  0.62980  0.59950  Biso   1.000  H
  C22      1.0000 0.35030  0.69860  0.62370  Biso   1.000  C
  H15      1.0000 0.30770  0.71050  0.55060  Biso   1.000  H
  C23      1.0000 0.43130  0.72900  0.70480  Biso   1.000  C
  C24      1.0000 0.49680  0.71120  0.81330  Biso   1.000  C
  C25      1.0000 0.58300  0.75040  0.88610  Biso   1.000  C
  C26      1.0000 0.70270  0.73210  0.92660  Biso   1.000  C
  H16      1.0000 0.71420  0.72090  0.86380  Biso   1.000  H
  H17      1.0000 0.71740  0.70520  0.97870  Biso   1.000  H
  H18      1.0000 0.75500  0.75910  0.96370  Biso   1.000  H
  C27      1.0000 0.55980  0.76620  0.98620  Biso   1.000  C
  H19      1.0000 0.60680  0.79460  0.02310  Biso   1.000  H
  H20      1.0000 0.57980  0.73900  0.03830  Biso   1.000  H
  H21      1.0000 0.47950  0.77450  0.96020  Biso   1.000  H
  C28      1.0000 0.46680  0.78090  0.69680  Biso   1.000  C
  C29      1.0000 0.55440  0.79360  0.80100  Biso   1.000  C
  C30      1.0000 0.60440  0.84080  0.81680  Biso   1.000  C
  H22      1.0000 0.66340  0.84970  0.88590  Biso   1.000  H
  C31      1.0000 0.42500  0.81420  0.60980  Biso   1.000  C
  H23      1.0000 0.36390  0.80570  0.54190  Biso   1.000  H
  C32      1.0000 0.47540  0.86150  0.62440  Biso   1.000  C
  H24      1.0000 0.44920  0.88440  0.56510  Biso   1.000  H
  C33      1.0000 0.56400  0.87410  0.72670  Biso   1.000  C
  C34      1.0000 0.61810  0.92540  0.73950  Biso   1.000  C
  N1       1.0000 0.68400  0.56240  0.89600  Biso   1.000  N
  O1       1.0000 0.94720  0.54769  0.38710  Biso   1.000  O
  O2       1.0000 0.12600  0.56830  0.43790  Biso   1.000  O
  O3       1.0000 0.88970  0.95153  0.07470  Biso   1.000  O
  O4       1.0000 0.07400  0.93482  0.13110  Biso   1.000  O
  O5       1.0000 0.31230  0.55324  0.71740  Biso   1.000  O
  O6       1.0000 0.43120  0.56854  0.89520  Biso   1.000  O
  O7       1.0000 0.57600  0.95340  0.65460  Biso   1.000  O
  O8       1.0000 0.69510  0.93683  0.83050  Biso   1.000  O
  O9       1.0000 0.68780  0.57410  0.98920  Biso   1.000  O
  O10      1.0000 0.61420  0.53060  0.85090  Biso   1.000  O
  O11      1.0000 0.73150  0.58800  0.85700  Biso   1.000  O
  Eu3      1.0000 0.82104  0.00456  0.91859  Biso   1.000  Eu
  Eu4      1.0000 0.45112  0.00655  0.50379  Biso   1.000  Eu
  C35      1.0000 0.97740  0.07760  0.11190  Biso   1.000  C
  C36      1.0000 0.01200  0.12760  0.16510  Biso   1.000  C
  C37      1.0000 0.11560  0.14830  0.17980  Biso   1.000  C
  H25      1.0000 0.16520  0.12940  0.16190  Biso   1.000  H
  C38      1.0000 0.14530  0.19630  0.22050  Biso   1.000  C
  H26      1.0000 0.21470  0.20960  0.23050  Biso   1.000  H
  C39      1.0000 0.93920  0.15600  0.19380  Biso   1.000  C
  H27      1.0000 0.86970  0.14270  0.18340  Biso   1.000  H
  C40      1.0000 0.96950  0.20370  0.23770  Biso   1.000  C
  C41      1.0000 0.07170  0.22450  0.24630  Biso   1.000  C
  C42      1.0000 0.07670  0.27650  0.28470  Biso   1.000  C
  C43      1.0000 0.90570  0.24010  0.27740  Biso   1.000  C
  C44      1.0000 0.90210  0.22190  0.38560  Biso   1.000  C
  H28      1.0000 0.87150  0.24700  0.41620  Biso   1.000  H
  H29      1.0000 0.98100  0.21490  0.43820  Biso   1.000  H
  H30      1.0000 0.85680  0.19200  0.37210  Biso   1.000  H
  C45      1.0000 0.78660  0.25050  0.18570  Biso   1.000  C
  H31      1.0000 0.75250  0.27650  0.21050  Biso   1.000  H
  H32      1.0000 0.74240  0.22040  0.17440  Biso   1.000  H
  H33      1.0000 0.78670  0.26010  0.11620  Biso   1.000  H
  C46      1.0000 0.98130  0.28640  0.30150  Biso   1.000  C
  C47      1.0000 0.96370  0.33390  0.33330  Biso   1.000  C
  H34      1.0000 0.89890  0.34070  0.34320  Biso   1.000  H
  C48      1.0000 0.15680  0.31350  0.30140  Biso   1.000  C
  H35      1.0000 0.22050  0.30720  0.28940  Biso   1.000  H
  C49      1.0000 0.13920  0.36030  0.33660  Biso   1.000  C
  H36      1.0000 0.19390  0.38500  0.35140  Biso   1.000  H
  C50      1.0000 0.04300  0.37130  0.35050  Biso   1.000  C
  C51      1.0000 0.02430  0.42310  0.38350  Biso   1.000  C
  C52      1.0000 0.62200  0.08140  0.70560  Biso   1.000  C
  C53      1.0000 0.60230  0.13340  0.73770  Biso   1.000  C
  C54      1.0000 0.52050  0.16360  0.65810  Biso   1.000  C
  H37      1.0000 0.47730  0.15170  0.58530  Biso   1.000  H
  C55      1.0000 0.66640  0.15050  0.84700  Biso   1.000  C
  H38      1.0000 0.72040  0.12980  0.90050  Biso   1.000  H
  C56      1.0000 0.64970  0.19860  0.87630  Biso   1.000  C
  H39      1.0000 0.69230  0.21050  0.94940  Biso   1.000  H
  C57      1.0000 0.56870  0.22900  0.79520  Biso   1.000  C
  C58      1.0000 0.50320  0.21120  0.68670  Biso   1.000  C
  C59      1.0000 0.41700  0.25040  0.61390  Biso   1.000  C
  C60      1.0000 0.29730  0.23210  0.57340  Biso   1.000  C
  H40      1.0000 0.28580  0.22090  0.63620  Biso   1.000  H
  H41      1.0000 0.28260  0.20520  0.52130  Biso   1.000  H
  H42      1.0000 0.24500  0.25910  0.53630  Biso   1.000  H
  C61      1.0000 0.44020  0.26620  0.51380  Biso   1.000  C
  H43      1.0000 0.39320  0.29460  0.47690  Biso   1.000  H
  H44      1.0000 0.42020  0.23900  0.46170  Biso   1.000  H
  H45      1.0000 0.52050  0.27450  0.53980  Biso   1.000  H
  C62      1.0000 0.53320  0.28090  0.80320  Biso   1.000  C
  C63      1.0000 0.44560  0.29360  0.69900  Biso   1.000  C
  C64      1.0000 0.39560  0.34080  0.68320  Biso   1.000  C
  H46      1.0000 0.33660  0.34970  0.61410  Biso   1.000  H
  C65      1.0000 0.57500  0.31420  0.89020  Biso   1.000  C
  H47      1.0000 0.63610  0.30570  0.95810  Biso   1.000  H
  C66      1.0000 0.52460  0.36150  0.87560  Biso   1.000  C
  H48      1.0000 0.55080  0.38440  0.93490  Biso   1.000  H
  C67      1.0000 0.43600  0.37410  0.77330  Biso   1.000  C
  C68      1.0000 0.38190  0.42540  0.76050  Biso   1.000  C
  N2       1.0000 0.31600  0.06240  0.60400  Biso   1.000  N
  O12      1.0000 0.05280  0.04769  0.11290  Biso   1.000  O
  O13      1.0000 0.87400  0.06830  0.06210  Biso   1.000  O
  O14      1.0000 0.11030  0.45153  0.42530  Biso   1.000  O
  O15      1.0000 0.92600  0.43482  0.36890  Biso   1.000  O
  O16      1.0000 0.68770  0.05324  0.78260  Biso   1.000  O
  O17      1.0000 0.56880  0.06854  0.60480  Biso   1.000  O
  O18      1.0000 0.42400  0.45340  0.84540  Biso   1.000  O
  O19      1.0000 0.30490  0.43683  0.66950  Biso   1.000  O
  O20      1.0000 0.31220  0.07410  0.51080  Biso   1.000  O
  O21      1.0000 0.38580  0.03060  0.64910  Biso   1.000  O
  O22      1.0000 0.26850  0.08800  0.64300  Biso   1.000  O
  Eu5      1.0000 0.82104  0.49544  0.41859  Biso   1.000  Eu
  Eu6      1.0000 0.45112  0.49345  0.00379  Biso   1.000  Eu
  C69      1.0000 0.97740  0.42240  0.61190  Biso   1.000  C
  C70      1.0000 0.01200  0.37240  0.66510  Biso   1.000  C
  C71      1.0000 0.11560  0.35170  0.67980  Biso   1.000  C
  H49      1.0000 0.16520  0.37060  0.66190  Biso   1.000  H
  C72      1.0000 0.14530  0.30370  0.72050  Biso   1.000  C
  H50      1.0000 0.21470  0.29040  0.73050  Biso   1.000  H
  C73      1.0000 0.93920  0.34400  0.69380  Biso   1.000  C
  H51      1.0000 0.86970  0.35730  0.68340  Biso   1.000  H
  C74      1.0000 0.96950  0.29630  0.73770  Biso   1.000  C
  C75      1.0000 0.07170  0.27550  0.74630  Biso   1.000  C
  C76      1.0000 0.07670  0.22350  0.78470  Biso   1.000  C
  C77      1.0000 0.90570  0.25990  0.77740  Biso   1.000  C
  C78      1.0000 0.90210  0.27810  0.88560  Biso   1.000  C
  H52      1.0000 0.87150  0.25300  0.91620  Biso   1.000  H
  H53      1.0000 0.98100  0.28510  0.93820  Biso   1.000  H
  H54      1.0000 0.85680  0.30800  0.87210  Biso   1.000  H
  C79      1.0000 0.78660  0.24950  0.68570  Biso   1.000  C
  H55      1.0000 0.75250  0.22350  0.71050  Biso   1.000  H
  H56      1.0000 0.74240  0.27960  0.67440  Biso   1.000  H
  H57      1.0000 0.78670  0.23990  0.61620  Biso   1.000  H
  C80      1.0000 0.98130  0.21360  0.80150  Biso   1.000  C
  C81      1.0000 0.96370  0.16610  0.83330  Biso   1.000  C
  H58      1.0000 0.89890  0.15930  0.84320  Biso   1.000  H
  C82      1.0000 0.15680  0.18650  0.80140  Biso   1.000  C
  H59      1.0000 0.22050  0.19280  0.78940  Biso   1.000  H
  C83      1.0000 0.13920  0.13970  0.83660  Biso   1.000  C
  H60      1.0000 0.19390  0.11500  0.85140  Biso   1.000  H
  C84      1.0000 0.04300  0.12870  0.85050  Biso   1.000  C
  C85      1.0000 0.02430  0.07690  0.88350  Biso   1.000  C
  C86      1.0000 0.62200  0.41860  0.20560  Biso   1.000  C
  C87      1.0000 0.60230  0.36660  0.23770  Biso   1.000  C
  C88      1.0000 0.52050  0.33640  0.15810  Biso   1.000  C
  H61      1.0000 0.47730  0.34830  0.08530  Biso   1.000  H
  C89      1.0000 0.66640  0.34950  0.34700  Biso   1.000  C
  H62      1.0000 0.72040  0.37020  0.40050  Biso   1.000  H
  C90      1.0000 0.64970  0.30140  0.37630  Biso   1.000  C
  H63      1.0000 0.69230  0.28950  0.44940  Biso   1.000  H
  C91      1.0000 0.56870  0.27100  0.29520  Biso   1.000  C
  C92      1.0000 0.50320  0.28880  0.18670  Biso   1.000  C
  C93      1.0000 0.41700  0.24960  0.11390  Biso   1.000  C
  C94      1.0000 0.29730  0.26790  0.07340  Biso   1.000  C
  H64      1.0000 0.28580  0.27910  0.13620  Biso   1.000  H
  H65      1.0000 0.28260  0.29480  0.02130  Biso   1.000  H
  H66      1.0000 0.24500  0.24090  0.03630  Biso   1.000  H
  C95      1.0000 0.44020  0.23380  0.01380  Biso   1.000  C
  H67      1.0000 0.39320  0.20540  0.97690  Biso   1.000  H
  H68      1.0000 0.42020  0.26100  0.96170  Biso   1.000  H
  H69      1.0000 0.52050  0.22550  0.03980  Biso   1.000  H
  C96      1.0000 0.53320  0.21910  0.30320  Biso   1.000  C
  C97      1.0000 0.44560  0.20640  0.19900  Biso   1.000  C
  C98      1.0000 0.39560  0.15920  0.18320  Biso   1.000  C
  H70      1.0000 0.33660  0.15030  0.11410  Biso   1.000  H
  C99      1.0000 0.57500  0.18580  0.39020  Biso   1.000  C
  H71      1.0000 0.63610  0.19430  0.45810  Biso   1.000  H
  C100     1.0000 0.52460  0.13850  0.37560  Biso   1.000  C
  H72      1.0000 0.55080  0.11560  0.43490  Biso   1.000  H
  C101     1.0000 0.43600  0.12590  0.27330  Biso   1.000  C
  C102     1.0000 0.38190  0.07460  0.26050  Biso   1.000  C
  N3       1.0000 0.31600  0.43760  0.10400  Biso   1.000  N
  O23      1.0000 0.05280  0.45231  0.61290  Biso   1.000  O
  O24      1.0000 0.87400  0.43170  0.56210  Biso   1.000  O
  O25      1.0000 0.11030  0.04847  0.92530  Biso   1.000  O
  O26      1.0000 0.92600  0.06518  0.86890  Biso   1.000  O
  O27      1.0000 0.68770  0.44676  0.28260  Biso   1.000  O
  O28      1.0000 0.56880  0.43146  0.10480  Biso   1.000  O
  O29      1.0000 0.42400  0.04660  0.34540  Biso   1.000  O
  O30      1.0000 0.30490  0.06317  0.16950  Biso   1.000  O
  O31      1.0000 0.31220  0.42590  0.01080  Biso   1.000  O
  O32      1.0000 0.38580  0.46940  0.14910  Biso   1.000  O
  O33      1.0000 0.26850  0.41200  0.14300  Biso   1.000  O
  Eu7      1.0000 0.17896  0.99544  0.08141  Biso   1.000  Eu
  Eu8      1.0000 0.54888  0.99345  0.49621  Biso   1.000  Eu
  C103     1.0000 0.02260  0.92240  0.88810  Biso   1.000  C
  C104     1.0000 0.98800  0.87240  0.83490  Biso   1.000  C
  C105     1.0000 0.88440  0.85170  0.82020  Biso   1.000  C
  H73      1.0000 0.83480  0.87060  0.83810  Biso   1.000  H
  C106     1.0000 0.85470  0.80370  0.77950  Biso   1.000  C
  H74      1.0000 0.78530  0.79040  0.76950  Biso   1.000  H
  C107     1.0000 0.06080  0.84400  0.80620  Biso   1.000  C
  H75      1.0000 0.13030  0.85730  0.81660  Biso   1.000  H
  C108     1.0000 0.03050  0.79630  0.76230  Biso   1.000  C
  C109     1.0000 0.92830  0.77550  0.75370  Biso   1.000  C
  C110     1.0000 0.92330  0.72350  0.71530  Biso   1.000  C
  C111     1.0000 0.09430  0.75990  0.72260  Biso   1.000  C
  C112     1.0000 0.09790  0.77810  0.61440  Biso   1.000  C
  H76      1.0000 0.12850  0.75300  0.58380  Biso   1.000  H
  H77      1.0000 0.01900  0.78510  0.56180  Biso   1.000  H
  H78      1.0000 0.14320  0.80800  0.62790  Biso   1.000  H
  C113     1.0000 0.21340  0.74950  0.81430  Biso   1.000  C
  H79      1.0000 0.24750  0.72350  0.78950  Biso   1.000  H
  H80      1.0000 0.25760  0.77960  0.82560  Biso   1.000  H
  H81      1.0000 0.21330  0.73990  0.88380  Biso   1.000  H
  C114     1.0000 0.01870  0.71360  0.69850  Biso   1.000  C
  C115     1.0000 0.03630  0.66610  0.66670  Biso   1.000  C
  H82      1.0000 0.10110  0.65930  0.65680  Biso   1.000  H
  C116     1.0000 0.84320  0.68650  0.69860  Biso   1.000  C
  H83      1.0000 0.77950  0.69280  0.71060  Biso   1.000  H
  C117     1.0000 0.86080  0.63970  0.66340  Biso   1.000  C
  H84      1.0000 0.80610  0.61500  0.64860  Biso   1.000  H
  C118     1.0000 0.95700  0.62870  0.64950  Biso   1.000  C
  C119     1.0000 0.97570  0.57690  0.61650  Biso   1.000  C
  C120     1.0000 0.37800  0.91860  0.29440  Biso   1.000  C
  C121     1.0000 0.39770  0.86660  0.26230  Biso   1.000  C
  C122     1.0000 0.47950  0.83640  0.34190  Biso   1.000  C
  H85      1.0000 0.52270  0.84830  0.41470  Biso   1.000  H
  C123     1.0000 0.33360  0.84950  0.15300  Biso   1.000  C
  H86      1.0000 0.27960  0.87020  0.09950  Biso   1.000  H
  C124     1.0000 0.35030  0.80140  0.12370  Biso   1.000  C
  H87      1.0000 0.30770  0.78950  0.05060  Biso   1.000  H
  C125     1.0000 0.43130  0.77100  0.20480  Biso   1.000  C
  C126     1.0000 0.49680  0.78880  0.31330  Biso   1.000  C
  C127     1.0000 0.58300  0.74960  0.38610  Biso   1.000  C
  C128     1.0000 0.70270  0.76790  0.42660  Biso   1.000  C
  H88      1.0000 0.71420  0.77910  0.36380  Biso   1.000  H
  H89      1.0000 0.71740  0.79480  0.47870  Biso   1.000  H
  H90      1.0000 0.75500  0.74090  0.46370  Biso   1.000  H
  C129     1.0000 0.55980  0.73380  0.48620  Biso   1.000  C
  H91      1.0000 0.60680  0.70540  0.52310  Biso   1.000  H
  H92      1.0000 0.57980  0.76100  0.53830  Biso   1.000  H
  H93      1.0000 0.47950  0.72550  0.46020  Biso   1.000  H
  C130     1.0000 0.46680  0.71910  0.19680  Biso   1.000  C
  C131     1.0000 0.55440  0.70640  0.30100  Biso   1.000  C
  C132     1.0000 0.60440  0.65920  0.31680  Biso   1.000  C
  H94      1.0000 0.66340  0.65030  0.38590  Biso   1.000  H
  C133     1.0000 0.42500  0.68580  0.10980  Biso   1.000  C
  H95      1.0000 0.36390  0.69430  0.04190  Biso   1.000  H
  C134     1.0000 0.47540  0.63850  0.12440  Biso   1.000  C
  H96      1.0000 0.44920  0.61560  0.06510  Biso   1.000  H
  C135     1.0000 0.56400  0.62590  0.22670  Biso   1.000  C
  C136     1.0000 0.61810  0.57460  0.23950  Biso   1.000  C
  N4       1.0000 0.68400  0.93760  0.39600  Biso   1.000  N
  O34      1.0000 0.94720  0.95231  0.88710  Biso   1.000  O
  O35      1.0000 0.12600  0.93170  0.93790  Biso   1.000  O
  O36      1.0000 0.88970  0.54847  0.57470  Biso   1.000  O
  O37      1.0000 0.07400  0.56518  0.63110  Biso   1.000  O
  O38      1.0000 0.31230  0.94676  0.21740  Biso   1.000  O
  O39      1.0000 0.43120  0.93146  0.39520  Biso   1.000  O
  O40      1.0000 0.57600  0.54660  0.15460  Biso   1.000  O
  O41      1.0000 0.69510  0.56317  0.33050  Biso   1.000  O
  O42      1.0000 0.68780  0.92590  0.48920  Biso   1.000  O
  O43      1.0000 0.61420  0.96940  0.35090  Biso   1.000  O
  O44      1.0000 0.73150  0.91200  0.35700  Biso   1.000  O
