data_image0
_cell_length_a       10.913
_cell_length_b       23.195
_cell_length_c       10.043
_cell_angle_alpha    90
_cell_angle_beta     104.15
_cell_angle_gamma    90

_symmetry_space_group_name_H-M    "P 1"
_symmetry_int_tables_number       1

loop_
  _symmetry_equiv_pos_as_xyz
  'x, y, z'

loop_
  _atom_site_label
  _atom_site_occupancy
  _atom_site_fract_x
  _atom_site_fract_y
  _atom_site_fract_z
  _atom_site_thermal_displace_type
  _atom_site_B_iso_or_equiv
  _atom_site_type_symbol
  O1       1.0000 0.19070  0.85193  0.21812  Biso   1.000  O
  O2       1.0000 0.27734  0.76410  0.22532  Biso   1.000  O
  O3       1.0000 0.53776  0.72176  0.90374  Biso   1.000  O
  O4       1.0000 0.65622  0.79242  0.85100  Biso   1.000  O
  C1       1.0000 0.36253  0.83771  0.11661  Biso   1.000  C
  C2       1.0000 0.42619  0.79773  0.05517  Biso   1.000  C
  H1       1.0000 0.41190  0.75850  0.06370  Biso   1.000  H
  C3       1.0000 0.51104  0.81610  0.98123  Biso   1.000  C
  C4       1.0000 0.53446  0.87445  0.97080  Biso   1.000  C
  H2       1.0000 0.59290  0.88660  0.92310  Biso   1.000  H
  C5       1.0000 0.47080  0.91510  0.03140  Biso   1.000  C
  C6       1.0000 0.38423  0.89636  0.10421  Biso   1.000  C
  H3       1.0000 0.34100  0.92310  0.14450  Biso   1.000  H
  C7       1.0000 0.26823  0.81743  0.19301  Biso   1.000  C
  C8       1.0000 0.57273  0.77279  0.90730  Biso   1.000  C
  C9       1.0000 0.49170  0.97539  0.01200  Biso   1.000  C
  O5       1.0000 0.69070  0.35193  0.21812  Biso   1.000  O
  O6       1.0000 0.77734  0.26410  0.22532  Biso   1.000  O
  O7       1.0000 0.03776  0.22176  0.90374  Biso   1.000  O
  O8       1.0000 0.15622  0.29242  0.85100  Biso   1.000  O
  C10      1.0000 0.86253  0.33771  0.11661  Biso   1.000  C
  C11      1.0000 0.92619  0.29773  0.05517  Biso   1.000  C
  H4       1.0000 0.91190  0.25850  0.06370  Biso   1.000  H
  C12      1.0000 0.01104  0.31610  0.98123  Biso   1.000  C
  C13      1.0000 0.03446  0.37445  0.97080  Biso   1.000  C
  H5       1.0000 0.09290  0.38660  0.92310  Biso   1.000  H
  C14      1.0000 0.97080  0.41510  0.03140  Biso   1.000  C
  C15      1.0000 0.88423  0.39636  0.10421  Biso   1.000  C
  H6       1.0000 0.84100  0.42310  0.14450  Biso   1.000  H
  C16      1.0000 0.76823  0.31743  0.19301  Biso   1.000  C
  C17      1.0000 0.07273  0.27279  0.90730  Biso   1.000  C
  C18      1.0000 0.99170  0.47539  0.01200  Biso   1.000  C
  O9       1.0000 0.80930  0.85193  0.28188  Biso   1.000  O
  O10      1.0000 0.72266  0.76410  0.27468  Biso   1.000  O
  O11      1.0000 0.46224  0.72176  0.59626  Biso   1.000  O
  O12      1.0000 0.34378  0.79242  0.64900  Biso   1.000  O
  C19      1.0000 0.63747  0.83771  0.38339  Biso   1.000  C
  C20      1.0000 0.57381  0.79773  0.44483  Biso   1.000  C
  H7       1.0000 0.58810  0.75850  0.43630  Biso   1.000  H
  C21      1.0000 0.48896  0.81610  0.51877  Biso   1.000  C
  C22      1.0000 0.46554  0.87445  0.52920  Biso   1.000  C
  H8       1.0000 0.40710  0.88660  0.57690  Biso   1.000  H
  C23      1.0000 0.52920  0.91510  0.46860  Biso   1.000  C
  C24      1.0000 0.61577  0.89636  0.39579  Biso   1.000  C
  H9       1.0000 0.65900  0.92310  0.35550  Biso   1.000  H
  C25      1.0000 0.73177  0.81743  0.30699  Biso   1.000  C
  C26      1.0000 0.42727  0.77279  0.59270  Biso   1.000  C
  C27      1.0000 0.50830  0.97539  0.48800  Biso   1.000  C
  O13      1.0000 0.30930  0.35193  0.28188  Biso   1.000  O
  O14      1.0000 0.22266  0.26410  0.27468  Biso   1.000  O
  O15      1.0000 0.96224  0.22176  0.59626  Biso   1.000  O
  O16      1.0000 0.84378  0.29242  0.64900  Biso   1.000  O
  C28      1.0000 0.13747  0.33771  0.38339  Biso   1.000  C
  C29      1.0000 0.07381  0.29773  0.44483  Biso   1.000  C
  H10      1.0000 0.08810  0.25850  0.43630  Biso   1.000  H
  C30      1.0000 0.98896  0.31610  0.51877  Biso   1.000  C
  C31      1.0000 0.96554  0.37445  0.52920  Biso   1.000  C
  H11      1.0000 0.90710  0.38660  0.57690  Biso   1.000  H
  C32      1.0000 0.02920  0.41510  0.46860  Biso   1.000  C
  C33      1.0000 0.11577  0.39636  0.39579  Biso   1.000  C
  H12      1.0000 0.15900  0.42310  0.35550  Biso   1.000  H
  C34      1.0000 0.23177  0.31743  0.30699  Biso   1.000  C
  C35      1.0000 0.92727  0.27279  0.59270  Biso   1.000  C
  C36      1.0000 0.00830  0.47539  0.48800  Biso   1.000  C
  O17      1.0000 0.80930  0.14807  0.78188  Biso   1.000  O
  O18      1.0000 0.72266  0.23590  0.77468  Biso   1.000  O
  O19      1.0000 0.46224  0.27824  0.09626  Biso   1.000  O
  O20      1.0000 0.34378  0.20758  0.14900  Biso   1.000  O
  C37      1.0000 0.63747  0.16229  0.88339  Biso   1.000  C
  C38      1.0000 0.57381  0.20227  0.94483  Biso   1.000  C
  H13      1.0000 0.58810  0.24150  0.93630  Biso   1.000  H
  C39      1.0000 0.48896  0.18390  0.01877  Biso   1.000  C
  C40      1.0000 0.46554  0.12555  0.02920  Biso   1.000  C
  H14      1.0000 0.40710  0.11340  0.07690  Biso   1.000  H
  C41      1.0000 0.52920  0.08490  0.96860  Biso   1.000  C
  C42      1.0000 0.61577  0.10364  0.89579  Biso   1.000  C
  H15      1.0000 0.65900  0.07690  0.85550  Biso   1.000  H
  C43      1.0000 0.73177  0.18257  0.80699  Biso   1.000  C
  C44      1.0000 0.42727  0.22721  0.09270  Biso   1.000  C
  C45      1.0000 0.50830  0.02461  0.98800  Biso   1.000  C
  O21      1.0000 0.30930  0.64807  0.78188  Biso   1.000  O
  O22      1.0000 0.22266  0.73590  0.77468  Biso   1.000  O
  O23      1.0000 0.96224  0.77824  0.09626  Biso   1.000  O
  O24      1.0000 0.84378  0.70758  0.14900  Biso   1.000  O
  C46      1.0000 0.13747  0.66229  0.88339  Biso   1.000  C
  C47      1.0000 0.07381  0.70227  0.94483  Biso   1.000  C
  H16      1.0000 0.08810  0.74150  0.93630  Biso   1.000  H
  C48      1.0000 0.98896  0.68390  0.01877  Biso   1.000  C
  C49      1.0000 0.96554  0.62555  0.02920  Biso   1.000  C
  H17      1.0000 0.90710  0.61340  0.07690  Biso   1.000  H
  C50      1.0000 0.02920  0.58490  0.96860  Biso   1.000  C
  C51      1.0000 0.11577  0.60364  0.89579  Biso   1.000  C
  H18      1.0000 0.15900  0.57690  0.85550  Biso   1.000  H
  C52      1.0000 0.23177  0.68257  0.80699  Biso   1.000  C
  C53      1.0000 0.92727  0.72721  0.09270  Biso   1.000  C
  C54      1.0000 0.00830  0.52461  0.98800  Biso   1.000  C
  O25      1.0000 0.19070  0.14807  0.71812  Biso   1.000  O
  O26      1.0000 0.27734  0.23590  0.72532  Biso   1.000  O
  O27      1.0000 0.53776  0.27824  0.40374  Biso   1.000  O
  O28      1.0000 0.65622  0.20758  0.35100  Biso   1.000  O
  C55      1.0000 0.36253  0.16229  0.61661  Biso   1.000  C
  C56      1.0000 0.42619  0.20227  0.55517  Biso   1.000  C
  H19      1.0000 0.41190  0.24150  0.56370  Biso   1.000  H
  C57      1.0000 0.51104  0.18390  0.48123  Biso   1.000  C
  C58      1.0000 0.53446  0.12555  0.47080  Biso   1.000  C
  H20      1.0000 0.59290  0.11340  0.42310  Biso   1.000  H
  C59      1.0000 0.47080  0.08490  0.53140  Biso   1.000  C
  C60      1.0000 0.38423  0.10364  0.60421  Biso   1.000  C
  H21      1.0000 0.34100  0.07690  0.64450  Biso   1.000  H
  C61      1.0000 0.26823  0.18257  0.69301  Biso   1.000  C
  C62      1.0000 0.57273  0.22721  0.40730  Biso   1.000  C
  C63      1.0000 0.49170  0.02461  0.51200  Biso   1.000  C
  O29      1.0000 0.69070  0.64807  0.71812  Biso   1.000  O
  O30      1.0000 0.77734  0.73590  0.72532  Biso   1.000  O
  O31      1.0000 0.03776  0.77824  0.40374  Biso   1.000  O
  O32      1.0000 0.15622  0.70758  0.35100  Biso   1.000  O
  C64      1.0000 0.86253  0.66229  0.61661  Biso   1.000  C
  C65      1.0000 0.92619  0.70227  0.55517  Biso   1.000  C
  H22      1.0000 0.91190  0.74150  0.56370  Biso   1.000  H
  C66      1.0000 0.01104  0.68390  0.48123  Biso   1.000  C
  C67      1.0000 0.03446  0.62555  0.47080  Biso   1.000  C
  H23      1.0000 0.09290  0.61340  0.42310  Biso   1.000  H
  C68      1.0000 0.97080  0.58490  0.53140  Biso   1.000  C
  C69      1.0000 0.88423  0.60364  0.60421  Biso   1.000  C
  H24      1.0000 0.84100  0.57690  0.64450  Biso   1.000  H
  C70      1.0000 0.76823  0.68257  0.69301  Biso   1.000  C
  C71      1.0000 0.07273  0.72721  0.40730  Biso   1.000  C
  C72      1.0000 0.99170  0.52461  0.51200  Biso   1.000  C
  Mn1      1.0000 0.00000  0.84591  0.25000  Biso   1.000  Mn
  Mn2      1.0000 0.50000  0.34591  0.25000  Biso   1.000  Mn
  Mn3      1.0000 0.00000  0.15409  0.75000  Biso   1.000  Mn
  Mn4      1.0000 0.50000  0.65409  0.75000  Biso   1.000  Mn
