data_image0
_cell_length_a       13.916
_cell_length_b       26.638
_cell_length_c       7.631
_cell_angle_alpha    90
_cell_angle_beta     90
_cell_angle_gamma    90

_symmetry_space_group_name_H-M    "P 1"
_symmetry_int_tables_number       1

loop_
  _symmetry_equiv_pos_as_xyz
  'x, y, z'

loop_
  _atom_site_label
  _atom_site_occupancy
  _atom_site_fract_x
  _atom_site_fract_y
  _atom_site_fract_z
  _atom_site_thermal_displace_type
  _atom_site_B_iso_or_equiv
  _atom_site_type_symbol
  Cd1      1.0000 0.21815  0.11477  0.13366  Biso   1.000  Cd
  N1       1.0000 0.24740  0.17230  0.91200  Biso   1.000  N
  N2       1.0000 0.23440  0.17040  0.35300  Biso   1.000  N
  N3       1.0000 0.17180  0.04890  0.33700  Biso   1.000  N
  N4       1.0000 0.37450  0.08300  0.12900  Biso   1.000  N
  N5       1.0000 0.17960  0.05810  0.90300  Biso   1.000  N
  N6       1.0000 0.05250  0.12780  0.08100  Biso   1.000  N
  C1       1.0000 0.24650  0.20120  0.80400  Biso   1.000  C
  C2       1.0000 0.23850  0.20120  0.45800  Biso   1.000  C
  C3       1.0000 0.10760  0.03000  0.40200  Biso   1.000  C
  C4       1.0000 0.42360  0.05200  0.08000  Biso   1.000  C
  C5       1.0000 0.07700  0.06030  0.87400  Biso   1.000  C
  C6       1.0000 0.02300  0.09580  0.93900  Biso   1.000  C
  C7       1.0000 0.91370  0.09730  0.89600  Biso   1.000  C
  Cd2      1.0000 0.28185  0.88523  0.63366  Biso   1.000  Cd
  N7       1.0000 0.25260  0.82770  0.41200  Biso   1.000  N
  N8       1.0000 0.26560  0.82960  0.85300  Biso   1.000  N
  N9       1.0000 0.32820  0.95110  0.83700  Biso   1.000  N
  N10      1.0000 0.12550  0.91700  0.62900  Biso   1.000  N
  N11      1.0000 0.32040  0.94190  0.40300  Biso   1.000  N
  N12      1.0000 0.44750  0.87220  0.58100  Biso   1.000  N
  C8       1.0000 0.25350  0.79880  0.30400  Biso   1.000  C
  C9       1.0000 0.26150  0.79880  0.95800  Biso   1.000  C
  C10      1.0000 0.39240  0.97000  0.90200  Biso   1.000  C
  C11      1.0000 0.07640  0.94800  0.58000  Biso   1.000  C
  C12      1.0000 0.42300  0.93970  0.37400  Biso   1.000  C
  C13      1.0000 0.47700  0.90420  0.43900  Biso   1.000  C
  C14      1.0000 0.58630  0.90270  0.39600  Biso   1.000  C
  Cd3      1.0000 0.78185  0.61477  0.86634  Biso   1.000  Cd
  N13      1.0000 0.75260  0.67230  0.08800  Biso   1.000  N
  N14      1.0000 0.76560  0.67040  0.64700  Biso   1.000  N
  N15      1.0000 0.82820  0.54890  0.66300  Biso   1.000  N
  N16      1.0000 0.62550  0.58300  0.87100  Biso   1.000  N
  N17      1.0000 0.82040  0.55810  0.09700  Biso   1.000  N
  N18      1.0000 0.94750  0.62780  0.91900  Biso   1.000  N
  C15      1.0000 0.75350  0.70120  0.19600  Biso   1.000  C
  C16      1.0000 0.76150  0.70120  0.54200  Biso   1.000  C
  C17      1.0000 0.89240  0.53000  0.59800  Biso   1.000  C
  C18      1.0000 0.57640  0.55200  0.92000  Biso   1.000  C
  C19      1.0000 0.92300  0.56030  0.12600  Biso   1.000  C
  C20      1.0000 0.97700  0.59580  0.06100  Biso   1.000  C
  C21      1.0000 0.08630  0.59730  0.10400  Biso   1.000  C
  Cd4      1.0000 0.71815  0.38523  0.36634  Biso   1.000  Cd
  N19      1.0000 0.74740  0.32770  0.58800  Biso   1.000  N
  N20      1.0000 0.73440  0.32960  0.14700  Biso   1.000  N
  N21      1.0000 0.67180  0.45110  0.16300  Biso   1.000  N
  N22      1.0000 0.87450  0.41700  0.37100  Biso   1.000  N
  N23      1.0000 0.67960  0.44190  0.59700  Biso   1.000  N
  N24      1.0000 0.55250  0.37220  0.41900  Biso   1.000  N
  C22      1.0000 0.74650  0.29880  0.69600  Biso   1.000  C
  C23      1.0000 0.73850  0.29880  0.04200  Biso   1.000  C
  C24      1.0000 0.60760  0.47000  0.09800  Biso   1.000  C
  C25      1.0000 0.92360  0.44800  0.42000  Biso   1.000  C
  C26      1.0000 0.57700  0.43970  0.62600  Biso   1.000  C
  C27      1.0000 0.52300  0.40420  0.56100  Biso   1.000  C
  C28      1.0000 0.41370  0.40270  0.60400  Biso   1.000  C
  Cd5      1.0000 0.78185  0.88523  0.86634  Biso   1.000  Cd
  N25      1.0000 0.75260  0.82770  0.08800  Biso   1.000  N
  N26      1.0000 0.76560  0.82960  0.64700  Biso   1.000  N
  N27      1.0000 0.82820  0.95110  0.66300  Biso   1.000  N
  N28      1.0000 0.62550  0.91700  0.87100  Biso   1.000  N
  N29      1.0000 0.82040  0.94190  0.09700  Biso   1.000  N
  N30      1.0000 0.94750  0.87220  0.91900  Biso   1.000  N
  C29      1.0000 0.75350  0.79880  0.19600  Biso   1.000  C
  C30      1.0000 0.76150  0.79880  0.54200  Biso   1.000  C
  C31      1.0000 0.89240  0.97000  0.59800  Biso   1.000  C
  C32      1.0000 0.57640  0.94800  0.92000  Biso   1.000  C
  C33      1.0000 0.92300  0.93970  0.12600  Biso   1.000  C
  C34      1.0000 0.97700  0.90420  0.06100  Biso   1.000  C
  C35      1.0000 0.08630  0.90270  0.10400  Biso   1.000  C
  Cd6      1.0000 0.71815  0.11477  0.36634  Biso   1.000  Cd
  N31      1.0000 0.74740  0.17230  0.58800  Biso   1.000  N
  N32      1.0000 0.73440  0.17040  0.14700  Biso   1.000  N
  N33      1.0000 0.67180  0.04890  0.16300  Biso   1.000  N
  N34      1.0000 0.87450  0.08300  0.37100  Biso   1.000  N
  N35      1.0000 0.67960  0.05810  0.59700  Biso   1.000  N
  N36      1.0000 0.55250  0.12780  0.41900  Biso   1.000  N
  C36      1.0000 0.74650  0.20120  0.69600  Biso   1.000  C
  C37      1.0000 0.73850  0.20120  0.04200  Biso   1.000  C
  C38      1.0000 0.60760  0.03000  0.09800  Biso   1.000  C
  C39      1.0000 0.92360  0.05200  0.42000  Biso   1.000  C
  C40      1.0000 0.57700  0.06030  0.62600  Biso   1.000  C
  C41      1.0000 0.52300  0.09580  0.56100  Biso   1.000  C
  C42      1.0000 0.41370  0.09730  0.60400  Biso   1.000  C
  Cd7      1.0000 0.21815  0.38523  0.13366  Biso   1.000  Cd
  N37      1.0000 0.24740  0.32770  0.91200  Biso   1.000  N
  N38      1.0000 0.23440  0.32960  0.35300  Biso   1.000  N
  N39      1.0000 0.17180  0.45110  0.33700  Biso   1.000  N
  N40      1.0000 0.37450  0.41700  0.12900  Biso   1.000  N
  N41      1.0000 0.17960  0.44190  0.90300  Biso   1.000  N
  N42      1.0000 0.05250  0.37220  0.08100  Biso   1.000  N
  C43      1.0000 0.24650  0.29880  0.80400  Biso   1.000  C
  C44      1.0000 0.23850  0.29880  0.45800  Biso   1.000  C
  C45      1.0000 0.10760  0.47000  0.40200  Biso   1.000  C
  C46      1.0000 0.42360  0.44800  0.08000  Biso   1.000  C
  C47      1.0000 0.07700  0.43970  0.87400  Biso   1.000  C
  C48      1.0000 0.02300  0.40420  0.93900  Biso   1.000  C
  C49      1.0000 0.91370  0.40270  0.89600  Biso   1.000  C
  Cd8      1.0000 0.28185  0.61477  0.63366  Biso   1.000  Cd
  N43      1.0000 0.25260  0.67230  0.41200  Biso   1.000  N
  N44      1.0000 0.26560  0.67040  0.85300  Biso   1.000  N
  N45      1.0000 0.32820  0.54890  0.83700  Biso   1.000  N
  N46      1.0000 0.12550  0.58300  0.62900  Biso   1.000  N
  N47      1.0000 0.32040  0.55810  0.40300  Biso   1.000  N
  N48      1.0000 0.44750  0.62780  0.58100  Biso   1.000  N
  C50      1.0000 0.25350  0.70120  0.30400  Biso   1.000  C
  C51      1.0000 0.26150  0.70120  0.95800  Biso   1.000  C
  C52      1.0000 0.39240  0.53000  0.90200  Biso   1.000  C
  C53      1.0000 0.07640  0.55200  0.58000  Biso   1.000  C
  C54      1.0000 0.42300  0.56030  0.37400  Biso   1.000  C
  C55      1.0000 0.47700  0.59580  0.43900  Biso   1.000  C
  C56      1.0000 0.58630  0.59730  0.39600  Biso   1.000  C
  Ni1      1.0000 0.24360  0.25000  0.62910  Biso   1.000  Ni
  Ni2      1.0000 0.25640  0.75000  0.12910  Biso   1.000  Ni
  Ni3      1.0000 0.75640  0.75000  0.37090  Biso   1.000  Ni
  Ni4      1.0000 0.74360  0.25000  0.87090  Biso   1.000  Ni
  Ni5      1.0000 0.00000  0.00000  0.50000  Biso   1.000  Ni
  Ni6      1.0000 0.50000  0.00000  0.00000  Biso   1.000  Ni
  Ni7      1.0000 0.00000  0.50000  0.50000  Biso   1.000  Ni
  Ni8      1.0000 0.50000  0.50000  0.00000  Biso   1.000  Ni
