data_KEXFAU_clean
_audit_creation_date              2014-07-02
_audit_creation_method            'Materials Studio'
_symmetry_space_group_name_H-M    'P1'
_symmetry_Int_Tables_number       1
_symmetry_cell_setting            triclinic
loop_
_symmetry_equiv_pos_as_xyz
  x,y,z
_cell_length_a                    9.0870
_cell_length_b                    14.9997
_cell_length_c                    17.2390
_cell_angle_alpha                 105.3060
_cell_angle_beta                  90.0000
_cell_angle_gamma                 107.6320
loop_
_atom_site_label
_atom_site_type_symbol
_atom_site_fract_x
_atom_site_fract_y
_atom_site_fract_z
_atom_site_U_iso_or_equiv
_atom_site_adp_type
_atom_site_occupancy
Cd1    Cd    0.00000   0.00000   0.00000   0.01267  Uiso   1.00
Cd2    Cd    0.00000   0.00000   0.50000   0.01267  Uiso   1.00
Ni1    Ni    0.34254   0.00000   0.75000   0.01267  Uiso   1.00
Ni2    Ni    0.65746   0.00000   0.25000   0.01267  Uiso   1.00
H1     H     0.04400   0.84800   0.04900   0.01267  Uiso   1.00
H2     H     0.17900   0.91600   0.06500   0.01267  Uiso   1.00
H3     H     0.23800   0.86000   0.94100   0.01267  Uiso   1.00
H4     H     0.21500   0.78800   0.99400   0.01267  Uiso   1.00
H5     H     0.99000   0.77400   0.87600   0.01267  Uiso   1.00
H6     H     0.96500   0.71600   0.94000   0.01267  Uiso   1.00
H7     H     0.15700   0.69400   0.81800   0.01267  Uiso   1.00
H8     H     0.15200   0.64200   0.88000   0.01267  Uiso   1.00
H9     H     0.89700   0.55800   0.83000   0.01267  Uiso   1.00
H10    H     0.91200   0.61200   0.76300   0.01267  Uiso   1.00
H11    H     0.08900   0.53000   0.70900   0.01267  Uiso   1.00
H12    H     0.05900   0.47800   0.77100   0.01267  Uiso   1.00
H13    H     0.83400   0.44800   0.65600   0.01267  Uiso   1.00
H14    H     0.80600   0.39800   0.72400   0.01267  Uiso   1.00
H15    H     0.97900   0.31000   0.66900   0.01267  Uiso   1.00
H16    H     0.01100   0.36400   0.61000   0.01267  Uiso   1.00
H17    H     0.72100   0.23600   0.60700   0.01267  Uiso   1.00
H18    H     0.76200   0.30000   0.53900   0.01267  Uiso   1.00
H19    H     0.76600   0.14000   0.48000   0.01267  Uiso   1.00
H20    H     0.93600   0.20800   0.48900   0.01267  Uiso   1.00
H21    H     0.94600   0.15000   0.60600   0.01267  Uiso   1.00
H22    H     0.79800   0.08800   0.58000   0.01267  Uiso   1.00
H23    H     0.19600   0.15200   0.45100   0.01267  Uiso   1.00
H24    H     0.26300   0.08400   0.43500   0.01267  Uiso   1.00
H25    H     0.37800   0.14000   0.55900   0.01267  Uiso   1.00
H26    H     0.42700   0.21200   0.50600   0.01267  Uiso   1.00
H27    H     0.21600   0.22600   0.62400   0.01267  Uiso   1.00
H28    H     0.24900   0.28400   0.56000   0.01267  Uiso   1.00
H29    H     0.46300   0.30600   0.68200   0.01267  Uiso   1.00
H30    H     0.51000   0.35800   0.62000   0.01267  Uiso   1.00
H31    H     0.33900   0.44200   0.67000   0.01267  Uiso   1.00
H32    H     0.30000   0.38800   0.73700   0.01267  Uiso   1.00
H33    H     0.55900   0.47000   0.79100   0.01267  Uiso   1.00
H34    H     0.58100   0.52200   0.72900   0.01267  Uiso   1.00
H35    H     0.38600   0.55200   0.84400   0.01267  Uiso   1.00
H36    H     0.40800   0.60200   0.77600   0.01267  Uiso   1.00
H37    H     0.66900   0.69000   0.83100   0.01267  Uiso   1.00
H38    H     0.64700   0.63600   0.89000   0.01267  Uiso   1.00
H39    H     0.48500   0.76400   0.89300   0.01267  Uiso   1.00
H40    H     0.46200   0.70000   0.96100   0.01267  Uiso   1.00
H41    H     0.62600   0.86000   0.02000   0.01267  Uiso   1.00
H42    H     0.72800   0.79200   0.01100   0.01267  Uiso   1.00
H43    H     0.79600   0.85000   0.89400   0.01267  Uiso   1.00
H44    H     0.71000   0.91200   0.92000   0.01267  Uiso   1.00
H45    H     0.95600   0.15200   0.95100   0.01267  Uiso   1.00
H46    H     0.82100   0.08400   0.93500   0.01267  Uiso   1.00
H47    H     0.76200   0.14000   0.05900   0.01267  Uiso   1.00
H48    H     0.78500   0.21200   0.00600   0.01267  Uiso   1.00
H49    H     0.01000   0.22600   0.12400   0.01267  Uiso   1.00
H50    H     0.03500   0.28400   0.06000   0.01267  Uiso   1.00
H51    H     0.84300   0.30600   0.18200   0.01267  Uiso   1.00
H52    H     0.84800   0.35800   0.12000   0.01267  Uiso   1.00
H53    H     0.10300   0.44200   0.17000   0.01267  Uiso   1.00
H54    H     0.08800   0.38800   0.23700   0.01267  Uiso   1.00
H55    H     0.91100   0.47000   0.29100   0.01267  Uiso   1.00
H56    H     0.94100   0.52200   0.22900   0.01267  Uiso   1.00
H57    H     0.16600   0.55200   0.34400   0.01267  Uiso   1.00
H58    H     0.19400   0.60200   0.27600   0.01267  Uiso   1.00
H59    H     0.02100   0.69000   0.33100   0.01267  Uiso   1.00
H60    H     0.98900   0.63600   0.39000   0.01267  Uiso   1.00
H61    H     0.27900   0.76400   0.39300   0.01267  Uiso   1.00
H62    H     0.23800   0.70000   0.46100   0.01267  Uiso   1.00
H63    H     0.23400   0.86000   0.52000   0.01267  Uiso   1.00
H64    H     0.06400   0.79200   0.51100   0.01267  Uiso   1.00
H65    H     0.05400   0.85000   0.39400   0.01267  Uiso   1.00
H66    H     0.20200   0.91200   0.42000   0.01267  Uiso   1.00
H67    H     0.80400   0.84800   0.54900   0.01267  Uiso   1.00
H68    H     0.73700   0.91600   0.56500   0.01267  Uiso   1.00
H69    H     0.62200   0.86000   0.44100   0.01267  Uiso   1.00
H70    H     0.57300   0.78800   0.49400   0.01267  Uiso   1.00
H71    H     0.78400   0.77400   0.37600   0.01267  Uiso   1.00
H72    H     0.75100   0.71600   0.44000   0.01267  Uiso   1.00
H73    H     0.53700   0.69400   0.31800   0.01267  Uiso   1.00
H74    H     0.49000   0.64200   0.38000   0.01267  Uiso   1.00
H75    H     0.66100   0.55800   0.33000   0.01267  Uiso   1.00
H76    H     0.70000   0.61200   0.26300   0.01267  Uiso   1.00
H77    H     0.44100   0.53000   0.20900   0.01267  Uiso   1.00
H78    H     0.41900   0.47800   0.27100   0.01267  Uiso   1.00
H79    H     0.61400   0.44800   0.15600   0.01267  Uiso   1.00
H80    H     0.59200   0.39800   0.22400   0.01267  Uiso   1.00
H81    H     0.33100   0.31000   0.16900   0.01267  Uiso   1.00
H82    H     0.35300   0.36400   0.11000   0.01267  Uiso   1.00
H83    H     0.51500   0.23600   0.10700   0.01267  Uiso   1.00
H84    H     0.53800   0.30000   0.03900   0.01267  Uiso   1.00
H85    H     0.37400   0.14000   0.98000   0.01267  Uiso   1.00
H86    H     0.27200   0.20800   0.98900   0.01267  Uiso   1.00
H87    H     0.20400   0.15000   0.10600   0.01267  Uiso   1.00
H88    H     0.29000   0.08800   0.08000   0.01267  Uiso   1.00
C1     C     0.16710   0.81980   0.96720   0.01267  Uiso   1.00
C2     C     0.03920   0.74280   0.90860   0.01267  Uiso   1.00
C3     C     0.09340   0.66520   0.85160   0.01267  Uiso   1.00
C4     C     0.96260   0.58320   0.79800   0.01267  Uiso   1.00
C5     C     0.01400   0.50380   0.74220   0.01267  Uiso   1.00
C6     C     0.88110   0.42320   0.68880   0.01267  Uiso   1.00
C7     C     0.92950   0.34100   0.63430   0.01267  Uiso   1.00
C8     C     0.79990   0.26500   0.57520   0.01267  Uiso   1.00
C9     C     0.84850   0.18260   0.52130   0.01267  Uiso   1.00
C10    C     0.19570   0.99320   0.82550   0.01267  Uiso   1.00
C11    C     0.48500   0.99320   0.82360   0.01267  Uiso   1.00
C12    C     0.34730   0.18020   0.53280   0.01267  Uiso   1.00
C13    C     0.29640   0.25720   0.59140   0.01267  Uiso   1.00
C14    C     0.42820   0.33480   0.64840   0.01267  Uiso   1.00
C15    C     0.37940   0.41680   0.70200   0.01267  Uiso   1.00
C16    C     0.51020   0.49620   0.75780   0.01267  Uiso   1.00
C17    C     0.45790   0.57680   0.81120   0.01267  Uiso   1.00
C18    C     0.58850   0.65900   0.86570   0.01267  Uiso   1.00
C19    C     0.53490   0.73500   0.92480   0.01267  Uiso   1.00
C20    C     0.66590   0.81740   0.97870   0.01267  Uiso   1.00
C21    C     0.20250   0.00680   0.67450   0.01267  Uiso   1.00
C22    C     0.49180   0.00680   0.67640   0.01267  Uiso   1.00
C23    C     0.83290   0.18020   0.03280   0.01267  Uiso   1.00
C24    C     0.96080   0.25720   0.09140   0.01267  Uiso   1.00
C25    C     0.90660   0.33480   0.14840   0.01267  Uiso   1.00
C26    C     0.03740   0.41680   0.20200   0.01267  Uiso   1.00
C27    C     0.98600   0.49620   0.25780   0.01267  Uiso   1.00
C28    C     0.11890   0.57680   0.31120   0.01267  Uiso   1.00
C29    C     0.07050   0.65900   0.36570   0.01267  Uiso   1.00
C30    C     0.20010   0.73500   0.42480   0.01267  Uiso   1.00
C31    C     0.15150   0.81740   0.47870   0.01267  Uiso   1.00
C32    C     0.80430   0.00680   0.17450   0.01267  Uiso   1.00
C33    C     0.51500   0.00680   0.17640   0.01267  Uiso   1.00
C34    C     0.65270   0.81980   0.46720   0.01267  Uiso   1.00
C35    C     0.70360   0.74280   0.40860   0.01267  Uiso   1.00
C36    C     0.57180   0.66520   0.35160   0.01267  Uiso   1.00
C37    C     0.62060   0.58320   0.29800   0.01267  Uiso   1.00
C38    C     0.48980   0.50380   0.24220   0.01267  Uiso   1.00
C39    C     0.54210   0.42320   0.18880   0.01267  Uiso   1.00
C40    C     0.41150   0.34100   0.13430   0.01267  Uiso   1.00
C41    C     0.46510   0.26500   0.07520   0.01267  Uiso   1.00
C42    C     0.33410   0.18260   0.02130   0.01267  Uiso   1.00
C43    C     0.79750   0.99320   0.32550   0.01267  Uiso   1.00
C44    C     0.50820   0.99320   0.32360   0.01267  Uiso   1.00
N1     N     0.10550   0.88540   0.02840   0.01267  Uiso   1.00
N2     N     0.88520   0.11860   0.56360   0.01267  Uiso   1.00
N3     N     0.10690   0.98880   0.87210   0.01267  Uiso   1.00
N4     N     0.57670   0.99040   0.86790   0.01267  Uiso   1.00
N5     N     0.22010   0.11460   0.47160   0.01267  Uiso   1.00
N6     N     0.76660   0.88140   0.93640   0.01267  Uiso   1.00
N7     N     0.11810   0.01120   0.62790   0.01267  Uiso   1.00
N8     N     0.58630   0.00960   0.63210   0.01267  Uiso   1.00
N9     N     0.89450   0.11460   0.97160   0.01267  Uiso   1.00
N10    N     0.11480   0.88140   0.43640   0.01267  Uiso   1.00
N11    N     0.89310   0.01120   0.12790   0.01267  Uiso   1.00
N12    N     0.42330   0.00960   0.13210   0.01267  Uiso   1.00
N13    N     0.77990   0.88540   0.52840   0.01267  Uiso   1.00
N14    N     0.23340   0.11860   0.06360   0.01267  Uiso   1.00
N15    N     0.88190   0.98880   0.37210   0.01267  Uiso   1.00
N16    N     0.41370   0.99040   0.36790   0.01267  Uiso   1.00
