data_image0
_cell_length_a       13.916
_cell_length_b       26.638
_cell_length_c       7.631
_cell_angle_alpha    90
_cell_angle_beta     90
_cell_angle_gamma    90

_symmetry_space_group_name_H-M    "P 1"
_symmetry_int_tables_number       1

loop_
  _symmetry_equiv_pos_as_xyz
  'x, y, z'

loop_
  _atom_site_label
  _atom_site_occupancy
  _atom_site_fract_x
  _atom_site_fract_y
  _atom_site_fract_z
  _atom_site_thermal_displace_type
  _atom_site_B_iso_or_equiv
  _atom_site_type_symbol
  Cd1      1.0000 0.21820  0.11477  0.13364  Biso   1.000  Cd
  N1       1.0000 0.24740  0.17220  0.91340  Biso   1.000  N
  N2       1.0000 0.23440  0.17030  0.35270  Biso   1.000  N
  N3       1.0000 0.17230  0.04890  0.33910  Biso   1.000  N
  N4       1.0000 0.37380  0.08290  0.12770  Biso   1.000  N
  N5       1.0000 0.17900  0.05770  0.90430  Biso   1.000  N
  N6       1.0000 0.05310  0.12780  0.08150  Biso   1.000  N
  C1       1.0000 0.24630  0.20120  0.80400  Biso   1.000  C
  C2       1.0000 0.23860  0.20060  0.45850  Biso   1.000  C
  C3       1.0000 0.10740  0.02990  0.40170  Biso   1.000  C
  C4       1.0000 0.42370  0.05200  0.07990  Biso   1.000  C
  C5       1.0000 0.07660  0.05900  0.88140  Biso   1.000  C
  C6       1.0000 0.02170  0.09500  0.94460  Biso   1.000  C
  C7       1.0000 0.91390  0.09720  0.89660  Biso   1.000  C
  Cd2      1.0000 0.28180  0.88523  0.63364  Biso   1.000  Cd
  N7       1.0000 0.25260  0.82780  0.41340  Biso   1.000  N
  N8       1.0000 0.26560  0.82970  0.85270  Biso   1.000  N
  N9       1.0000 0.32770  0.95110  0.83910  Biso   1.000  N
  N10      1.0000 0.12620  0.91710  0.62770  Biso   1.000  N
  N11      1.0000 0.32100  0.94230  0.40430  Biso   1.000  N
  N12      1.0000 0.44690  0.87220  0.58150  Biso   1.000  N
  C8       1.0000 0.25370  0.79880  0.30400  Biso   1.000  C
  C9       1.0000 0.26140  0.79940  0.95850  Biso   1.000  C
  C10      1.0000 0.39260  0.97010  0.90170  Biso   1.000  C
  C11      1.0000 0.07630  0.94800  0.57990  Biso   1.000  C
  C12      1.0000 0.42340  0.94100  0.38140  Biso   1.000  C
  C13      1.0000 0.47830  0.90500  0.44460  Biso   1.000  C
  C14      1.0000 0.58610  0.90280  0.39660  Biso   1.000  C
  Cd3      1.0000 0.78180  0.61477  0.86636  Biso   1.000  Cd
  N13      1.0000 0.75260  0.67220  0.08660  Biso   1.000  N
  N14      1.0000 0.76560  0.67030  0.64730  Biso   1.000  N
  N15      1.0000 0.82770  0.54890  0.66090  Biso   1.000  N
  N16      1.0000 0.62620  0.58290  0.87230  Biso   1.000  N
  N17      1.0000 0.82100  0.55770  0.09570  Biso   1.000  N
  N18      1.0000 0.94690  0.62780  0.91850  Biso   1.000  N
  C15      1.0000 0.75370  0.70120  0.19600  Biso   1.000  C
  C16      1.0000 0.76140  0.70060  0.54150  Biso   1.000  C
  C17      1.0000 0.89260  0.52990  0.59830  Biso   1.000  C
  C18      1.0000 0.57630  0.55200  0.92010  Biso   1.000  C
  C19      1.0000 0.92340  0.55900  0.11860  Biso   1.000  C
  C20      1.0000 0.97830  0.59500  0.05540  Biso   1.000  C
  C21      1.0000 0.08610  0.59720  0.10340  Biso   1.000  C
  Cd4      1.0000 0.71820  0.38523  0.36636  Biso   1.000  Cd
  N19      1.0000 0.74740  0.32780  0.58660  Biso   1.000  N
  N20      1.0000 0.73440  0.32970  0.14730  Biso   1.000  N
  N21      1.0000 0.67230  0.45110  0.16090  Biso   1.000  N
  N22      1.0000 0.87380  0.41710  0.37230  Biso   1.000  N
  N23      1.0000 0.67900  0.44230  0.59570  Biso   1.000  N
  N24      1.0000 0.55310  0.37220  0.41850  Biso   1.000  N
  C22      1.0000 0.74630  0.29880  0.69600  Biso   1.000  C
  C23      1.0000 0.73860  0.29940  0.04150  Biso   1.000  C
  C24      1.0000 0.60740  0.47010  0.09830  Biso   1.000  C
  C25      1.0000 0.92370  0.44800  0.42010  Biso   1.000  C
  C26      1.0000 0.57660  0.44100  0.61860  Biso   1.000  C
  C27      1.0000 0.52170  0.40500  0.55540  Biso   1.000  C
  C28      1.0000 0.41390  0.40280  0.60340  Biso   1.000  C
  Cd5      1.0000 0.78180  0.88523  0.86636  Biso   1.000  Cd
  N25      1.0000 0.75260  0.82780  0.08660  Biso   1.000  N
  N26      1.0000 0.76560  0.82970  0.64730  Biso   1.000  N
  N27      1.0000 0.82770  0.95110  0.66090  Biso   1.000  N
  N28      1.0000 0.62620  0.91710  0.87230  Biso   1.000  N
  N29      1.0000 0.82100  0.94230  0.09570  Biso   1.000  N
  N30      1.0000 0.94690  0.87220  0.91850  Biso   1.000  N
  C29      1.0000 0.75370  0.79880  0.19600  Biso   1.000  C
  C30      1.0000 0.76140  0.79940  0.54150  Biso   1.000  C
  C31      1.0000 0.89260  0.97010  0.59830  Biso   1.000  C
  C32      1.0000 0.57630  0.94800  0.92010  Biso   1.000  C
  C33      1.0000 0.92340  0.94100  0.11860  Biso   1.000  C
  C34      1.0000 0.97830  0.90500  0.05540  Biso   1.000  C
  C35      1.0000 0.08610  0.90280  0.10340  Biso   1.000  C
  Cd6      1.0000 0.71820  0.11477  0.36636  Biso   1.000  Cd
  N31      1.0000 0.74740  0.17220  0.58660  Biso   1.000  N
  N32      1.0000 0.73440  0.17030  0.14730  Biso   1.000  N
  N33      1.0000 0.67230  0.04890  0.16090  Biso   1.000  N
  N34      1.0000 0.87380  0.08290  0.37230  Biso   1.000  N
  N35      1.0000 0.67900  0.05770  0.59570  Biso   1.000  N
  N36      1.0000 0.55310  0.12780  0.41850  Biso   1.000  N
  C36      1.0000 0.74630  0.20120  0.69600  Biso   1.000  C
  C37      1.0000 0.73860  0.20060  0.04150  Biso   1.000  C
  C38      1.0000 0.60740  0.02990  0.09830  Biso   1.000  C
  C39      1.0000 0.92370  0.05200  0.42010  Biso   1.000  C
  C40      1.0000 0.57660  0.05900  0.61860  Biso   1.000  C
  C41      1.0000 0.52170  0.09500  0.55540  Biso   1.000  C
  C42      1.0000 0.41390  0.09720  0.60340  Biso   1.000  C
  Cd7      1.0000 0.21820  0.38523  0.13364  Biso   1.000  Cd
  N37      1.0000 0.24740  0.32780  0.91340  Biso   1.000  N
  N38      1.0000 0.23440  0.32970  0.35270  Biso   1.000  N
  N39      1.0000 0.17230  0.45110  0.33910  Biso   1.000  N
  N40      1.0000 0.37380  0.41710  0.12770  Biso   1.000  N
  N41      1.0000 0.17900  0.44230  0.90430  Biso   1.000  N
  N42      1.0000 0.05310  0.37220  0.08150  Biso   1.000  N
  C43      1.0000 0.24630  0.29880  0.80400  Biso   1.000  C
  C44      1.0000 0.23860  0.29940  0.45850  Biso   1.000  C
  C45      1.0000 0.10740  0.47010  0.40170  Biso   1.000  C
  C46      1.0000 0.42370  0.44800  0.07990  Biso   1.000  C
  C47      1.0000 0.07660  0.44100  0.88140  Biso   1.000  C
  C48      1.0000 0.02170  0.40500  0.94460  Biso   1.000  C
  C49      1.0000 0.91390  0.40280  0.89660  Biso   1.000  C
  Cd8      1.0000 0.28180  0.61477  0.63364  Biso   1.000  Cd
  N43      1.0000 0.25260  0.67220  0.41340  Biso   1.000  N
  N44      1.0000 0.26560  0.67030  0.85270  Biso   1.000  N
  N45      1.0000 0.32770  0.54890  0.83910  Biso   1.000  N
  N46      1.0000 0.12620  0.58290  0.62770  Biso   1.000  N
  N47      1.0000 0.32100  0.55770  0.40430  Biso   1.000  N
  N48      1.0000 0.44690  0.62780  0.58150  Biso   1.000  N
  C50      1.0000 0.25370  0.70120  0.30400  Biso   1.000  C
  C51      1.0000 0.26140  0.70060  0.95850  Biso   1.000  C
  C52      1.0000 0.39260  0.52990  0.90170  Biso   1.000  C
  C53      1.0000 0.07630  0.55200  0.57990  Biso   1.000  C
  C54      1.0000 0.42340  0.55900  0.38140  Biso   1.000  C
  C55      1.0000 0.47830  0.59500  0.44460  Biso   1.000  C
  C56      1.0000 0.58610  0.59720  0.39660  Biso   1.000  C
  Ni1      1.0000 0.24367  0.25000  0.62910  Biso   1.000  Ni
  Ni2      1.0000 0.25633  0.75000  0.12910  Biso   1.000  Ni
  Ni3      1.0000 0.75633  0.75000  0.37090  Biso   1.000  Ni
  Ni4      1.0000 0.74367  0.25000  0.87090  Biso   1.000  Ni
  Ni5      1.0000 0.00000  0.00000  0.50000  Biso   1.000  Ni
  Ni6      1.0000 0.50000  0.00000  0.00000  Biso   1.000  Ni
  Ni7      1.0000 0.00000  0.50000  0.50000  Biso   1.000  Ni
  Ni8      1.0000 0.50000  0.50000  0.00000  Biso   1.000  Ni
