data_image0
_cell_length_a       26.956
_cell_length_b       26.956
_cell_length_c       6.965
_cell_angle_alpha    90
_cell_angle_beta     90
_cell_angle_gamma    120

_symmetry_space_group_name_H-M    "P 1"
_symmetry_int_tables_number       1

loop_
  _symmetry_equiv_pos_as_xyz
  'x, y, z'

loop_
  _atom_site_label
  _atom_site_occupancy
  _atom_site_fract_x
  _atom_site_fract_y
  _atom_site_fract_z
  _atom_site_thermal_displace_type
  _atom_site_B_iso_or_equiv
  _atom_site_type_symbol
  Cu1      1.0000 0.79043  0.67912  0.07219  Biso   1.000  Cu
  O1       1.0000 0.82151  0.62811  0.04260  Biso   1.000  O
  O2       1.0000 0.76300  0.73310  0.08070  Biso   1.000  O
  O3       1.0000 0.72050  0.77060  0.91470  Biso   1.000  O
  N1       1.0000 0.75960  0.66470  0.81660  Biso   1.000  N
  C1       1.0000 0.77930  0.58960  0.73430  Biso   1.000  C
  C2       1.0000 0.80670  0.58820  0.90660  Biso   1.000  C
  C3       1.0000 0.81890  0.54380  0.92770  Biso   1.000  C
  H1       1.0000 0.83530  0.54100  0.04150  Biso   1.000  H
  C4       1.0000 0.80720  0.50440  0.78480  Biso   1.000  C
  H2       1.0000 0.81570  0.47530  0.80350  Biso   1.000  H
  C5       1.0000 0.78300  0.50740  0.61420  Biso   1.000  C
  H3       1.0000 0.77670  0.48140  0.51610  Biso   1.000  H
  C6       1.0000 0.76860  0.54870  0.59030  Biso   1.000  C
  H4       1.0000 0.75130  0.55000  0.47640  Biso   1.000  H
  C7       1.0000 0.75900  0.62860  0.69690  Biso   1.000  C
  H5       1.0000 0.74420  0.62750  0.57550  Biso   1.000  H
  C8       1.0000 0.73620  0.70120  0.76140  Biso   1.000  C
  H6       1.0000 0.69650  0.67770  0.72250  Biso   1.000  H
  H7       1.0000 0.75760  0.72520  0.65370  Biso   1.000  H
  C9       1.0000 0.74020  0.73810  0.92980  Biso   1.000  C
  Cu2      1.0000 0.45710  0.01245  0.40552  Biso   1.000  Cu
  O4       1.0000 0.48818  0.96144  0.37593  Biso   1.000  O
  O5       1.0000 0.42967  0.06643  0.41403  Biso   1.000  O
  O6       1.0000 0.38717  0.10393  0.24803  Biso   1.000  O
  N2       1.0000 0.42627  0.99803  0.14993  Biso   1.000  N
  C10      1.0000 0.44597  0.92293  0.06763  Biso   1.000  C
  C11      1.0000 0.47337  0.92153  0.23993  Biso   1.000  C
  C12      1.0000 0.48557  0.87713  0.26103  Biso   1.000  C
  H8       1.0000 0.50197  0.87433  0.37483  Biso   1.000  H
  C13      1.0000 0.47387  0.83773  0.11813  Biso   1.000  C
  H9       1.0000 0.48237  0.80863  0.13683  Biso   1.000  H
  C14      1.0000 0.44967  0.84073  0.94753  Biso   1.000  C
  H10      1.0000 0.44337  0.81473  0.84943  Biso   1.000  H
  C15      1.0000 0.43527  0.88203  0.92363  Biso   1.000  C
  H11      1.0000 0.41797  0.88333  0.80973  Biso   1.000  H
  C16      1.0000 0.42567  0.96193  0.03023  Biso   1.000  C
  H12      1.0000 0.41087  0.96083  0.90883  Biso   1.000  H
  C17      1.0000 0.40287  0.03453  0.09473  Biso   1.000  C
  H13      1.0000 0.36317  0.01103  0.05583  Biso   1.000  H
  H14      1.0000 0.42427  0.05853  0.98703  Biso   1.000  H
  C18      1.0000 0.40687  0.07143  0.26313  Biso   1.000  C
  Cu3      1.0000 0.12376  0.34579  0.73886  Biso   1.000  Cu
  O7       1.0000 0.15484  0.29478  0.70927  Biso   1.000  O
  O8       1.0000 0.09633  0.39977  0.74737  Biso   1.000  O
  O9       1.0000 0.05383  0.43727  0.58137  Biso   1.000  O
  N3       1.0000 0.09293  0.33137  0.48327  Biso   1.000  N
  C19      1.0000 0.11263  0.25627  0.40097  Biso   1.000  C
  C20      1.0000 0.14003  0.25487  0.57327  Biso   1.000  C
  C21      1.0000 0.15223  0.21047  0.59437  Biso   1.000  C
  H15      1.0000 0.16863  0.20767  0.70817  Biso   1.000  H
  C22      1.0000 0.14053  0.17107  0.45147  Biso   1.000  C
  H16      1.0000 0.14903  0.14197  0.47017  Biso   1.000  H
  C23      1.0000 0.11633  0.17407  0.28087  Biso   1.000  C
  H17      1.0000 0.11003  0.14807  0.18277  Biso   1.000  H
  C24      1.0000 0.10193  0.21537  0.25697  Biso   1.000  C
  H18      1.0000 0.08463  0.21667  0.14307  Biso   1.000  H
  C25      1.0000 0.09233  0.29527  0.36357  Biso   1.000  C
  H19      1.0000 0.07753  0.29417  0.24217  Biso   1.000  H
  C26      1.0000 0.06953  0.36787  0.42807  Biso   1.000  C
  H20      1.0000 0.02983  0.34437  0.38917  Biso   1.000  H
  H21      1.0000 0.09093  0.39187  0.32037  Biso   1.000  H
  C27      1.0000 0.07353  0.40477  0.59647  Biso   1.000  C
  Cu4      1.0000 0.32088  0.11131  0.07219  Biso   1.000  Cu
  O10      1.0000 0.37189  0.19340  0.04260  Biso   1.000  O
  O11      1.0000 0.26690  0.02990  0.08070  Biso   1.000  O
  O12      1.0000 0.22940  0.94990  0.91470  Biso   1.000  O
  N4       1.0000 0.33530  0.09490  0.81660  Biso   1.000  N
  C28      1.0000 0.41040  0.18970  0.73430  Biso   1.000  C
  C29      1.0000 0.41180  0.21850  0.90660  Biso   1.000  C
  C30      1.0000 0.45620  0.27510  0.92770  Biso   1.000  C
  H22      1.0000 0.45900  0.29430  0.04150  Biso   1.000  H
  C31      1.0000 0.49560  0.30280  0.78480  Biso   1.000  C
  H23      1.0000 0.52470  0.34040  0.80350  Biso   1.000  H
  C32      1.0000 0.49260  0.27560  0.61420  Biso   1.000  C
  H24      1.0000 0.51860  0.29530  0.51610  Biso   1.000  H
  C33      1.0000 0.45130  0.21990  0.59030  Biso   1.000  C
  H25      1.0000 0.45000  0.20130  0.47640  Biso   1.000  H
  C34      1.0000 0.37140  0.13040  0.69690  Biso   1.000  C
  H26      1.0000 0.37250  0.11670  0.57550  Biso   1.000  H
  C35      1.0000 0.29880  0.03500  0.76140  Biso   1.000  C
  H27      1.0000 0.32230  0.01880  0.72250  Biso   1.000  H
  H28      1.0000 0.27480  0.03240  0.65370  Biso   1.000  H
  C36      1.0000 0.26190  0.00210  0.92980  Biso   1.000  C
  Cu5      1.0000 0.98755  0.44464  0.40552  Biso   1.000  Cu
  O13      1.0000 0.03856  0.52673  0.37593  Biso   1.000  O
  O14      1.0000 0.93357  0.36323  0.41403  Biso   1.000  O
  O15      1.0000 0.89607  0.28323  0.24803  Biso   1.000  O
  N5       1.0000 0.00197  0.42823  0.14993  Biso   1.000  N
  C37      1.0000 0.07707  0.52303  0.06763  Biso   1.000  C
  C38      1.0000 0.07847  0.55183  0.23993  Biso   1.000  C
  C39      1.0000 0.12287  0.60843  0.26103  Biso   1.000  C
  H29      1.0000 0.12567  0.62763  0.37483  Biso   1.000  H
  C40      1.0000 0.16227  0.63613  0.11813  Biso   1.000  C
  H30      1.0000 0.19137  0.67373  0.13683  Biso   1.000  H
  C41      1.0000 0.15927  0.60893  0.94753  Biso   1.000  C
  H31      1.0000 0.18527  0.62863  0.84943  Biso   1.000  H
  C42      1.0000 0.11797  0.55323  0.92363  Biso   1.000  C
  H32      1.0000 0.11667  0.53463  0.80973  Biso   1.000  H
  C43      1.0000 0.03807  0.46373  0.03023  Biso   1.000  C
  H33      1.0000 0.03917  0.45003  0.90883  Biso   1.000  H
  C44      1.0000 0.96547  0.36833  0.09473  Biso   1.000  C
  H34      1.0000 0.98897  0.35213  0.05583  Biso   1.000  H
  H35      1.0000 0.94147  0.36573  0.98703  Biso   1.000  H
  C45      1.0000 0.92857  0.33543  0.26313  Biso   1.000  C
  Cu6      1.0000 0.65421  0.77798  0.73886  Biso   1.000  Cu
  O16      1.0000 0.70522  0.86007  0.70927  Biso   1.000  O
  O17      1.0000 0.60023  0.69657  0.74737  Biso   1.000  O
  O18      1.0000 0.56273  0.61657  0.58137  Biso   1.000  O
  N6       1.0000 0.66863  0.76157  0.48327  Biso   1.000  N
  C46      1.0000 0.74373  0.85637  0.40097  Biso   1.000  C
  C47      1.0000 0.74513  0.88517  0.57327  Biso   1.000  C
  C48      1.0000 0.78953  0.94177  0.59437  Biso   1.000  C
  H36      1.0000 0.79233  0.96097  0.70817  Biso   1.000  H
  C49      1.0000 0.82893  0.96947  0.45147  Biso   1.000  C
  H37      1.0000 0.85803  0.00707  0.47017  Biso   1.000  H
  C50      1.0000 0.82593  0.94227  0.28087  Biso   1.000  C
  H38      1.0000 0.85193  0.96197  0.18277  Biso   1.000  H
  C51      1.0000 0.78463  0.88657  0.25697  Biso   1.000  C
  H39      1.0000 0.78333  0.86797  0.14307  Biso   1.000  H
  C52      1.0000 0.70473  0.79707  0.36357  Biso   1.000  C
  H40      1.0000 0.70583  0.78337  0.24217  Biso   1.000  H
  C53      1.0000 0.63213  0.70167  0.42807  Biso   1.000  C
  H41      1.0000 0.65563  0.68547  0.38917  Biso   1.000  H
  H42      1.0000 0.60813  0.69907  0.32037  Biso   1.000  H
  C54      1.0000 0.59523  0.66877  0.59647  Biso   1.000  C
  Cu7      1.0000 0.88869  0.20957  0.07219  Biso   1.000  Cu
  O19      1.0000 0.80660  0.17849  0.04260  Biso   1.000  O
  O20      1.0000 0.97010  0.23700  0.08070  Biso   1.000  O
  O21      1.0000 0.05010  0.27950  0.91470  Biso   1.000  O
  N7       1.0000 0.90510  0.24040  0.81660  Biso   1.000  N
  C55      1.0000 0.81030  0.22070  0.73430  Biso   1.000  C
  C56      1.0000 0.78150  0.19330  0.90660  Biso   1.000  C
  C57      1.0000 0.72490  0.18110  0.92770  Biso   1.000  C
  H43      1.0000 0.70570  0.16470  0.04150  Biso   1.000  H
  C58      1.0000 0.69720  0.19280  0.78480  Biso   1.000  C
  H44      1.0000 0.65960  0.18430  0.80350  Biso   1.000  H
  C59      1.0000 0.72440  0.21700  0.61420  Biso   1.000  C
  H45      1.0000 0.70470  0.22330  0.51610  Biso   1.000  H
  C60      1.0000 0.78010  0.23140  0.59030  Biso   1.000  C
  H46      1.0000 0.79870  0.24870  0.47640  Biso   1.000  H
  C61      1.0000 0.86960  0.24100  0.69690  Biso   1.000  C
  H47      1.0000 0.88330  0.25580  0.57550  Biso   1.000  H
  C62      1.0000 0.96500  0.26380  0.76140  Biso   1.000  C
  H48      1.0000 0.98120  0.30350  0.72250  Biso   1.000  H
  H49      1.0000 0.96760  0.24240  0.65370  Biso   1.000  H
  C63      1.0000 0.99790  0.25980  0.92980  Biso   1.000  C
  Cu8      1.0000 0.55536  0.54290  0.40552  Biso   1.000  Cu
  O22      1.0000 0.47327  0.51182  0.37593  Biso   1.000  O
  O23      1.0000 0.63677  0.57033  0.41403  Biso   1.000  O
  O24      1.0000 0.71677  0.61283  0.24803  Biso   1.000  O
  N8       1.0000 0.57177  0.57373  0.14993  Biso   1.000  N
  C64      1.0000 0.47697  0.55403  0.06763  Biso   1.000  C
  C65      1.0000 0.44817  0.52663  0.23993  Biso   1.000  C
  C66      1.0000 0.39157  0.51443  0.26103  Biso   1.000  C
  H50      1.0000 0.37237  0.49803  0.37483  Biso   1.000  H
  C67      1.0000 0.36387  0.52613  0.11813  Biso   1.000  C
  H51      1.0000 0.32627  0.51763  0.13683  Biso   1.000  H
  C68      1.0000 0.39107  0.55033  0.94753  Biso   1.000  C
  H52      1.0000 0.37137  0.55663  0.84943  Biso   1.000  H
  C69      1.0000 0.44677  0.56473  0.92363  Biso   1.000  C
  H53      1.0000 0.46537  0.58203  0.80973  Biso   1.000  H
  C70      1.0000 0.53627  0.57433  0.03023  Biso   1.000  C
  H54      1.0000 0.54997  0.58913  0.90883  Biso   1.000  H
  C71      1.0000 0.63167  0.59713  0.09473  Biso   1.000  C
  H55      1.0000 0.64787  0.63683  0.05583  Biso   1.000  H
  H56      1.0000 0.63427  0.57573  0.98703  Biso   1.000  H
  C72      1.0000 0.66457  0.59313  0.26313  Biso   1.000  C
  Cu9      1.0000 0.22202  0.87624  0.73886  Biso   1.000  Cu
  O25      1.0000 0.13993  0.84516  0.70927  Biso   1.000  O
  O26      1.0000 0.30343  0.90367  0.74737  Biso   1.000  O
  O27      1.0000 0.38343  0.94617  0.58137  Biso   1.000  O
  N9       1.0000 0.23843  0.90707  0.48327  Biso   1.000  N
  C73      1.0000 0.14363  0.88737  0.40097  Biso   1.000  C
  C74      1.0000 0.11483  0.85997  0.57327  Biso   1.000  C
  C75      1.0000 0.05823  0.84777  0.59437  Biso   1.000  C
  H57      1.0000 0.03903  0.83137  0.70817  Biso   1.000  H
  C76      1.0000 0.03053  0.85947  0.45147  Biso   1.000  C
  H58      1.0000 0.99293  0.85097  0.47017  Biso   1.000  H
  C77      1.0000 0.05773  0.88367  0.28087  Biso   1.000  C
  H59      1.0000 0.03803  0.88997  0.18277  Biso   1.000  H
  C78      1.0000 0.11343  0.89807  0.25697  Biso   1.000  C
  H60      1.0000 0.13203  0.91537  0.14307  Biso   1.000  H
  C79      1.0000 0.20293  0.90767  0.36357  Biso   1.000  C
  H61      1.0000 0.21663  0.92247  0.24217  Biso   1.000  H
  C80      1.0000 0.29833  0.93047  0.42807  Biso   1.000  C
  H62      1.0000 0.31453  0.97017  0.38917  Biso   1.000  H
  H63      1.0000 0.30093  0.90907  0.32037  Biso   1.000  H
  C81      1.0000 0.33123  0.92647  0.59647  Biso   1.000  C
  Cu10     1.0000 0.20957  0.32088  0.92781  Biso   1.000  Cu
  O28      1.0000 0.17849  0.37189  0.95740  Biso   1.000  O
  O29      1.0000 0.23700  0.26690  0.91930  Biso   1.000  O
  O30      1.0000 0.27950  0.22940  0.08530  Biso   1.000  O
  N10      1.0000 0.24040  0.33530  0.18340  Biso   1.000  N
  C82      1.0000 0.22070  0.41040  0.26570  Biso   1.000  C
  C83      1.0000 0.19330  0.41180  0.09340  Biso   1.000  C
  C84      1.0000 0.18110  0.45620  0.07230  Biso   1.000  C
  H64      1.0000 0.16470  0.45900  0.95850  Biso   1.000  H
  C85      1.0000 0.19280  0.49560  0.21520  Biso   1.000  C
  H65      1.0000 0.18430  0.52470  0.19650  Biso   1.000  H
  C86      1.0000 0.21700  0.49260  0.38580  Biso   1.000  C
  H66      1.0000 0.22330  0.51860  0.48390  Biso   1.000  H
  C87      1.0000 0.23140  0.45130  0.40970  Biso   1.000  C
  H67      1.0000 0.24870  0.45000  0.52360  Biso   1.000  H
  C88      1.0000 0.24100  0.37140  0.30310  Biso   1.000  C
  H68      1.0000 0.25580  0.37250  0.42450  Biso   1.000  H
  C89      1.0000 0.26380  0.29880  0.23860  Biso   1.000  C
  H69      1.0000 0.30350  0.32230  0.27750  Biso   1.000  H
  H70      1.0000 0.24240  0.27480  0.34630  Biso   1.000  H
  C90      1.0000 0.25980  0.26190  0.07020  Biso   1.000  C
  Cu11     1.0000 0.87624  0.65421  0.26114  Biso   1.000  Cu
  O31      1.0000 0.84516  0.70522  0.29073  Biso   1.000  O
  O32      1.0000 0.90367  0.60023  0.25263  Biso   1.000  O
  O33      1.0000 0.94617  0.56273  0.41863  Biso   1.000  O
  N11      1.0000 0.90707  0.66863  0.51673  Biso   1.000  N
  C91      1.0000 0.88737  0.74373  0.59903  Biso   1.000  C
  C92      1.0000 0.85997  0.74513  0.42673  Biso   1.000  C
  C93      1.0000 0.84777  0.78953  0.40563  Biso   1.000  C
  H71      1.0000 0.83137  0.79233  0.29183  Biso   1.000  H
  C94      1.0000 0.85947  0.82893  0.54853  Biso   1.000  C
  H72      1.0000 0.85097  0.85803  0.52983  Biso   1.000  H
  C95      1.0000 0.88367  0.82593  0.71913  Biso   1.000  C
  H73      1.0000 0.88997  0.85193  0.81723  Biso   1.000  H
  C96      1.0000 0.89807  0.78463  0.74303  Biso   1.000  C
  H74      1.0000 0.91537  0.78333  0.85693  Biso   1.000  H
  C97      1.0000 0.90767  0.70473  0.63643  Biso   1.000  C
  H75      1.0000 0.92247  0.70583  0.75783  Biso   1.000  H
  C98      1.0000 0.93047  0.63213  0.57193  Biso   1.000  C
  H76      1.0000 0.97017  0.65563  0.61083  Biso   1.000  H
  H77      1.0000 0.90907  0.60813  0.67963  Biso   1.000  H
  C99      1.0000 0.92647  0.59523  0.40353  Biso   1.000  C
  Cu12     1.0000 0.54290  0.98755  0.59448  Biso   1.000  Cu
  O34      1.0000 0.51182  0.03856  0.62407  Biso   1.000  O
  O35      1.0000 0.57033  0.93357  0.58597  Biso   1.000  O
  O36      1.0000 0.61283  0.89607  0.75197  Biso   1.000  O
  N12      1.0000 0.57373  0.00197  0.85007  Biso   1.000  N
  C100     1.0000 0.55403  0.07707  0.93237  Biso   1.000  C
  C101     1.0000 0.52663  0.07847  0.76007  Biso   1.000  C
  C102     1.0000 0.51443  0.12287  0.73897  Biso   1.000  C
  H78      1.0000 0.49803  0.12567  0.62517  Biso   1.000  H
  C103     1.0000 0.52613  0.16227  0.88187  Biso   1.000  C
  H79      1.0000 0.51763  0.19137  0.86317  Biso   1.000  H
  C104     1.0000 0.55033  0.15927  0.05247  Biso   1.000  C
  H80      1.0000 0.55663  0.18527  0.15057  Biso   1.000  H
  C105     1.0000 0.56473  0.11797  0.07637  Biso   1.000  C
  H81      1.0000 0.58203  0.11667  0.19027  Biso   1.000  H
  C106     1.0000 0.57433  0.03807  0.96977  Biso   1.000  C
  H82      1.0000 0.58913  0.03917  0.09117  Biso   1.000  H
  C107     1.0000 0.59713  0.96547  0.90527  Biso   1.000  C
  H83      1.0000 0.63683  0.98897  0.94417  Biso   1.000  H
  H84      1.0000 0.57573  0.94147  0.01297  Biso   1.000  H
  C108     1.0000 0.59313  0.92857  0.73687  Biso   1.000  C
  Cu13     1.0000 0.67912  0.88869  0.92781  Biso   1.000  Cu
  O37      1.0000 0.62811  0.80660  0.95740  Biso   1.000  O
  O38      1.0000 0.73310  0.97010  0.91930  Biso   1.000  O
  O39      1.0000 0.77060  0.05010  0.08530  Biso   1.000  O
  N13      1.0000 0.66470  0.90510  0.18340  Biso   1.000  N
  C109     1.0000 0.58960  0.81030  0.26570  Biso   1.000  C
  C110     1.0000 0.58820  0.78150  0.09340  Biso   1.000  C
  C111     1.0000 0.54380  0.72490  0.07230  Biso   1.000  C
  H85      1.0000 0.54100  0.70570  0.95850  Biso   1.000  H
  C112     1.0000 0.50440  0.69720  0.21520  Biso   1.000  C
  H86      1.0000 0.47530  0.65960  0.19650  Biso   1.000  H
  C113     1.0000 0.50740  0.72440  0.38580  Biso   1.000  C
  H87      1.0000 0.48140  0.70470  0.48390  Biso   1.000  H
  C114     1.0000 0.54870  0.78010  0.40970  Biso   1.000  C
  H88      1.0000 0.55000  0.79870  0.52360  Biso   1.000  H
  C115     1.0000 0.62860  0.86960  0.30310  Biso   1.000  C
  H89      1.0000 0.62750  0.88330  0.42450  Biso   1.000  H
  C116     1.0000 0.70120  0.96500  0.23860  Biso   1.000  C
  H90      1.0000 0.67770  0.98120  0.27750  Biso   1.000  H
  H91      1.0000 0.72520  0.96760  0.34630  Biso   1.000  H
  C117     1.0000 0.73810  0.99790  0.07020  Biso   1.000  C
  Cu14     1.0000 0.34579  0.22202  0.26114  Biso   1.000  Cu
  O40      1.0000 0.29478  0.13993  0.29073  Biso   1.000  O
  O41      1.0000 0.39977  0.30343  0.25263  Biso   1.000  O
  O42      1.0000 0.43727  0.38343  0.41863  Biso   1.000  O
  N14      1.0000 0.33137  0.23843  0.51673  Biso   1.000  N
  C118     1.0000 0.25627  0.14363  0.59903  Biso   1.000  C
  C119     1.0000 0.25487  0.11483  0.42673  Biso   1.000  C
  C120     1.0000 0.21047  0.05823  0.40563  Biso   1.000  C
  H92      1.0000 0.20767  0.03903  0.29183  Biso   1.000  H
  C121     1.0000 0.17107  0.03053  0.54853  Biso   1.000  C
  H93      1.0000 0.14197  0.99293  0.52983  Biso   1.000  H
  C122     1.0000 0.17407  0.05773  0.71913  Biso   1.000  C
  H94      1.0000 0.14807  0.03803  0.81723  Biso   1.000  H
  C123     1.0000 0.21537  0.11343  0.74303  Biso   1.000  C
  H95      1.0000 0.21667  0.13203  0.85693  Biso   1.000  H
  C124     1.0000 0.29527  0.20293  0.63643  Biso   1.000  C
  H96      1.0000 0.29417  0.21663  0.75783  Biso   1.000  H
  C125     1.0000 0.36787  0.29833  0.57193  Biso   1.000  C
  H97      1.0000 0.34437  0.31453  0.61083  Biso   1.000  H
  H98      1.0000 0.39187  0.30093  0.67963  Biso   1.000  H
  C126     1.0000 0.40477  0.33123  0.40353  Biso   1.000  C
  Cu15     1.0000 0.01245  0.55536  0.59448  Biso   1.000  Cu
  O43      1.0000 0.96144  0.47327  0.62407  Biso   1.000  O
  O44      1.0000 0.06643  0.63677  0.58597  Biso   1.000  O
  O45      1.0000 0.10393  0.71677  0.75197  Biso   1.000  O
  N15      1.0000 0.99803  0.57177  0.85007  Biso   1.000  N
  C127     1.0000 0.92293  0.47697  0.93237  Biso   1.000  C
  C128     1.0000 0.92153  0.44817  0.76007  Biso   1.000  C
  C129     1.0000 0.87713  0.39157  0.73897  Biso   1.000  C
  H99      1.0000 0.87433  0.37237  0.62517  Biso   1.000  H
  C130     1.0000 0.83773  0.36387  0.88187  Biso   1.000  C
  H100     1.0000 0.80863  0.32627  0.86317  Biso   1.000  H
  C131     1.0000 0.84073  0.39107  0.05247  Biso   1.000  C
  H101     1.0000 0.81473  0.37137  0.15057  Biso   1.000  H
  C132     1.0000 0.88203  0.44677  0.07637  Biso   1.000  C
  H102     1.0000 0.88333  0.46537  0.19027  Biso   1.000  H
  C133     1.0000 0.96193  0.53627  0.96977  Biso   1.000  C
  H103     1.0000 0.96083  0.54997  0.09117  Biso   1.000  H
  C134     1.0000 0.03453  0.63167  0.90527  Biso   1.000  C
  H104     1.0000 0.01103  0.64787  0.94417  Biso   1.000  H
  H105     1.0000 0.05853  0.63427  0.01297  Biso   1.000  H
  C135     1.0000 0.07143  0.66457  0.73687  Biso   1.000  C
  Cu16     1.0000 0.11131  0.79043  0.92781  Biso   1.000  Cu
  O46      1.0000 0.19340  0.82151  0.95740  Biso   1.000  O
  O47      1.0000 0.02990  0.76300  0.91930  Biso   1.000  O
  O48      1.0000 0.94990  0.72050  0.08530  Biso   1.000  O
  N16      1.0000 0.09490  0.75960  0.18340  Biso   1.000  N
  C136     1.0000 0.18970  0.77930  0.26570  Biso   1.000  C
  C137     1.0000 0.21850  0.80670  0.09340  Biso   1.000  C
  C138     1.0000 0.27510  0.81890  0.07230  Biso   1.000  C
  H106     1.0000 0.29430  0.83530  0.95850  Biso   1.000  H
  C139     1.0000 0.30280  0.80720  0.21520  Biso   1.000  C
  H107     1.0000 0.34040  0.81570  0.19650  Biso   1.000  H
  C140     1.0000 0.27560  0.78300  0.38580  Biso   1.000  C
  H108     1.0000 0.29530  0.77670  0.48390  Biso   1.000  H
  C141     1.0000 0.21990  0.76860  0.40970  Biso   1.000  C
  H109     1.0000 0.20130  0.75130  0.52360  Biso   1.000  H
  C142     1.0000 0.13040  0.75900  0.30310  Biso   1.000  C
  H110     1.0000 0.11670  0.74420  0.42450  Biso   1.000  H
  C143     1.0000 0.03500  0.73620  0.23860  Biso   1.000  C
  H111     1.0000 0.01880  0.69650  0.27750  Biso   1.000  H
  H112     1.0000 0.03240  0.75760  0.34630  Biso   1.000  H
  C144     1.0000 0.00210  0.74020  0.07020  Biso   1.000  C
  Cu17     1.0000 0.77798  0.12376  0.26114  Biso   1.000  Cu
  O49      1.0000 0.86007  0.15484  0.29073  Biso   1.000  O
  O50      1.0000 0.69657  0.09633  0.25263  Biso   1.000  O
  O51      1.0000 0.61657  0.05383  0.41863  Biso   1.000  O
  N17      1.0000 0.76157  0.09293  0.51673  Biso   1.000  N
  C145     1.0000 0.85637  0.11263  0.59903  Biso   1.000  C
  C146     1.0000 0.88517  0.14003  0.42673  Biso   1.000  C
  C147     1.0000 0.94177  0.15223  0.40563  Biso   1.000  C
  H113     1.0000 0.96097  0.16863  0.29183  Biso   1.000  H
  C148     1.0000 0.96947  0.14053  0.54853  Biso   1.000  C
  H114     1.0000 0.00707  0.14903  0.52983  Biso   1.000  H
  C149     1.0000 0.94227  0.11633  0.71913  Biso   1.000  C
  H115     1.0000 0.96197  0.11003  0.81723  Biso   1.000  H
  C150     1.0000 0.88657  0.10193  0.74303  Biso   1.000  C
  H116     1.0000 0.86797  0.08463  0.85693  Biso   1.000  H
  C151     1.0000 0.79707  0.09233  0.63643  Biso   1.000  C
  H117     1.0000 0.78337  0.07753  0.75783  Biso   1.000  H
  C152     1.0000 0.70167  0.06953  0.57193  Biso   1.000  C
  H118     1.0000 0.68547  0.02983  0.61083  Biso   1.000  H
  H119     1.0000 0.69907  0.09093  0.67963  Biso   1.000  H
  C153     1.0000 0.66877  0.07353  0.40353  Biso   1.000  C
  Cu18     1.0000 0.44464  0.45710  0.59448  Biso   1.000  Cu
  O52      1.0000 0.52673  0.48818  0.62407  Biso   1.000  O
  O53      1.0000 0.36323  0.42967  0.58597  Biso   1.000  O
  O54      1.0000 0.28323  0.38717  0.75197  Biso   1.000  O
  N18      1.0000 0.42823  0.42627  0.85007  Biso   1.000  N
  C154     1.0000 0.52303  0.44597  0.93237  Biso   1.000  C
  C155     1.0000 0.55183  0.47337  0.76007  Biso   1.000  C
  C156     1.0000 0.60843  0.48557  0.73897  Biso   1.000  C
  H120     1.0000 0.62763  0.50197  0.62517  Biso   1.000  H
  C157     1.0000 0.63613  0.47387  0.88187  Biso   1.000  C
  H121     1.0000 0.67373  0.48237  0.86317  Biso   1.000  H
  C158     1.0000 0.60893  0.44967  0.05247  Biso   1.000  C
  H122     1.0000 0.62863  0.44337  0.15057  Biso   1.000  H
  C159     1.0000 0.55323  0.43527  0.07637  Biso   1.000  C
  H123     1.0000 0.53463  0.41797  0.19027  Biso   1.000  H
  C160     1.0000 0.46373  0.42567  0.96977  Biso   1.000  C
  H124     1.0000 0.45003  0.41087  0.09117  Biso   1.000  H
  C161     1.0000 0.36833  0.40287  0.90527  Biso   1.000  C
  H125     1.0000 0.35213  0.36317  0.94417  Biso   1.000  H
  H126     1.0000 0.36573  0.42427  0.01297  Biso   1.000  H
  C162     1.0000 0.33543  0.40687  0.73687  Biso   1.000  C
