data_image0
_cell_length_a       18.6294
_cell_length_b       9.9345
_cell_length_c       14.7424
_cell_angle_alpha    90
_cell_angle_beta     90
_cell_angle_gamma    90

_symmetry_space_group_name_H-M    "P 1"
_symmetry_int_tables_number       1

loop_
  _symmetry_equiv_pos_as_xyz
  'x, y, z'

loop_
  _atom_site_label
  _atom_site_occupancy
  _atom_site_fract_x
  _atom_site_fract_y
  _atom_site_fract_z
  _atom_site_thermal_displace_type
  _atom_site_B_iso_or_equiv
  _atom_site_type_symbol
  Cd1      1.0000 0.46845  0.95931  0.10302  Biso   1.000  Cd
  Na1      1.0000 0.55967  0.94520  0.87570  Biso   1.000  Na
  O1       1.0000 0.49300  0.81000  0.99480  Biso   1.000  O
  O2       1.0000 0.47290  0.68650  0.11620  Biso   1.000  O
  O3       1.0000 0.45700  0.18170  0.07090  Biso   1.000  O
  O4       1.0000 0.48230  0.09430  0.94010  Biso   1.000  O
  O5       1.0000 0.52060  0.50770  0.73550  Biso   1.000  O
  H1       1.0000 0.53910  0.58240  0.73160  Biso   1.000  H
  O6       1.0000 0.57580  0.98880  0.16550  Biso   1.000  O
  O7       1.0000 0.52280  0.12800  0.26320  Biso   1.000  O
  O8       1.0000 0.84270  0.09420  0.10960  Biso   1.000  O
  O9       1.0000 0.90240  0.06720  0.23530  Biso   1.000  O
  O10      1.0000 0.73650  0.21850  0.48000  Biso   1.000  O
  H2       1.0000 0.71030  0.17600  0.51440  Biso   1.000  H
  C1       1.0000 0.48420  0.69680  0.03300  Biso   1.000  C
  C2       1.0000 0.48660  0.57350  0.97420  Biso   1.000  C
  C3       1.0000 0.47950  0.44310  0.00940  Biso   1.000  C
  H3       1.0000 0.47110  0.43010  0.07090  Biso   1.000  H
  C4       1.0000 0.48530  0.33320  0.95150  Biso   1.000  C
  C5       1.0000 0.47510  0.19290  0.99020  Biso   1.000  C
  C6       1.0000 0.49960  0.34860  0.85910  Biso   1.000  C
  H4       1.0000 0.50480  0.27410  0.82140  Biso   1.000  H
  C7       1.0000 0.50600  0.48000  0.82450  Biso   1.000  C
  C8       1.0000 0.49730  0.59020  0.88040  Biso   1.000  C
  H5       1.0000 0.49860  0.67640  0.85590  Biso   1.000  H
  C9       1.0000 0.57630  0.07280  0.23150  Biso   1.000  C
  C10      1.0000 0.65010  0.10290  0.26960  Biso   1.000  C
  C11      1.0000 0.71060  0.08690  0.21560  Biso   1.000  C
  H6       1.0000 0.70590  0.05560  0.15640  Biso   1.000  H
  C12      1.0000 0.77860  0.11810  0.25030  Biso   1.000  C
  C13      1.0000 0.84530  0.09100  0.19400  Biso   1.000  C
  C14      1.0000 0.78440  0.16510  0.33910  Biso   1.000  C
  H7       1.0000 0.82930  0.18830  0.36180  Biso   1.000  H
  C15      1.0000 0.72480  0.17800  0.39370  Biso   1.000  C
  C16      1.0000 0.65660  0.14570  0.35800  Biso   1.000  C
  H8       1.0000 0.61600  0.15340  0.39430  Biso   1.000  H
  Cd2      1.0000 0.53155  0.04069  0.60302  Biso   1.000  Cd
  Na2      1.0000 0.44033  0.05480  0.37570  Biso   1.000  Na
  O11      1.0000 0.50700  0.19000  0.49480  Biso   1.000  O
  O12      1.0000 0.52710  0.31350  0.61620  Biso   1.000  O
  O13      1.0000 0.54300  0.81830  0.57090  Biso   1.000  O
  O14      1.0000 0.51770  0.90570  0.44010  Biso   1.000  O
  O15      1.0000 0.47940  0.49230  0.23550  Biso   1.000  O
  H9       1.0000 0.46090  0.41760  0.23160  Biso   1.000  H
  O16      1.0000 0.42420  0.01120  0.66550  Biso   1.000  O
  O17      1.0000 0.47720  0.87200  0.76320  Biso   1.000  O
  O18      1.0000 0.15730  0.90580  0.60960  Biso   1.000  O
  O19      1.0000 0.09760  0.93280  0.73530  Biso   1.000  O
  O20      1.0000 0.26350  0.78150  0.98000  Biso   1.000  O
  H10      1.0000 0.28970  0.82400  0.01440  Biso   1.000  H
  C17      1.0000 0.51580  0.30320  0.53300  Biso   1.000  C
  C18      1.0000 0.51340  0.42650  0.47420  Biso   1.000  C
  C19      1.0000 0.52050  0.55690  0.50940  Biso   1.000  C
  H11      1.0000 0.52890  0.56990  0.57090  Biso   1.000  H
  C20      1.0000 0.51470  0.66680  0.45150  Biso   1.000  C
  C21      1.0000 0.52490  0.80710  0.49020  Biso   1.000  C
  C22      1.0000 0.50040  0.65140  0.35910  Biso   1.000  C
  H12      1.0000 0.49520  0.72590  0.32140  Biso   1.000  H
  C23      1.0000 0.49400  0.52000  0.32450  Biso   1.000  C
  C24      1.0000 0.50270  0.40980  0.38040  Biso   1.000  C
  H13      1.0000 0.50140  0.32360  0.35590  Biso   1.000  H
  C25      1.0000 0.42370  0.92720  0.73150  Biso   1.000  C
  C26      1.0000 0.34990  0.89710  0.76960  Biso   1.000  C
  C27      1.0000 0.28940  0.91310  0.71560  Biso   1.000  C
  H14      1.0000 0.29410  0.94440  0.65640  Biso   1.000  H
  C28      1.0000 0.22140  0.88190  0.75030  Biso   1.000  C
  C29      1.0000 0.15470  0.90900  0.69400  Biso   1.000  C
  C30      1.0000 0.21560  0.83490  0.83910  Biso   1.000  C
  H15      1.0000 0.17070  0.81170  0.86180  Biso   1.000  H
  C31      1.0000 0.27520  0.82200  0.89370  Biso   1.000  C
  C32      1.0000 0.34340  0.85430  0.85800  Biso   1.000  C
  H16      1.0000 0.38400  0.84660  0.89430  Biso   1.000  H
  Cd3      1.0000 0.96845  0.04069  0.10302  Biso   1.000  Cd
  Na3      1.0000 0.05967  0.05480  0.87570  Biso   1.000  Na
  O21      1.0000 0.99300  0.19000  0.99480  Biso   1.000  O
  O22      1.0000 0.97290  0.31350  0.11620  Biso   1.000  O
  O23      1.0000 0.95700  0.81830  0.07090  Biso   1.000  O
  O24      1.0000 0.98230  0.90570  0.94010  Biso   1.000  O
  O25      1.0000 0.02060  0.49230  0.73550  Biso   1.000  O
  H17      1.0000 0.03910  0.41760  0.73160  Biso   1.000  H
  O26      1.0000 0.07580  0.01120  0.16550  Biso   1.000  O
  O27      1.0000 0.02280  0.87200  0.26320  Biso   1.000  O
  O28      1.0000 0.34270  0.90580  0.10960  Biso   1.000  O
  O29      1.0000 0.40240  0.93280  0.23530  Biso   1.000  O
  O30      1.0000 0.23650  0.78150  0.48000  Biso   1.000  O
  H18      1.0000 0.21030  0.82400  0.51440  Biso   1.000  H
  C33      1.0000 0.98420  0.30320  0.03300  Biso   1.000  C
  C34      1.0000 0.98660  0.42650  0.97420  Biso   1.000  C
  C35      1.0000 0.97950  0.55690  0.00940  Biso   1.000  C
  H19      1.0000 0.97110  0.56990  0.07090  Biso   1.000  H
  C36      1.0000 0.98530  0.66680  0.95150  Biso   1.000  C
  C37      1.0000 0.97510  0.80710  0.99020  Biso   1.000  C
  C38      1.0000 0.99960  0.65140  0.85910  Biso   1.000  C
  H20      1.0000 0.00480  0.72590  0.82140  Biso   1.000  H
  C39      1.0000 0.00600  0.52000  0.82450  Biso   1.000  C
  C40      1.0000 0.99730  0.40980  0.88040  Biso   1.000  C
  H21      1.0000 0.99860  0.32360  0.85590  Biso   1.000  H
  C41      1.0000 0.07630  0.92720  0.23150  Biso   1.000  C
  C42      1.0000 0.15010  0.89710  0.26960  Biso   1.000  C
  C43      1.0000 0.21060  0.91310  0.21560  Biso   1.000  C
  H22      1.0000 0.20590  0.94440  0.15640  Biso   1.000  H
  C44      1.0000 0.27860  0.88190  0.25030  Biso   1.000  C
  C45      1.0000 0.34530  0.90900  0.19400  Biso   1.000  C
  C46      1.0000 0.28440  0.83490  0.33910  Biso   1.000  C
  H23      1.0000 0.32930  0.81170  0.36180  Biso   1.000  H
  C47      1.0000 0.22480  0.82200  0.39370  Biso   1.000  C
  C48      1.0000 0.15660  0.85430  0.35800  Biso   1.000  C
  H24      1.0000 0.11600  0.84660  0.39430  Biso   1.000  H
  Cd4      1.0000 0.03155  0.95931  0.60302  Biso   1.000  Cd
  Na4      1.0000 0.94033  0.94520  0.37570  Biso   1.000  Na
  O31      1.0000 0.00700  0.81000  0.49480  Biso   1.000  O
  O32      1.0000 0.02710  0.68650  0.61620  Biso   1.000  O
  O33      1.0000 0.04300  0.18170  0.57090  Biso   1.000  O
  O34      1.0000 0.01770  0.09430  0.44010  Biso   1.000  O
  O35      1.0000 0.97940  0.50770  0.23550  Biso   1.000  O
  H25      1.0000 0.96090  0.58240  0.23160  Biso   1.000  H
  O36      1.0000 0.92420  0.98880  0.66550  Biso   1.000  O
  O37      1.0000 0.97720  0.12800  0.76320  Biso   1.000  O
  O38      1.0000 0.65730  0.09420  0.60960  Biso   1.000  O
  O39      1.0000 0.59760  0.06720  0.73530  Biso   1.000  O
  O40      1.0000 0.76350  0.21850  0.98000  Biso   1.000  O
  H26      1.0000 0.78970  0.17600  0.01440  Biso   1.000  H
  C49      1.0000 0.01580  0.69680  0.53300  Biso   1.000  C
  C50      1.0000 0.01340  0.57350  0.47420  Biso   1.000  C
  C51      1.0000 0.02050  0.44310  0.50940  Biso   1.000  C
  H27      1.0000 0.02890  0.43010  0.57090  Biso   1.000  H
  C52      1.0000 0.01470  0.33320  0.45150  Biso   1.000  C
  C53      1.0000 0.02490  0.19290  0.49020  Biso   1.000  C
  C54      1.0000 0.00040  0.34860  0.35910  Biso   1.000  C
  H28      1.0000 0.99520  0.27410  0.32140  Biso   1.000  H
  C55      1.0000 0.99400  0.48000  0.32450  Biso   1.000  C
  C56      1.0000 0.00270  0.59020  0.38040  Biso   1.000  C
  H29      1.0000 0.00140  0.67640  0.35590  Biso   1.000  H
  C57      1.0000 0.92370  0.07280  0.73150  Biso   1.000  C
  C58      1.0000 0.84990  0.10290  0.76960  Biso   1.000  C
  C59      1.0000 0.78940  0.08690  0.71560  Biso   1.000  C
  H30      1.0000 0.79410  0.05560  0.65640  Biso   1.000  H
  C60      1.0000 0.72140  0.11810  0.75030  Biso   1.000  C
  C61      1.0000 0.65470  0.09100  0.69400  Biso   1.000  C
  C62      1.0000 0.71560  0.16510  0.83910  Biso   1.000  C
  H31      1.0000 0.67070  0.18830  0.86180  Biso   1.000  H
  C63      1.0000 0.77520  0.17800  0.89370  Biso   1.000  C
  C64      1.0000 0.84340  0.14570  0.85800  Biso   1.000  C
  H32      1.0000 0.88400  0.15340  0.89430  Biso   1.000  H
