data_KIBDIJ_clean
_audit_creation_date              2014-07-02
_audit_creation_method            'Materials Studio'
_symmetry_space_group_name_H-M    'P1'
_symmetry_Int_Tables_number       1
_symmetry_cell_setting            triclinic
loop_
_symmetry_equiv_pos_as_xyz
  x,y,z
_cell_length_a                    9.1265
_cell_length_b                    9.1265
_cell_length_c                    14.4002
_cell_angle_alpha                 100.2350
_cell_angle_beta                  100.2350
_cell_angle_gamma                 116.0580
loop_
_atom_site_label
_atom_site_type_symbol
_atom_site_fract_x
_atom_site_fract_y
_atom_site_fract_z
_atom_site_U_iso_or_equiv
_atom_site_adp_type
_atom_site_occupancy
Tb1    Tb    0.74070   0.99070   0.98140   0.01267  Uiso   1.00
Tb2    Tb    0.50930   0.75930   0.51860   0.01267  Uiso   1.00
Tb3    Tb    0.25930   0.00930   0.01860   0.01267  Uiso   1.00
Tb4    Tb    0.49070   0.24070   0.48140   0.01267  Uiso   1.00
H1     H     0.88260   0.45700   0.06800   0.01267  Uiso   1.00
H2     H     0.68540   0.61100   0.06800   0.01267  Uiso   1.00
H3     H     0.04300   0.61740   0.43200   0.01267  Uiso   1.00
H4     H     0.88900   0.81460   0.43200   0.01267  Uiso   1.00
H5     H     0.11740   0.54300   0.93200   0.01267  Uiso   1.00
H6     H     0.31460   0.38900   0.93200   0.01267  Uiso   1.00
H7     H     0.95700   0.38260   0.56800   0.01267  Uiso   1.00
H8     H     0.11100   0.18540   0.56800   0.01267  Uiso   1.00
C1     C     0.62564   0.30204   0.05808   0.01267  Uiso   1.00
C2     C     0.78146   0.46066   0.06412   0.01267  Uiso   1.00
C3     C     0.93244   0.75604   0.05808   0.01267  Uiso   1.00
C4     C     0.78266   0.60346   0.06412   0.01267  Uiso   1.00
C5     C     0.19796   0.87436   0.44192   0.01267  Uiso   1.00
C6     C     0.03934   0.71854   0.43588   0.01267  Uiso   1.00
C7     C     0.74396   0.56756   0.44192   0.01267  Uiso   1.00
C8     C     0.89654   0.71734   0.43588   0.01267  Uiso   1.00
C9     C     0.37436   0.69796   0.94192   0.01267  Uiso   1.00
C10    C     0.21854   0.53934   0.93588   0.01267  Uiso   1.00
C11    C     0.06756   0.24396   0.94192   0.01267  Uiso   1.00
C12    C     0.21734   0.39654   0.93588   0.01267  Uiso   1.00
C13    C     0.80204   0.12564   0.55808   0.01267  Uiso   1.00
C14    C     0.96066   0.28146   0.56412   0.01267  Uiso   1.00
C15    C     0.25604   0.43244   0.55808   0.01267  Uiso   1.00
C16    C     0.10346   0.28266   0.56412   0.01267  Uiso   1.00
C17    C     0.67490   0.82510   0.75000   0.01267  Uiso   1.00
C18    C     0.57510   0.92490   0.75000   0.01267  Uiso   1.00
C19    C     0.32510   0.17490   0.25000   0.01267  Uiso   1.00
C20    C     0.42490   0.07510   0.25000   0.01267  Uiso   1.00
O1     O     0.63083   0.16741   0.03344   0.01267  Uiso   1.00
O2     O     0.49570   0.30340   0.07590   0.01267  Uiso   1.00
O3     O     0.76169   0.83953   0.83182   0.01267  Uiso   1.00
O4     O     0.90261   0.86603   0.03344   0.01267  Uiso   1.00
O5     O     0.08020   0.77250   0.07590   0.01267  Uiso   1.00
O6     O     0.57013   0.99229   0.83182   0.01267  Uiso   1.00
O7     O     0.33259   0.86917   0.46656   0.01267  Uiso   1.00
O8     O     0.19660   0.00430   0.42410   0.01267  Uiso   1.00
O9     O     0.66047   0.73831   0.66818   0.01267  Uiso   1.00
O10    O     0.63397   0.59739   0.46656   0.01267  Uiso   1.00
O11    O     0.72750   0.41980   0.42410   0.01267  Uiso   1.00
O12    O     0.50771   0.92987   0.66818   0.01267  Uiso   1.00
O13    O     0.36917   0.83259   0.96656   0.01267  Uiso   1.00
O14    O     0.50430   0.69660   0.92410   0.01267  Uiso   1.00
O15    O     0.23831   0.16047   0.16818   0.01267  Uiso   1.00
O16    O     0.09739   0.13397   0.96656   0.01267  Uiso   1.00
O17    O     0.91980   0.22750   0.92410   0.01267  Uiso   1.00
O18    O     0.42987   0.00771   0.16818   0.01267  Uiso   1.00
O19    O     0.66741   0.13083   0.53344   0.01267  Uiso   1.00
O20    O     0.80340   0.99570   0.57590   0.01267  Uiso   1.00
O21    O     0.33953   0.26169   0.33182   0.01267  Uiso   1.00
O22    O     0.36603   0.40261   0.53344   0.01267  Uiso   1.00
O23    O     0.27250   0.58020   0.57590   0.01267  Uiso   1.00
O24    O     0.49229   0.07013   0.33182   0.01267  Uiso   1.00
