data_KIBDEF_clean
_audit_creation_date              2014-07-02
_audit_creation_method            'Materials Studio'
_symmetry_space_group_name_H-M    'P1'
_symmetry_Int_Tables_number       1
_symmetry_cell_setting            triclinic
loop_
_symmetry_equiv_pos_as_xyz
  x,y,z
_cell_length_a                    9.1176
_cell_length_b                    9.1176
_cell_length_c                    14.5424
_cell_angle_alpha                 79.7865
_cell_angle_beta                  79.7864
_cell_angle_gamma                 115.7450
loop_
_atom_site_label
_atom_site_type_symbol
_atom_site_fract_x
_atom_site_fract_y
_atom_site_fract_z
_atom_site_U_iso_or_equiv
_atom_site_adp_type
_atom_site_occupancy
Eu1    Eu    0.99051   0.24051   0.01898   0.01267  Uiso   1.00
Eu2    Eu    0.75949   0.00949   0.48102   0.01267  Uiso   1.00
Eu3    Eu    0.00949   0.75949   0.98102   0.01267  Uiso   1.00
Eu4    Eu    0.24051   0.99051   0.51898   0.01267  Uiso   1.00
H1     H     0.61420   0.18980   0.93340   0.01267  Uiso   1.00
H2     H     0.45240   0.37680   0.93340   0.01267  Uiso   1.00
H3     H     0.81020   0.38580   0.56660   0.01267  Uiso   1.00
H4     H     0.62320   0.54760   0.56660   0.01267  Uiso   1.00
H5     H     0.38580   0.81020   0.06660   0.01267  Uiso   1.00
H6     H     0.54760   0.62320   0.06660   0.01267  Uiso   1.00
H7     H     0.18980   0.61420   0.43340   0.01267  Uiso   1.00
H8     H     0.37680   0.45240   0.43340   0.01267  Uiso   1.00
C1     C     0.75403   0.43563   0.94154   0.01267  Uiso   1.00
C2     C     0.60340   0.28580   0.93660   0.01267  Uiso   1.00
C3     C     0.30443   0.12283   0.94154   0.01267  Uiso   1.00
C4     C     0.46000   0.27760   0.93660   0.01267  Uiso   1.00
C5     C     0.56437   0.24597   0.55846   0.01267  Uiso   1.00
C6     C     0.71420   0.39660   0.56340   0.01267  Uiso   1.00
C7     C     0.87717   0.69557   0.55846   0.01267  Uiso   1.00
C8     C     0.72240   0.54000   0.56340   0.01267  Uiso   1.00
C9     C     0.24597   0.56437   0.05846   0.01267  Uiso   1.00
C10    C     0.39660   0.71420   0.06340   0.01267  Uiso   1.00
C11    C     0.69557   0.87717   0.05846   0.01267  Uiso   1.00
C12    C     0.54000   0.72240   0.06340   0.01267  Uiso   1.00
C13    C     0.43563   0.75403   0.44154   0.01267  Uiso   1.00
C14    C     0.28580   0.60340   0.43660   0.01267  Uiso   1.00
C15    C     0.12283   0.30443   0.44154   0.01267  Uiso   1.00
C16    C     0.27760   0.46000   0.43660   0.01267  Uiso   1.00
C17    C     0.92460   0.07540   0.25000   0.01267  Uiso   1.00
C18    C     0.82540   0.17460   0.25000   0.01267  Uiso   1.00
C19    C     0.07540   0.92460   0.75000   0.01267  Uiso   1.00
C20    C     0.17460   0.82540   0.75000   0.01267  Uiso   1.00
O1     O     0.86595   0.40875   0.96710   0.01267  Uiso   1.00
O2     O     0.76767   0.58167   0.92426   0.01267  Uiso   1.00
O3     O     0.99120   0.06880   0.16920   0.01267  Uiso   1.00
O4     O     0.16695   0.12415   0.96710   0.01267  Uiso   1.00
O5     O     0.30807   0.99407   0.92426   0.01267  Uiso   1.00
O6     O     0.83960   0.26200   0.16920   0.01267  Uiso   1.00
O7     O     0.59125   0.13405   0.53290   0.01267  Uiso   1.00
O8     O     0.41833   0.23233   0.57574   0.01267  Uiso   1.00
O9     O     0.93120   0.00880   0.33080   0.01267  Uiso   1.00
O10    O     0.87585   0.83305   0.53290   0.01267  Uiso   1.00
O11    O     0.00593   0.69193   0.57574   0.01267  Uiso   1.00
O12    O     0.73800   0.16040   0.33080   0.01267  Uiso   1.00
O13    O     0.13405   0.59125   0.03290   0.01267  Uiso   1.00
O14    O     0.23233   0.41833   0.07574   0.01267  Uiso   1.00
O15    O     0.00880   0.93120   0.83080   0.01267  Uiso   1.00
O16    O     0.83305   0.87585   0.03290   0.01267  Uiso   1.00
O17    O     0.69193   0.00593   0.07574   0.01267  Uiso   1.00
O18    O     0.16040   0.73800   0.83080   0.01267  Uiso   1.00
O19    O     0.40875   0.86595   0.46710   0.01267  Uiso   1.00
O20    O     0.58167   0.76767   0.42426   0.01267  Uiso   1.00
O21    O     0.06880   0.99120   0.66920   0.01267  Uiso   1.00
O22    O     0.12415   0.16695   0.46710   0.01267  Uiso   1.00
O23    O     0.99407   0.30807   0.42426   0.01267  Uiso   1.00
O24    O     0.26200   0.83960   0.66920   0.01267  Uiso   1.00
