data_KIBXUP_charged
_audit_creation_date              2014-07-02
_audit_creation_method            'Materials Studio'
_symmetry_space_group_name_H-M    'P1'
_symmetry_Int_Tables_number       1
_symmetry_cell_setting            triclinic
loop_
_symmetry_equiv_pos_as_xyz
  x,y,z
_cell_length_a                    12.4890
_cell_length_b                    14.0850
_cell_length_c                    16.2930
_cell_angle_alpha                 90.0000
_cell_angle_beta                  90.0000
_cell_angle_gamma                 112.4250
loop_
_atom_site_label
_atom_site_type_symbol
_atom_site_fract_x
_atom_site_fract_y
_atom_site_fract_z
_atom_site_U_iso_or_equiv
_atom_site_adp_type
_atom_site_occupancy
Ag1    Ag    0.33184   0.22947   0.96308   0.01267  Uiso   1.00
Ag2    Ag    0.16816   0.77053   0.46308   0.01267  Uiso   1.00
Ag3    Ag    0.66816   0.77053   0.03692   0.01267  Uiso   1.00
Ag4    Ag    0.83184   0.22947   0.53692   0.01267  Uiso   1.00
H1     H     0.07600   0.88590   0.95090   0.01267  Uiso   1.00
H2     H     0.94070   0.80570   0.14020   0.01267  Uiso   1.00
H3     H     0.02780   0.78820   0.07780   0.01267  Uiso   1.00
H4     H     0.88100   0.57350   0.07970   0.01267  Uiso   1.00
H5     H     0.80800   0.60600   0.14450   0.01267  Uiso   1.00
H6     H     0.60540   0.50140   0.15430   0.01267  Uiso   1.00
H7     H     0.44110   0.37470   0.10420   0.01267  Uiso   1.00
H8     H     0.76600   0.48970   0.94430   0.01267  Uiso   1.00
H9     H     0.59510   0.36530   0.89840   0.01267  Uiso   1.00
H10    H     0.88950   0.01910   0.18570   0.01267  Uiso   1.00
H11    H     0.86390   0.90080   0.18040   0.01267  Uiso   1.00
H12    H     0.55200   0.89180   0.20720   0.01267  Uiso   1.00
H13    H     0.63340   0.83700   0.23670   0.01267  Uiso   1.00
H14    H     0.77620   0.91460   0.34030   0.01267  Uiso   1.00
H15    H     0.85290   0.03980   0.43820   0.01267  Uiso   1.00
H16    H     0.60900   0.08160   0.24450   0.01267  Uiso   1.00
H17    H     0.68800   0.20120   0.34730   0.01267  Uiso   1.00
H18    H     0.42400   0.11410   0.45090   0.01267  Uiso   1.00
H19    H     0.55930   0.19430   0.64020   0.01267  Uiso   1.00
H20    H     0.47220   0.21180   0.57780   0.01267  Uiso   1.00
H21    H     0.61900   0.42650   0.57970   0.01267  Uiso   1.00
H22    H     0.69200   0.39400   0.64450   0.01267  Uiso   1.00
H23    H     0.89460   0.49860   0.65430   0.01267  Uiso   1.00
H24    H     0.05890   0.62530   0.60420   0.01267  Uiso   1.00
H25    H     0.73400   0.51030   0.44430   0.01267  Uiso   1.00
H26    H     0.90490   0.63470   0.39840   0.01267  Uiso   1.00
H27    H     0.61050   0.98090   0.68570   0.01267  Uiso   1.00
H28    H     0.63610   0.09920   0.68040   0.01267  Uiso   1.00
H29    H     0.94800   0.10820   0.70720   0.01267  Uiso   1.00
H30    H     0.86660   0.16300   0.73670   0.01267  Uiso   1.00
H31    H     0.72380   0.08540   0.84030   0.01267  Uiso   1.00
H32    H     0.64710   0.96020   0.93820   0.01267  Uiso   1.00
H33    H     0.89100   0.91840   0.74450   0.01267  Uiso   1.00
H34    H     0.81200   0.79880   0.84730   0.01267  Uiso   1.00
H35    H     0.92400   0.11410   0.04910   0.01267  Uiso   1.00
H36    H     0.05930   0.19430   0.85980   0.01267  Uiso   1.00
H37    H     0.97220   0.21180   0.92220   0.01267  Uiso   1.00
H38    H     0.11900   0.42650   0.92030   0.01267  Uiso   1.00
H39    H     0.19200   0.39400   0.85550   0.01267  Uiso   1.00
H40    H     0.39460   0.49860   0.84570   0.01267  Uiso   1.00
H41    H     0.55890   0.62530   0.89580   0.01267  Uiso   1.00
H42    H     0.23400   0.51030   0.05570   0.01267  Uiso   1.00
H43    H     0.40490   0.63470   0.10160   0.01267  Uiso   1.00
H44    H     0.11050   0.98090   0.81430   0.01267  Uiso   1.00
H45    H     0.13610   0.09920   0.81960   0.01267  Uiso   1.00
H46    H     0.44800   0.10820   0.79280   0.01267  Uiso   1.00
H47    H     0.36660   0.16300   0.76330   0.01267  Uiso   1.00
H48    H     0.22380   0.08540   0.65970   0.01267  Uiso   1.00
H49    H     0.14710   0.96020   0.56180   0.01267  Uiso   1.00
H50    H     0.39100   0.91840   0.75550   0.01267  Uiso   1.00
H51    H     0.31200   0.79880   0.65270   0.01267  Uiso   1.00
H52    H     0.57600   0.88590   0.54910   0.01267  Uiso   1.00
H53    H     0.44070   0.80570   0.35980   0.01267  Uiso   1.00
H54    H     0.52780   0.78820   0.42220   0.01267  Uiso   1.00
H55    H     0.38100   0.57350   0.42030   0.01267  Uiso   1.00
H56    H     0.30800   0.60600   0.35550   0.01267  Uiso   1.00
H57    H     0.10540   0.50140   0.34570   0.01267  Uiso   1.00
H58    H     0.94110   0.37470   0.39580   0.01267  Uiso   1.00
H59    H     0.26600   0.48970   0.55570   0.01267  Uiso   1.00
H60    H     0.09510   0.36530   0.60160   0.01267  Uiso   1.00
H61    H     0.38950   0.01910   0.31430   0.01267  Uiso   1.00
H62    H     0.36390   0.90080   0.31960   0.01267  Uiso   1.00
H63    H     0.05200   0.89180   0.29280   0.01267  Uiso   1.00
H64    H     0.13340   0.83700   0.26330   0.01267  Uiso   1.00
H65    H     0.27620   0.91460   0.15970   0.01267  Uiso   1.00
H66    H     0.35290   0.03980   0.06180   0.01267  Uiso   1.00
H67    H     0.10900   0.08160   0.25550   0.01267  Uiso   1.00
H68    H     0.18800   0.20120   0.15270   0.01267  Uiso   1.00
C1     C     0.98030   0.90770   0.04320   0.01267  Uiso   1.00
C2     C     0.93380   0.97740   0.07320   0.01267  Uiso   1.00
C3     C     0.04530   0.93210   0.97070   0.01267  Uiso   1.00
C4     C     0.95930   0.80460   0.08250   0.01267  Uiso   1.00
C5     C     0.81550   0.59370   0.08670   0.01267  Uiso   1.00
C6     C     0.70580   0.50980   0.05540   0.01267  Uiso   1.00
C7     C     0.60610   0.47430   0.10230   0.01267  Uiso   1.00
C8     C     0.50720   0.39790   0.07160   0.01267  Uiso   1.00
C9     C     0.70100   0.46770   0.97800   0.01267  Uiso   1.00
C10    C     0.59760   0.39190   0.95090   0.01267  Uiso   1.00
C11    C     0.86080   0.95920   0.15040   0.01267  Uiso   1.00
C12    C     0.63210   0.90140   0.21660   0.01267  Uiso   1.00
C13    C     0.68290   0.98300   0.28050   0.01267  Uiso   1.00
C14    C     0.75710   0.97220   0.34010   0.01267  Uiso   1.00
C15    C     0.80270   0.04810   0.39920   0.01267  Uiso   1.00
C16    C     0.65770   0.07090   0.28340   0.01267  Uiso   1.00
C17    C     0.70640   0.14310   0.34570   0.01267  Uiso   1.00
C18    C     0.51970   0.09230   0.54320   0.01267  Uiso   1.00
C19    C     0.56620   0.02260   0.57320   0.01267  Uiso   1.00
C20    C     0.45470   0.06790   0.47070   0.01267  Uiso   1.00
C21    C     0.54070   0.19540   0.58250   0.01267  Uiso   1.00
C22    C     0.68450   0.40630   0.58670   0.01267  Uiso   1.00
C23    C     0.79420   0.49020   0.55540   0.01267  Uiso   1.00
C24    C     0.89390   0.52570   0.60230   0.01267  Uiso   1.00
C25    C     0.99280   0.60210   0.57160   0.01267  Uiso   1.00
C26    C     0.79900   0.53230   0.47800   0.01267  Uiso   1.00
C27    C     0.90240   0.60810   0.45090   0.01267  Uiso   1.00
C28    C     0.63920   0.04080   0.65040   0.01267  Uiso   1.00
C29    C     0.86790   0.09860   0.71660   0.01267  Uiso   1.00
C30    C     0.81710   0.01700   0.78050   0.01267  Uiso   1.00
C31    C     0.74290   0.02780   0.84010   0.01267  Uiso   1.00
C32    C     0.69730   0.95190   0.89920   0.01267  Uiso   1.00
C33    C     0.84230   0.92910   0.78340   0.01267  Uiso   1.00
C34    C     0.79360   0.85690   0.84570   0.01267  Uiso   1.00
C35    C     0.01970   0.09230   0.95680   0.01267  Uiso   1.00
C36    C     0.06620   0.02260   0.92680   0.01267  Uiso   1.00
C37    C     0.95470   0.06790   0.02930   0.01267  Uiso   1.00
C38    C     0.04070   0.19540   0.91750   0.01267  Uiso   1.00
C39    C     0.18450   0.40630   0.91330   0.01267  Uiso   1.00
C40    C     0.29420   0.49020   0.94460   0.01267  Uiso   1.00
C41    C     0.39390   0.52570   0.89770   0.01267  Uiso   1.00
C42    C     0.49280   0.60210   0.92840   0.01267  Uiso   1.00
C43    C     0.29900   0.53230   0.02200   0.01267  Uiso   1.00
C44    C     0.40240   0.60810   0.04910   0.01267  Uiso   1.00
C45    C     0.13920   0.04080   0.84960   0.01267  Uiso   1.00
C46    C     0.36790   0.09860   0.78340   0.01267  Uiso   1.00
C47    C     0.31710   0.01700   0.71950   0.01267  Uiso   1.00
C48    C     0.24290   0.02780   0.65990   0.01267  Uiso   1.00
C49    C     0.19730   0.95190   0.60080   0.01267  Uiso   1.00
C50    C     0.34230   0.92910   0.71660   0.01267  Uiso   1.00
C51    C     0.29360   0.85690   0.65430   0.01267  Uiso   1.00
C52    C     0.48030   0.90770   0.45680   0.01267  Uiso   1.00
C53    C     0.43380   0.97740   0.42680   0.01267  Uiso   1.00
C54    C     0.54530   0.93210   0.52930   0.01267  Uiso   1.00
C55    C     0.45930   0.80460   0.41750   0.01267  Uiso   1.00
C56    C     0.31550   0.59370   0.41330   0.01267  Uiso   1.00
C57    C     0.20580   0.50980   0.44460   0.01267  Uiso   1.00
C58    C     0.10610   0.47430   0.39770   0.01267  Uiso   1.00
C59    C     0.00720   0.39790   0.42840   0.01267  Uiso   1.00
C60    C     0.20100   0.46770   0.52200   0.01267  Uiso   1.00
C61    C     0.09760   0.39190   0.54910   0.01267  Uiso   1.00
C62    C     0.36080   0.95920   0.34960   0.01267  Uiso   1.00
C63    C     0.13210   0.90140   0.28340   0.01267  Uiso   1.00
C64    C     0.18290   0.98300   0.21950   0.01267  Uiso   1.00
C65    C     0.25710   0.97220   0.15990   0.01267  Uiso   1.00
C66    C     0.30270   0.04810   0.10080   0.01267  Uiso   1.00
C67    C     0.15770   0.07090   0.21660   0.01267  Uiso   1.00
C68    C     0.20640   0.14310   0.15430   0.01267  Uiso   1.00
S1     S     0.83765   0.70983   0.02746   0.01267  Uiso   1.00
S2     S     0.71149   0.93411   0.11888   0.01267  Uiso   1.00
S3     S     0.66235   0.29017   0.52746   0.01267  Uiso   1.00
S4     S     0.78851   0.06589   0.61888   0.01267  Uiso   1.00
S5     S     0.16235   0.29017   0.97254   0.01267  Uiso   1.00
S6     S     0.28851   0.06589   0.88112   0.01267  Uiso   1.00
S7     S     0.33765   0.70983   0.47254   0.01267  Uiso   1.00
S8     S     0.21149   0.93411   0.38112   0.01267  Uiso   1.00
N1     N     0.50190   0.35560   0.99700   0.01267  Uiso   1.00
N2     N     0.77790   0.13280   0.40280   0.01267  Uiso   1.00
N3     N     0.99810   0.64440   0.49700   0.01267  Uiso   1.00
N4     N     0.72210   0.86720   0.90280   0.01267  Uiso   1.00
N5     N     0.49810   0.64440   0.00300   0.01267  Uiso   1.00
N6     N     0.22210   0.86720   0.59720   0.01267  Uiso   1.00
N7     N     0.00190   0.35560   0.50300   0.01267  Uiso   1.00
N8     N     0.27790   0.13280   0.09720   0.01267  Uiso   1.00
Cl1    Cl    0.81436   0.33895   0.80027   0.01267  Uiso   1.00
O1     O     0.71800   0.26080   0.76970   0.01267  Uiso   1.00
O2     O     0.83500   0.31340   0.88120   0.01267  Uiso   1.00
O3     O     0.79660   0.43480   0.79940   0.01267  Uiso   1.00
O4     O     0.91100   0.34860   0.75070   0.01267  Uiso   1.00
Cl2    Cl    0.68564   0.66105   0.30027   0.01267  Uiso   1.00
O5     O     0.78200   0.73920   0.26970   0.01267  Uiso   1.00
O6     O     0.66500   0.68660   0.38120   0.01267  Uiso   1.00
O7     O     0.70340   0.56520   0.29940   0.01267  Uiso   1.00
O8     O     0.58900   0.65140   0.25070   0.01267  Uiso   1.00
Cl3    Cl    0.18564   0.66105   0.19973   0.01267  Uiso   1.00
O9     O     0.28200   0.73920   0.23030   0.01267  Uiso   1.00
O10    O     0.16500   0.68660   0.11880   0.01267  Uiso   1.00
O11    O     0.20340   0.56520   0.20060   0.01267  Uiso   1.00
O12    O     0.08900   0.65140   0.24930   0.01267  Uiso   1.00
Cl4    Cl    0.31436   0.33895   0.69973   0.01267  Uiso   1.00
O13    O     0.21800   0.26080   0.73030   0.01267  Uiso   1.00
O14    O     0.33500   0.31340   0.61880   0.01267  Uiso   1.00
O15    O     0.29660   0.43480   0.70060   0.01267  Uiso   1.00
O16    O     0.41100   0.34860   0.74930   0.01267  Uiso   1.00
