data_KICXEB_clean
_audit_creation_date              2014-07-02
_audit_creation_method            'Materials Studio'
_symmetry_space_group_name_H-M    'P1'
_symmetry_Int_Tables_number       1
_symmetry_cell_setting            triclinic
loop_
_symmetry_equiv_pos_as_xyz
  x,y,z
_cell_length_a                    14.8680
_cell_length_b                    14.9430
_cell_length_c                    22.1170
_cell_angle_alpha                 88.5430
_cell_angle_beta                  86.8220
_cell_angle_gamma                 75.6150
loop_
_atom_site_label
_atom_site_type_symbol
_atom_site_fract_x
_atom_site_fract_y
_atom_site_fract_z
_atom_site_U_iso_or_equiv
_atom_site_adp_type
_atom_site_occupancy
Co1    Co    0.22230   0.74880   0.52030   0.01267  Uiso   1.00
Co2    Co    0.77770   0.25120   0.47970   0.01267  Uiso   1.00
Co3    Co    0.50000   0.00000   0.00000   0.01267  Uiso   1.00
Co4    Co    0.00000   0.50000   0.00000   0.01267  Uiso   1.00
P1     P     0.28170   0.38020   0.72580   0.01267  Uiso   1.00
P2     P     0.24820   0.12380   0.72550   0.01267  Uiso   1.00
P3     P     0.71830   0.61980   0.27420   0.01267  Uiso   1.00
P4     P     0.75180   0.87620   0.27450   0.01267  Uiso   1.00
H1     H     0.21790   0.49140   0.21300   0.01267  Uiso   1.00
H2     H     0.31900   0.49040   0.18880   0.01267  Uiso   1.00
H3     H     0.43490   0.87140   0.11110   0.01267  Uiso   1.00
H4     H     0.91820   0.58870   0.56760   0.01267  Uiso   1.00
H5     H     0.89490   0.61410   0.63580   0.01267  Uiso   1.00
H6     H     0.27290   0.02660   0.99840   0.01267  Uiso   1.00
H7     H     0.63280   0.78010   0.01010   0.01267  Uiso   1.00
H8     H     0.17240   0.04580   0.32630   0.01267  Uiso   1.00
H9     H     0.08680   0.01150   0.30690   0.01267  Uiso   1.00
H10    H     0.76170   0.66020   0.58460   0.01267  Uiso   1.00
H11    H     0.80900   0.71590   0.53730   0.01267  Uiso   1.00
H12    H     0.80620   0.79780   0.64630   0.01267  Uiso   1.00
H13    H     0.66840   0.89560   0.62920   0.01267  Uiso   1.00
H14    H     0.68170   0.86270   0.56190   0.01267  Uiso   1.00
H15    H     0.22160   0.84610   0.16840   0.01267  Uiso   1.00
H16    H     0.31680   0.84640   0.19570   0.01267  Uiso   1.00
H17    H     0.25140   0.01130   0.21230   0.01267  Uiso   1.00
H18    H     0.15460   0.99200   0.20020   0.01267  Uiso   1.00
H19    H     0.27130   0.91120   0.29450   0.01267  Uiso   1.00
H20    H     0.18740   0.87220   0.27840   0.01267  Uiso   1.00
H21    H     0.63200   0.74320   0.69640   0.01267  Uiso   1.00
H22    H     0.42630   0.74310   0.59430   0.01267  Uiso   1.00
H23    H     0.22670   0.48140   0.99170   0.01267  Uiso   1.00
H24    H     0.28660   0.61670   0.26900   0.01267  Uiso   1.00
H25    H     0.34710   0.51580   0.27780   0.01267  Uiso   1.00
H26    H     0.17720   0.65160   0.19070   0.01267  Uiso   1.00
H27    H     0.27530   0.63810   0.15740   0.01267  Uiso   1.00
H28    H     0.15890   0.57180   0.30850   0.01267  Uiso   1.00
H29    H     0.22110   0.47200   0.31870   0.01267  Uiso   1.00
H30    H     0.35410   0.53960   0.48930   0.01267  Uiso   1.00
H31    H     0.92990   0.80470   0.80200   0.01267  Uiso   1.00
H32    H     0.92530   0.70770   0.77820   0.01267  Uiso   1.00
H33    H     0.77950   0.82310   0.76430   0.01267  Uiso   1.00
H34    H     0.76630   0.83400   0.83500   0.01267  Uiso   1.00
H35    H     0.76070   0.67500   0.76980   0.01267  Uiso   1.00
H36    H     0.76990   0.66990   0.84020   0.01267  Uiso   1.00
H37    H     0.60990   0.69330   0.81190   0.01267  Uiso   1.00
H38    H     0.61430   0.79130   0.78610   0.01267  Uiso   1.00
H39    H     0.15740   0.68300   0.39130   0.01267  Uiso   1.00
H40    H     0.06980   0.94270   0.50810   0.01267  Uiso   1.00
H41    H     0.23160   0.82380   0.37780   0.01267  Uiso   1.00
H42    H     0.89770   0.72430   0.00420   0.01267  Uiso   1.00
H43    H     0.05330   0.64010   0.51870   0.01267  Uiso   1.00
H44    H     0.08400   0.81190   0.63930   0.01267  Uiso   1.00
H45    H     0.97850   0.57950   0.85950   0.01267  Uiso   1.00
H46    H     0.53550   0.91180   0.86780   0.01267  Uiso   1.00
H47    H     0.05040   0.60240   0.12470   0.01267  Uiso   1.00
H48    H     0.78210   0.50860   0.78700   0.01267  Uiso   1.00
H49    H     0.68100   0.50960   0.81120   0.01267  Uiso   1.00
H50    H     0.56510   0.12860   0.88890   0.01267  Uiso   1.00
H51    H     0.08180   0.41130   0.43240   0.01267  Uiso   1.00
H52    H     0.10510   0.38590   0.36420   0.01267  Uiso   1.00
H53    H     0.72710   0.97340   0.00160   0.01267  Uiso   1.00
H54    H     0.36720   0.21990   0.98990   0.01267  Uiso   1.00
H55    H     0.82760   0.95420   0.67370   0.01267  Uiso   1.00
H56    H     0.91320   0.98850   0.69310   0.01267  Uiso   1.00
H57    H     0.23830   0.33980   0.41540   0.01267  Uiso   1.00
H58    H     0.19100   0.28410   0.46270   0.01267  Uiso   1.00
H59    H     0.19380   0.20220   0.35370   0.01267  Uiso   1.00
H60    H     0.33160   0.10440   0.37080   0.01267  Uiso   1.00
H61    H     0.31830   0.13730   0.43810   0.01267  Uiso   1.00
H62    H     0.77840   0.15390   0.83160   0.01267  Uiso   1.00
H63    H     0.68320   0.15360   0.80430   0.01267  Uiso   1.00
H64    H     0.74860   0.98870   0.78770   0.01267  Uiso   1.00
H65    H     0.84540   0.00800   0.79980   0.01267  Uiso   1.00
H66    H     0.72870   0.08880   0.70550   0.01267  Uiso   1.00
H67    H     0.81260   0.12780   0.72160   0.01267  Uiso   1.00
H68    H     0.36800   0.25680   0.30360   0.01267  Uiso   1.00
H69    H     0.57370   0.25690   0.40570   0.01267  Uiso   1.00
H70    H     0.77330   0.51860   0.00830   0.01267  Uiso   1.00
H71    H     0.71340   0.38330   0.73100   0.01267  Uiso   1.00
H72    H     0.65290   0.48420   0.72220   0.01267  Uiso   1.00
H73    H     0.82280   0.34840   0.80930   0.01267  Uiso   1.00
H74    H     0.72470   0.36190   0.84260   0.01267  Uiso   1.00
H75    H     0.84110   0.42820   0.69150   0.01267  Uiso   1.00
H76    H     0.77890   0.52800   0.68130   0.01267  Uiso   1.00
H77    H     0.64590   0.46040   0.51070   0.01267  Uiso   1.00
H78    H     0.07010   0.19530   0.19800   0.01267  Uiso   1.00
H79    H     0.07470   0.29230   0.22180   0.01267  Uiso   1.00
H80    H     0.22050   0.17690   0.23570   0.01267  Uiso   1.00
H81    H     0.23370   0.16600   0.16500   0.01267  Uiso   1.00
H82    H     0.23930   0.32500   0.23020   0.01267  Uiso   1.00
H83    H     0.23010   0.33010   0.15980   0.01267  Uiso   1.00
H84    H     0.39010   0.30670   0.18810   0.01267  Uiso   1.00
H85    H     0.38570   0.20870   0.21390   0.01267  Uiso   1.00
H86    H     0.84260   0.31700   0.60870   0.01267  Uiso   1.00
H87    H     0.93020   0.05730   0.49190   0.01267  Uiso   1.00
H88    H     0.76840   0.17620   0.62220   0.01267  Uiso   1.00
H89    H     0.10230   0.27570   0.99580   0.01267  Uiso   1.00
H90    H     0.94670   0.35990   0.48130   0.01267  Uiso   1.00
H91    H     0.91600   0.18810   0.36070   0.01267  Uiso   1.00
H92    H     0.02150   0.42050   0.14050   0.01267  Uiso   1.00
H93    H     0.46450   0.08820   0.13220   0.01267  Uiso   1.00
H94    H     0.94960   0.39760   0.87530   0.01267  Uiso   1.00
W1     W     0.40549   0.34027   0.58681   0.01267  Uiso   1.00
W2     W     0.33860   0.88945   0.77041   0.01267  Uiso   1.00
W3     W     0.12694   0.16183   0.86851   0.01267  Uiso   1.00
W4     W     0.39981   0.32713   0.86121   0.01267  Uiso   1.00
W5     W     0.35841   0.08817   0.86281   0.01267  Uiso   1.00
W6     W     0.03958   0.46337   0.73072   0.01267  Uiso   1.00
W7     W     0.42404   0.52438   0.76398   0.01267  Uiso   1.00
W8     W     0.19035   0.60831   0.77949   0.01267  Uiso   1.00
W9     W     0.10433   0.97361   0.77081   0.01267  Uiso   1.00
W10    W     0.23105   0.93483   0.63845   0.01267  Uiso   1.00
W11    W     0.29592   0.57558   0.64062   0.01267  Uiso   1.00
W12    W     0.15003   0.41932   0.59471   0.01267  Uiso   1.00
W13    W     0.00582   0.22090   0.72748   0.01267  Uiso   1.00
W14    W     0.52336   0.28175   0.71262   0.01267  Uiso   1.00
W15    W     0.16815   0.40022   0.86958   0.01267  Uiso   1.00
W16    W     0.37681   0.09589   0.58832   0.01267  Uiso   1.00
W17    W     0.49141   0.03884   0.71674   0.01267  Uiso   1.00
W18    W     0.12146   0.17541   0.59333   0.01267  Uiso   1.00
W19    W     0.59451   0.65973   0.41319   0.01267  Uiso   1.00
W20    W     0.66140   0.11055   0.22959   0.01267  Uiso   1.00
W21    W     0.87306   0.83817   0.13149   0.01267  Uiso   1.00
W22    W     0.60019   0.67287   0.13879   0.01267  Uiso   1.00
W23    W     0.64159   0.91183   0.13719   0.01267  Uiso   1.00
W24    W     0.96042   0.53663   0.26928   0.01267  Uiso   1.00
W25    W     0.57596   0.47562   0.23602   0.01267  Uiso   1.00
W26    W     0.80965   0.39169   0.22051   0.01267  Uiso   1.00
W27    W     0.89567   0.02639   0.22919   0.01267  Uiso   1.00
W28    W     0.76895   0.06517   0.36155   0.01267  Uiso   1.00
W29    W     0.70408   0.42442   0.35938   0.01267  Uiso   1.00
W30    W     0.84997   0.58068   0.40529   0.01267  Uiso   1.00
W31    W     0.99418   0.77910   0.27252   0.01267  Uiso   1.00
W32    W     0.47664   0.71825   0.28738   0.01267  Uiso   1.00
W33    W     0.83185   0.59978   0.13042   0.01267  Uiso   1.00
W34    W     0.62319   0.90411   0.41168   0.01267  Uiso   1.00
W35    W     0.50859   0.96116   0.28326   0.01267  Uiso   1.00
W36    W     0.87854   0.82459   0.40667   0.01267  Uiso   1.00
C1     C     0.26300   0.52800   0.20840   0.01267  Uiso   1.00
C2     C     0.38200   0.90700   0.09360   0.01267  Uiso   1.00
C3     C     0.90100   0.64000   0.59500   0.01267  Uiso   1.00
C4     C     0.29400   0.99200   0.03300   0.01267  Uiso   1.00
C5     C     0.61700   0.79200   0.97000   0.01267  Uiso   1.00
C6     C     0.14900   0.99200   0.32230   0.01267  Uiso   1.00
C7     C     0.80600   0.69800   0.57970   0.01267  Uiso   1.00
C8     C     0.77100   0.78300   0.61630   0.01267  Uiso   1.00
C9     C     0.68100   0.84200   0.60400   0.01267  Uiso   1.00
C10    C     0.26400   0.88400   0.17500   0.01267  Uiso   1.00
C11    C     0.21600   0.96500   0.21420   0.01267  Uiso   1.00
C12    C     0.20900   0.92800   0.27930   0.01267  Uiso   1.00
C13    C     0.59300   0.75000   0.66440   0.01267  Uiso   1.00
C14    C     0.48100   0.75200   0.60760   0.01267  Uiso   1.00
C15    C     0.20200   0.51300   0.02680   0.01267  Uiso   1.00
C16    C     0.28500   0.55200   0.26930   0.01267  Uiso   1.00
C17    C     0.22600   0.60800   0.16860   0.01267  Uiso   1.00
C18    C     0.22100   0.53700   0.31750   0.01267  Uiso   1.00
C19    C     0.31200   0.55800   0.45890   0.01267  Uiso   1.00
C20    C     0.90000   0.75400   0.80850   0.01267  Uiso   1.00
C21    C     0.79200   0.79100   0.80300   0.01267  Uiso   1.00
C22    C     0.74600   0.71000   0.80700   0.01267  Uiso   1.00
C23    C     0.63800   0.74400   0.81620   0.01267  Uiso   1.00
C24    C     0.20500   0.63700   0.40590   0.01267  Uiso   1.00
C25    C     0.10100   0.93100   0.47000   0.01267  Uiso   1.00
C26    C     0.18900   0.86600   0.40170   0.01267  Uiso   1.00
C27    C     0.91700   0.70800   0.96400   0.01267  Uiso   1.00
C28    C     0.04400   0.67800   0.55250   0.01267  Uiso   1.00
C29    C     0.06100   0.76900   0.61840   0.01267  Uiso   1.00
C30    C     0.95600   0.62800   0.88590   0.01267  Uiso   1.00
C31    C     0.56500   0.86600   0.89420   0.01267  Uiso   1.00
C32    C     0.10300   0.58300   0.09890   0.01267  Uiso   1.00
C33    C     0.73700   0.47200   0.79160   0.01267  Uiso   1.00
C34    C     0.61800   0.09300   0.90640   0.01267  Uiso   1.00
C35    C     0.09900   0.36000   0.40500   0.01267  Uiso   1.00
C36    C     0.70600   0.00800   0.96700   0.01267  Uiso   1.00
C37    C     0.38300   0.20800   0.03000   0.01267  Uiso   1.00
C38    C     0.85100   0.00800   0.67770   0.01267  Uiso   1.00
C39    C     0.19400   0.30200   0.42030   0.01267  Uiso   1.00
C40    C     0.22900   0.21700   0.38370   0.01267  Uiso   1.00
C41    C     0.31900   0.15800   0.39600   0.01267  Uiso   1.00
C42    C     0.73600   0.11600   0.82500   0.01267  Uiso   1.00
C43    C     0.78400   0.03500   0.78580   0.01267  Uiso   1.00
C44    C     0.79100   0.07200   0.72070   0.01267  Uiso   1.00
C45    C     0.40700   0.25000   0.33560   0.01267  Uiso   1.00
C46    C     0.51900   0.24800   0.39240   0.01267  Uiso   1.00
C47    C     0.79800   0.48700   0.97320   0.01267  Uiso   1.00
C48    C     0.71500   0.44800   0.73070   0.01267  Uiso   1.00
C49    C     0.77400   0.39200   0.83140   0.01267  Uiso   1.00
C50    C     0.77900   0.46300   0.68250   0.01267  Uiso   1.00
C51    C     0.68800   0.44200   0.54110   0.01267  Uiso   1.00
C52    C     0.10000   0.24600   0.19150   0.01267  Uiso   1.00
C53    C     0.20800   0.20900   0.19700   0.01267  Uiso   1.00
C54    C     0.25400   0.29000   0.19300   0.01267  Uiso   1.00
C55    C     0.36200   0.25600   0.18380   0.01267  Uiso   1.00
C56    C     0.79500   0.36300   0.59410   0.01267  Uiso   1.00
C57    C     0.89900   0.06900   0.53000   0.01267  Uiso   1.00
C58    C     0.81100   0.13400   0.59830   0.01267  Uiso   1.00
C59    C     0.08300   0.29200   0.03600   0.01267  Uiso   1.00
C60    C     0.95600   0.32200   0.44750   0.01267  Uiso   1.00
C61    C     0.93900   0.23100   0.38160   0.01267  Uiso   1.00
C62    C     0.04400   0.37200   0.11410   0.01267  Uiso   1.00
C63    C     0.43500   0.13400   0.10580   0.01267  Uiso   1.00
C64    C     0.89700   0.41700   0.90110   0.01267  Uiso   1.00
N1     N     0.14300   0.94600   0.38330   0.01267  Uiso   1.00
N2     N     0.10000   0.73200   0.56610   0.01267  Uiso   1.00
N3     N     0.95900   0.62200   0.94500   0.01267  Uiso   1.00
N4     N     0.24200   0.64000   0.45910   0.01267  Uiso   1.00
N5     N     0.38500   0.95600   0.04280   0.01267  Uiso   1.00
N6     N     0.56200   0.87200   0.95450   0.01267  Uiso   1.00
N7     N     0.29700   0.91600   0.11600   0.01267  Uiso   1.00
N8     N     0.98400   0.73800   0.63840   0.01267  Uiso   1.00
N9     N     0.08100   0.98800   0.42590   0.01267  Uiso   1.00
N10    N     0.23600   0.97300   0.07780   0.01267  Uiso   1.00
N11    N     0.60100   0.79400   0.61440   0.01267  Uiso   1.00
N12    N     0.64800   0.73500   0.93040   0.01267  Uiso   1.00
N13    N     0.53400   0.79900   0.57770   0.01267  Uiso   1.00
N14    N     0.90900   0.76700   0.91620   0.01267  Uiso   1.00
N15    N     0.18700   0.58000   0.11010   0.01267  Uiso   1.00
N16    N     0.24300   0.56400   0.37720   0.01267  Uiso   1.00
N17    N     0.31100   0.50900   0.40920   0.01267  Uiso   1.00
N18    N     0.91700   0.71400   0.86930   0.01267  Uiso   1.00
N19    N     0.25000   0.53200   0.07310   0.01267  Uiso   1.00
N20    N     0.52000   0.71900   0.66180   0.01267  Uiso   1.00
N21    N     0.61600   0.78300   0.87780   0.01267  Uiso   1.00
N22    N     0.97200   0.68500   0.59420   0.01267  Uiso   1.00
N23    N     0.10500   0.55100   0.04180   0.01267  Uiso   1.00
N24    N     0.16700   0.85300   0.46050   0.01267  Uiso   1.00
N25    N     0.85700   0.05400   0.61670   0.01267  Uiso   1.00
N26    N     0.90000   0.26800   0.43390   0.01267  Uiso   1.00
N27    N     0.04100   0.37800   0.05500   0.01267  Uiso   1.00
N28    N     0.75800   0.36000   0.54090   0.01267  Uiso   1.00
N29    N     0.61500   0.04400   0.95720   0.01267  Uiso   1.00
N30    N     0.43800   0.12800   0.04550   0.01267  Uiso   1.00
N31    N     0.70300   0.08400   0.88400   0.01267  Uiso   1.00
N32    N     0.01600   0.26200   0.36160   0.01267  Uiso   1.00
N33    N     0.91900   0.01200   0.57410   0.01267  Uiso   1.00
N34    N     0.76400   0.02700   0.92220   0.01267  Uiso   1.00
N35    N     0.39900   0.20600   0.38560   0.01267  Uiso   1.00
N36    N     0.35200   0.26500   0.06960   0.01267  Uiso   1.00
N37    N     0.46600   0.20100   0.42230   0.01267  Uiso   1.00
N38    N     0.09100   0.23300   0.08380   0.01267  Uiso   1.00
N39    N     0.81300   0.42000   0.88990   0.01267  Uiso   1.00
N40    N     0.75700   0.43600   0.62280   0.01267  Uiso   1.00
N41    N     0.68900   0.49100   0.59080   0.01267  Uiso   1.00
N42    N     0.08300   0.28600   0.13070   0.01267  Uiso   1.00
N43    N     0.75000   0.46800   0.92690   0.01267  Uiso   1.00
N44    N     0.48000   0.28100   0.33820   0.01267  Uiso   1.00
N45    N     0.38400   0.21700   0.12220   0.01267  Uiso   1.00
N46    N     0.02800   0.31500   0.40580   0.01267  Uiso   1.00
N47    N     0.89500   0.44900   0.95820   0.01267  Uiso   1.00
N48    N     0.83300   0.14700   0.53950   0.01267  Uiso   1.00
O1     O     0.27660   0.35560   0.57740   0.01267  Uiso   1.00
O2     O     0.29360   0.48210   0.72690   0.01267  Uiso   1.00
O3     O     0.23650   0.02000   0.72600   0.01267  Uiso   1.00
O4     O     0.16230   0.27770   0.87880   0.01267  Uiso   1.00
O5     O     0.11570   0.30760   0.59460   0.01267  Uiso   1.00
O6     O     0.34120   0.12230   0.69130   0.01267  Uiso   1.00
O7     O     0.21760   0.64910   0.69730   0.01267  Uiso   1.00
O8     O     0.12770   0.92200   0.69270   0.01267  Uiso   1.00
O9     O     0.49070   0.41590   0.72810   0.01267  Uiso   1.00
O10    O     0.01510   0.34250   0.71890   0.01267  Uiso   1.00
O11    O     0.09590   0.56050   0.74320   0.01267  Uiso   1.00
O12    O     0.28370   0.37920   0.90620   0.01267  Uiso   1.00
O13    O     0.31460   0.60870   0.79880   0.01267  Uiso   1.00
O14    O     0.34170   0.97150   0.83290   0.01267  Uiso   1.00
O15    O     0.45040   0.07370   0.79570   0.01267  Uiso   1.00
O16    O     0.24860   0.14880   0.79070   0.01267  Uiso   1.00
O17    O     0.51480   0.15950   0.70250   0.01267  Uiso   1.00
O18    O     0.18670   0.52050   0.83990   0.01267  Uiso   1.00
O19    O     0.40950   0.20920   0.58600   0.01267  Uiso   1.00
O20    O     0.36590   0.20920   0.87120   0.01267  Uiso   1.00
O21    O     0.51960   0.30640   0.62820   0.01267  Uiso   1.00
O22    O     0.24940   0.16000   0.57670   0.01267  Uiso   1.00
O23    O     0.48530   0.03350   0.63100   0.01267  Uiso   1.00
O24    O     0.14650   0.04880   0.61160   0.01267  Uiso   1.00
O25    O     0.20310   0.52740   0.61690   0.01267  Uiso   1.00
O26    O     0.21280   0.88290   0.79320   0.01267  Uiso   1.00
O27    O     0.38380   0.46330   0.60690   0.01267  Uiso   1.00
O28    O     0.40790   0.44370   0.83140   0.01267  Uiso   1.00
O29    O     0.43210   0.94200   0.72950   0.01267  Uiso   1.00
O30    O     0.32420   0.99030   0.60840   0.01267  Uiso   1.00
O31    O     0.12330   0.04860   0.83900   0.01267  Uiso   1.00
O32    O     0.24230   0.10520   0.90570   0.01267  Uiso   1.00
O33    O     0.16460   0.18510   0.69600   0.01267  Uiso   1.00
O34    O     0.27760   0.34970   0.79220   0.01267  Uiso   1.00
O35    O     0.19020   0.38250   0.69580   0.01267  Uiso   1.00
O36    O     0.04560   0.47970   0.64420   0.01267  Uiso   1.00
O37    O     0.08000   0.41540   0.80760   0.01267  Uiso   1.00
O38    O     0.47870   0.27670   0.79350   0.01267  Uiso   1.00
O39    O     0.03530   0.08700   0.73980   0.01267  Uiso   1.00
O40    O     0.40090   0.58190   0.68820   0.01267  Uiso   1.00
O41    O     0.05110   0.22100   0.80860   0.01267  Uiso   1.00
O42    O     0.00900   0.20160   0.64320   0.01267  Uiso   1.00
O43    O     0.36510   0.31770   0.69110   0.01267  Uiso   1.00
O44    O     0.42560   0.04240   0.92250   0.01267  Uiso   1.00
O45    O     0.09560   0.44310   0.93000   0.01267  Uiso   1.00
O46    O     0.22310   0.85770   0.58360   0.01267  Uiso   1.00
O47    O     0.31230   0.85400   0.69090   0.01267  Uiso   1.00
O48    O     0.72340   0.64440   0.42260   0.01267  Uiso   1.00
O49    O     0.70640   0.51790   0.27310   0.01267  Uiso   1.00
O50    O     0.76350   0.98000   0.27400   0.01267  Uiso   1.00
O51    O     0.83770   0.72230   0.12120   0.01267  Uiso   1.00
O52    O     0.88430   0.69240   0.40540   0.01267  Uiso   1.00
O53    O     0.65880   0.87770   0.30870   0.01267  Uiso   1.00
O54    O     0.78240   0.35090   0.30270   0.01267  Uiso   1.00
O55    O     0.87230   0.07800   0.30730   0.01267  Uiso   1.00
O56    O     0.50930   0.58410   0.27190   0.01267  Uiso   1.00
O57    O     0.98490   0.65750   0.28110   0.01267  Uiso   1.00
O58    O     0.90410   0.43950   0.25680   0.01267  Uiso   1.00
O59    O     0.71630   0.62080   0.09380   0.01267  Uiso   1.00
O60    O     0.68540   0.39130   0.20120   0.01267  Uiso   1.00
O61    O     0.65830   0.02850   0.16710   0.01267  Uiso   1.00
O62    O     0.54960   0.92630   0.20430   0.01267  Uiso   1.00
O63    O     0.75140   0.85120   0.20930   0.01267  Uiso   1.00
O64    O     0.48520   0.84050   0.29750   0.01267  Uiso   1.00
O65    O     0.81330   0.47950   0.16010   0.01267  Uiso   1.00
O66    O     0.59050   0.79080   0.41400   0.01267  Uiso   1.00
O67    O     0.63410   0.79080   0.12880   0.01267  Uiso   1.00
O68    O     0.48040   0.69360   0.37180   0.01267  Uiso   1.00
O69    O     0.75060   0.84000   0.42330   0.01267  Uiso   1.00
O70    O     0.51470   0.96650   0.36900   0.01267  Uiso   1.00
O71    O     0.85350   0.95120   0.38840   0.01267  Uiso   1.00
O72    O     0.79690   0.47260   0.38310   0.01267  Uiso   1.00
O73    O     0.78720   0.11710   0.20680   0.01267  Uiso   1.00
O74    O     0.61620   0.53670   0.39310   0.01267  Uiso   1.00
O75    O     0.59210   0.55630   0.16860   0.01267  Uiso   1.00
O76    O     0.56790   0.05800   0.27050   0.01267  Uiso   1.00
O77    O     0.67580   0.00970   0.39160   0.01267  Uiso   1.00
O78    O     0.87670   0.95140   0.16100   0.01267  Uiso   1.00
O79    O     0.75770   0.89480   0.09430   0.01267  Uiso   1.00
O80    O     0.83540   0.81490   0.30400   0.01267  Uiso   1.00
O81    O     0.72240   0.65030   0.20780   0.01267  Uiso   1.00
O82    O     0.80980   0.61750   0.30420   0.01267  Uiso   1.00
O83    O     0.95440   0.52030   0.35580   0.01267  Uiso   1.00
O84    O     0.92000   0.58460   0.19240   0.01267  Uiso   1.00
O85    O     0.52130   0.72330   0.20650   0.01267  Uiso   1.00
O86    O     0.96470   0.91300   0.26020   0.01267  Uiso   1.00
O87    O     0.59910   0.41810   0.31180   0.01267  Uiso   1.00
O88    O     0.94890   0.77900   0.19140   0.01267  Uiso   1.00
O89    O     0.99100   0.79840   0.35680   0.01267  Uiso   1.00
O90    O     0.63490   0.68230   0.30890   0.01267  Uiso   1.00
O91    O     0.57440   0.95760   0.07750   0.01267  Uiso   1.00
O92    O     0.90440   0.55690   0.07000   0.01267  Uiso   1.00
O93    O     0.77690   0.14230   0.41640   0.01267  Uiso   1.00
O94    O     0.68770   0.14600   0.30910   0.01267  Uiso   1.00
