data_KICXAX_clean
_audit_creation_date              2014-07-02
_audit_creation_method            'Materials Studio'
_symmetry_space_group_name_H-M    'P1'
_symmetry_Int_Tables_number       1
_symmetry_cell_setting            triclinic
loop_
_symmetry_equiv_pos_as_xyz
  x,y,z
_cell_length_a                    14.8400
_cell_length_b                    14.9070
_cell_length_c                    22.1180
_cell_angle_alpha                 88.7670
_cell_angle_beta                  87.1690
_cell_angle_gamma                 75.7960
loop_
_atom_site_label
_atom_site_type_symbol
_atom_site_fract_x
_atom_site_fract_y
_atom_site_fract_z
_atom_site_U_iso_or_equiv
_atom_site_adp_type
_atom_site_occupancy
Co1    Co    0.27730   0.75250   0.98040   0.01267  Uiso   1.00
Co2    Co    0.72270   0.24750   0.01960   0.01267  Uiso   1.00
Co3    Co    0.50000  -0.00000   0.50000   0.01267  Uiso   1.00
Co4    Co    0.00000   0.50000   0.50000   0.01267  Uiso   1.00
As1    As    0.21770   0.12220   0.77420   0.01267  Uiso   1.00
As2    As    0.25090   0.37140   0.77510   0.01267  Uiso   1.00
As3    As    0.78230   0.87780   0.22580   0.01267  Uiso   1.00
As4    As    0.74910   0.62860   0.22490   0.01267  Uiso   1.00
H1     H     0.26870   0.67630   0.12270   0.01267  Uiso   1.00
H2     H     0.44090   0.55610   0.99450   0.01267  Uiso   1.00
H3     H     0.41110   0.49160   0.19570   0.01267  Uiso   1.00
H4     H     0.32810   0.45510   0.17260   0.01267  Uiso   1.00
H5     H     0.41170   0.69120   0.85640   0.01267  Uiso   1.00
H6     H     0.44350   0.86000   0.97820   0.01267  Uiso   1.00
H7     H     0.60450   0.88320   0.86470   0.01267  Uiso   1.00
H8     H     0.58160   0.91250   0.93240   0.01267  Uiso   1.00
H9     H     0.68590   0.77500   0.96410   0.01267  Uiso   1.00
H10    H     0.73750   0.83480   0.92280   0.01267  Uiso   1.00
H11    H     0.14750   0.95670   0.01130   0.01267  Uiso   1.00
H12    H     0.23200   0.46370   0.50260   0.01267  Uiso   1.00
H13    H     0.05860   0.63200   0.38800   0.01267  Uiso   1.00
H14    H     0.42290   0.21310   0.27760   0.01267  Uiso   1.00
H15    H     0.42420   0.31110   0.30230   0.01267  Uiso   1.00
H16    H     0.26810   0.33400   0.33460   0.01267  Uiso   1.00
H17    H     0.28080   0.32190   0.26420   0.01267  Uiso   1.00
H18    H     0.26700   0.17350   0.34230   0.01267  Uiso   1.00
H19    H     0.26470   0.17250   0.27170   0.01267  Uiso   1.00
H20    H     0.73460   0.73810   0.84090   0.01267  Uiso   1.00
H21    H     0.68460   0.67780   0.88290   0.01267  Uiso   1.00
H22    H     0.83360   0.60070   0.87210   0.01267  Uiso   1.00
H23    H     0.81780   0.63590   0.93900   0.01267  Uiso   1.00
H24    H     0.97320   0.67700   0.96020   0.01267  Uiso   1.00
H25    H     0.11380   0.18880   0.30610   0.01267  Uiso   1.00
H26    H     0.11750   0.28780   0.28110   0.01267  Uiso   1.00
H27    H     0.18450   0.65530   0.30320   0.01267  Uiso   1.00
H28    H     0.28060   0.65410   0.33020   0.01267  Uiso   1.00
H29    H     0.34480   0.51320   0.29700   0.01267  Uiso   1.00
H30    H     0.24760   0.49190   0.28770   0.01267  Uiso   1.00
H31    H     0.34110   0.93010   0.19090   0.01267  Uiso   1.00
H32    H     0.27970   0.03010   0.17910   0.01267  Uiso   1.00
H33    H     0.14980   0.99100   0.22330   0.01267  Uiso   1.00
H34    H     0.20500   0.88720   0.23000   0.01267  Uiso   1.00
H35    H     0.99420   0.82270   0.80950   0.01267  Uiso   1.00
H36    H     0.19050   0.01460   0.31480   0.01267  Uiso   1.00
H37    H     0.29300   0.00110   0.28840   0.01267  Uiso   1.00
H38    H     0.21580   0.86610   0.33900   0.01267  Uiso   1.00
H39    H     0.31520   0.84520   0.30600   0.01267  Uiso   1.00
H40    H     0.30130   0.63560   0.21890   0.01267  Uiso   1.00
H41    H     0.22150   0.58860   0.20380   0.01267  Uiso   1.00
H42    H     0.33970   0.81220   0.11080   0.01267  Uiso   1.00
H43    H     0.12230   0.27650   0.51780   0.01267  Uiso   1.00
H44    H     0.03490   0.41530   0.36280   0.01267  Uiso   1.00
H45    H     0.40090   0.22480   0.51430   0.01267  Uiso   1.00
H46    H     0.48450   0.07940   0.35950   0.01267  Uiso   1.00
H47    H     0.28040   0.01690   0.51260   0.01267  Uiso   1.00
H48    H     0.45470   0.88340   0.37760   0.01267  Uiso   1.00
H49    H     0.73130   0.32370   0.87730   0.01267  Uiso   1.00
H50    H     0.55910   0.44390   0.00550   0.01267  Uiso   1.00
H51    H     0.58890   0.50840   0.80430   0.01267  Uiso   1.00
H52    H     0.67190   0.54490   0.82740   0.01267  Uiso   1.00
H53    H     0.58830   0.30880   0.14360   0.01267  Uiso   1.00
H54    H     0.55650   0.14000   0.02180   0.01267  Uiso   1.00
H55    H     0.39550   0.11680   0.13530   0.01267  Uiso   1.00
H56    H     0.41840   0.08750   0.06760   0.01267  Uiso   1.00
H57    H     0.31410   0.22500   0.03590   0.01267  Uiso   1.00
H58    H     0.26250   0.16520   0.07720   0.01267  Uiso   1.00
H59    H     0.85250   0.04330   0.98870   0.01267  Uiso   1.00
H60    H     0.76800   0.53630   0.49740   0.01267  Uiso   1.00
H61    H     0.94140   0.36800   0.61200   0.01267  Uiso   1.00
H62    H     0.57710   0.78690   0.72240   0.01267  Uiso   1.00
H63    H     0.57580   0.68890   0.69770   0.01267  Uiso   1.00
H64    H     0.73190   0.66600   0.66540   0.01267  Uiso   1.00
H65    H     0.71920   0.67810   0.73580   0.01267  Uiso   1.00
H66    H     0.73300   0.82650   0.65770   0.01267  Uiso   1.00
H67    H     0.73530   0.82750   0.72830   0.01267  Uiso   1.00
H68    H     0.26540   0.26190   0.15910   0.01267  Uiso   1.00
H69    H     0.31540   0.32220   0.11710   0.01267  Uiso   1.00
H70    H     0.16640   0.39930   0.12790   0.01267  Uiso   1.00
H71    H     0.18220   0.36410   0.06100   0.01267  Uiso   1.00
H72    H     0.02680   0.32300   0.03980   0.01267  Uiso   1.00
H73    H     0.88620   0.81120   0.69390   0.01267  Uiso   1.00
H74    H     0.88250   0.71220   0.71890   0.01267  Uiso   1.00
H75    H     0.81550   0.34470   0.69680   0.01267  Uiso   1.00
H76    H     0.71940   0.34590   0.66980   0.01267  Uiso   1.00
H77    H     0.65520   0.48680   0.70300   0.01267  Uiso   1.00
H78    H     0.75240   0.50810   0.71230   0.01267  Uiso   1.00
H79    H     0.65890   0.06990   0.80910   0.01267  Uiso   1.00
H80    H     0.72030   0.96990   0.82090   0.01267  Uiso   1.00
H81    H     0.85020   0.00900   0.77670   0.01267  Uiso   1.00
H82    H     0.79500   0.11280   0.77000   0.01267  Uiso   1.00
H83    H     0.00580   0.17730   0.19050   0.01267  Uiso   1.00
H84    H     0.80950   0.98540   0.68520   0.01267  Uiso   1.00
H85    H     0.70700   0.99890   0.71160   0.01267  Uiso   1.00
H86    H     0.78420   0.13390   0.66100   0.01267  Uiso   1.00
H87    H     0.68480   0.15480   0.69400   0.01267  Uiso   1.00
H88    H     0.69870   0.36440   0.78110   0.01267  Uiso   1.00
H89    H     0.77850   0.41140   0.79620   0.01267  Uiso   1.00
H90    H     0.66030   0.18780   0.88920   0.01267  Uiso   1.00
H91    H     0.87770   0.72350   0.48220   0.01267  Uiso   1.00
H92    H     0.96510   0.58470   0.63720   0.01267  Uiso   1.00
H93    H     0.59910   0.77520   0.48570   0.01267  Uiso   1.00
H94    H     0.51550   0.92060   0.64050   0.01267  Uiso   1.00
H95    H     0.71960   0.98310   0.48740   0.01267  Uiso   1.00
H96    H     0.54530   0.11660   0.62240   0.01267  Uiso   1.00
W1     W     0.20306   0.92224   0.85882   0.01267  Uiso   1.00
W2     W     0.49543   0.27698   0.77457   0.01267  Uiso   1.00
W3     W     0.12031   0.40288   0.91245   0.01267  Uiso   1.00
W4     W     0.09113   0.15820   0.91295   0.01267  Uiso   1.00
W5     W     0.46040   0.03450   0.77106   0.01267  Uiso   1.00
W6     W     0.16235   0.60843   0.72927   0.01267  Uiso   1.00
W7     W     0.39582   0.52510   0.73124   0.01267  Uiso   1.00
W8     W     0.26704   0.56490   0.86205   0.01267  Uiso   1.00
W9     W     0.34906   0.08018   0.90664   0.01267  Uiso   1.00
W10    W     0.37826   0.32433   0.90797   0.01267  Uiso   1.00
W11    W     0.07499   0.97269   0.73534   0.01267  Uiso   1.00
W12    W     0.14185   0.40874   0.63571   0.01267  Uiso   1.00
W13    W     0.00737   0.45967   0.78268   0.01267  Uiso   1.00
W14    W     0.09982   0.16937   0.63708   0.01267  Uiso   1.00
W15    W     0.30785   0.88989   0.72058   0.01267  Uiso   1.00
W16    W     0.37383   0.33652   0.63194   0.01267  Uiso   1.00
W17    W     0.33220   0.09784   0.63016   0.01267  Uiso   1.00
W18    W     0.97388   0.21709   0.78647   0.01267  Uiso   1.00
W19    W     0.79694   0.07776   0.14118   0.01267  Uiso   1.00
W20    W     0.50457   0.72302   0.22543   0.01267  Uiso   1.00
W21    W     0.87969   0.59712   0.08755   0.01267  Uiso   1.00
W22    W     0.90887   0.84180   0.08705   0.01267  Uiso   1.00
W23    W     0.53960   0.96550   0.22894   0.01267  Uiso   1.00
W24    W     0.83765   0.39157   0.27073   0.01267  Uiso   1.00
W25    W     0.60418   0.47490   0.26876   0.01267  Uiso   1.00
W26    W     0.73296   0.43510   0.13795   0.01267  Uiso   1.00
W27    W     0.65094   0.91982   0.09336   0.01267  Uiso   1.00
W28    W     0.62174   0.67567   0.09203   0.01267  Uiso   1.00
W29    W     0.92501   0.02731   0.26466   0.01267  Uiso   1.00
W30    W     0.85815   0.59126   0.36429   0.01267  Uiso   1.00
W31    W     0.99263   0.54033   0.21732   0.01267  Uiso   1.00
W32    W     0.90018   0.83063   0.36292   0.01267  Uiso   1.00
W33    W     0.69215   0.11011   0.27942   0.01267  Uiso   1.00
W34    W     0.62617   0.66348   0.36806   0.01267  Uiso   1.00
W35    W     0.66780   0.90216   0.36984   0.01267  Uiso   1.00
W36    W     0.02612   0.78291   0.21353   0.01267  Uiso   1.00
C1     C     0.31200   0.63500   0.09900   0.01267  Uiso   1.00
C2     C     0.40600   0.56800   0.03100   0.01267  Uiso   1.00
C3     C     0.35100   0.51000   0.17800   0.01267  Uiso   1.00
C4     C     0.43500   0.73100   0.87900   0.01267  Uiso   1.00
C5     C     0.45500   0.82100   0.94500   0.01267  Uiso   1.00
C6     C     0.59800   0.86000   0.90600   0.01267  Uiso   1.00
C7     C     0.69200   0.79800   0.92300   0.01267  Uiso   1.00
C8     C     0.18800   0.94000   0.04300   0.01267  Uiso   1.00
C9     C     0.21000   0.50200   0.46990   0.01267  Uiso   1.00
C10    C     0.11200   0.59700   0.40520   0.01267  Uiso   1.00
C11    C     0.39600   0.25900   0.30800   0.01267  Uiso   1.00
C12    C     0.29400   0.29000   0.30300   0.01267  Uiso   1.00
C13    C     0.24600   0.21100   0.30700   0.01267  Uiso   1.00
C14    C     0.73000   0.71500   0.88200   0.01267  Uiso   1.00
C15    C     0.82000   0.65600   0.89700   0.01267  Uiso   1.00
C16    C     0.96400   0.70400   0.92200   0.01267  Uiso   1.00
C17    C     0.14100   0.24100   0.31200   0.01267  Uiso   1.00
C18    C     0.23700   0.61700   0.32300   0.01267  Uiso   1.00
C19    C     0.28200   0.54000   0.28500   0.01267  Uiso   1.00
C20    C     0.27900   0.96500   0.18100   0.01267  Uiso   1.00
C21    C     0.21000   0.95100   0.23100   0.01267  Uiso   1.00
C22    C     0.97600   0.78200   0.83700   0.01267  Uiso   1.00
C23    C     0.24200   0.97200   0.29400   0.01267  Uiso   1.00
C24    C     0.26900   0.89100   0.32830   0.01267  Uiso   1.00
C25    C     0.28300   0.57700   0.21900   0.01267  Uiso   1.00
C26    C     0.29400   0.86100   0.09600   0.01267  Uiso   1.00
C27    C     0.11300   0.29100   0.47710   0.01267  Uiso   1.00
C28    C     0.06300   0.36900   0.38950   0.01267  Uiso   1.00
C29    C     0.41100   0.20900   0.47360   0.01267  Uiso   1.00
C30    C     0.45800   0.12700   0.38610   0.01267  Uiso   1.00
C31    C     0.30300   0.98600   0.47660   0.01267  Uiso   1.00
C32    C     0.40100   0.91100   0.40030   0.01267  Uiso   1.00
C33    C     0.68800   0.36500   0.90100   0.01267  Uiso   1.00
C34    C     0.59400   0.43200   0.96900   0.01267  Uiso   1.00
C35    C     0.64900   0.49000   0.82200   0.01267  Uiso   1.00
C36    C     0.56500   0.26900   0.12100   0.01267  Uiso   1.00
C37    C     0.54500   0.17900   0.05500   0.01267  Uiso   1.00
C38    C     0.40200   0.14000   0.09400   0.01267  Uiso   1.00
C39    C     0.30800   0.20200   0.07700   0.01267  Uiso   1.00
C40    C     0.81200   0.06000   0.95700   0.01267  Uiso   1.00
C41    C     0.79000   0.49800   0.53010   0.01267  Uiso   1.00
C42    C     0.88800   0.40300   0.59480   0.01267  Uiso   1.00
C43    C     0.60400   0.74100   0.69200   0.01267  Uiso   1.00
C44    C     0.70600   0.71000   0.69700   0.01267  Uiso   1.00
C45    C     0.75400   0.78900   0.69300   0.01267  Uiso   1.00
C46    C     0.27000   0.28500   0.11800   0.01267  Uiso   1.00
C47    C     0.18000   0.34400   0.10300   0.01267  Uiso   1.00
C48    C     0.03600   0.29600   0.07800   0.01267  Uiso   1.00
C49    C     0.85900   0.75900   0.68800   0.01267  Uiso   1.00
C50    C     0.76300   0.38300   0.67700   0.01267  Uiso   1.00
C51    C     0.71800   0.46000   0.71500   0.01267  Uiso   1.00
C52    C     0.72100   0.03500   0.81900   0.01267  Uiso   1.00
C53    C     0.79000   0.04900   0.76900   0.01267  Uiso   1.00
C54    C     0.02400   0.21800   0.16300   0.01267  Uiso   1.00
C55    C     0.75800   0.02800   0.70600   0.01267  Uiso   1.00
C56    C     0.73100   0.10900   0.67170   0.01267  Uiso   1.00
C57    C     0.71700   0.42300   0.78100   0.01267  Uiso   1.00
C58    C     0.70600   0.13900   0.90400   0.01267  Uiso   1.00
C59    C     0.88700   0.70900   0.52290   0.01267  Uiso   1.00
C60    C     0.93700   0.63100   0.61050   0.01267  Uiso   1.00
C61    C     0.58900   0.79100   0.52640   0.01267  Uiso   1.00
C62    C     0.54200   0.87300   0.61390   0.01267  Uiso   1.00
C63    C     0.69700   0.01400   0.52340   0.01267  Uiso   1.00
C64    C     0.59900   0.08900   0.59970   0.01267  Uiso   1.00
N1     N     0.26520   0.52700   0.42130   0.01267  Uiso   1.00
N2     N     0.20500   0.58600   0.38130   0.01267  Uiso   1.00
N3     N     0.11500   0.54500   0.46000   0.01267  Uiso   1.00
N4     N     0.33100   0.65000   0.03900   0.01267  Uiso   1.00
N5     N     0.25600   0.86200   0.04400   0.01267  Uiso   1.00
N6     N     0.06100   0.37600   0.45360   0.01267  Uiso   1.00
N7     N     0.14800   0.23110   0.42770   0.01267  Uiso   1.00
N8     N     0.11700   0.28000   0.37350   0.01267  Uiso   1.00
N9     N     0.39900   0.76800   0.93400   0.01267  Uiso   1.00
N10    N     0.45800   0.12100   0.45030   0.01267  Uiso   1.00
N11    N     0.38300   0.26960   0.42380   0.01267  Uiso   1.00
N12    N     0.41200   0.21900   0.36970   0.01267  Uiso   1.00
N13    N     0.39800   0.95300   0.45770   0.01267  Uiso   1.00
N14    N     0.24730   0.96500   0.43090   0.01267  Uiso   1.00
N15    N     0.30800   0.91900   0.38370   0.01267  Uiso   1.00
N16    N     0.35900   0.55700   0.11700   0.01267  Uiso   1.00
N17    N     0.42000   0.51400   0.07600   0.01267  Uiso   1.00
N18    N     0.52600   0.81600   0.90800   0.01267  Uiso   1.00
N19    N     0.51300   0.76500   0.86400   0.01267  Uiso   1.00
N20    N     0.25700   0.93700   0.12400   0.01267  Uiso   1.00
N21    N     0.89500   0.70300   0.88700   0.01267  Uiso   1.00
N22    N     0.91200   0.74100   0.83400   0.01267  Uiso   1.00
N23    N     0.01400   0.74900   0.89400   0.01267  Uiso   1.00
N24    N     0.18300   0.99300   0.09300   0.01267  Uiso   1.00
N25    N     0.73480   0.47300   0.57870   0.01267  Uiso   1.00
N26    N     0.79500   0.41400   0.61870   0.01267  Uiso   1.00
N27    N     0.88500   0.45500   0.54000   0.01267  Uiso   1.00
N28    N     0.66900   0.35000   0.96100   0.01267  Uiso   1.00
N29    N     0.74400   0.13800   0.95600   0.01267  Uiso   1.00
N30    N     0.93900   0.62400   0.54640   0.01267  Uiso   1.00
N31    N     0.85200   0.76890   0.57230   0.01267  Uiso   1.00
N32    N     0.88300   0.72000   0.62650   0.01267  Uiso   1.00
N33    N     0.60100   0.23200   0.06600   0.01267  Uiso   1.00
N34    N     0.54200   0.87900   0.54970   0.01267  Uiso   1.00
N35    N     0.61700   0.73040   0.57620   0.01267  Uiso   1.00
N36    N     0.58800   0.78100   0.63030   0.01267  Uiso   1.00
N37    N     0.60200   0.04700   0.54230   0.01267  Uiso   1.00
N38    N     0.75270   0.03500   0.56910   0.01267  Uiso   1.00
N39    N     0.69200   0.08100   0.61630   0.01267  Uiso   1.00
N40    N     0.64100   0.44300   0.88300   0.01267  Uiso   1.00
N41    N     0.58000   0.48600   0.92400   0.01267  Uiso   1.00
N42    N     0.47400   0.18400   0.09200   0.01267  Uiso   1.00
N43    N     0.48700   0.23500   0.13600   0.01267  Uiso   1.00
N44    N     0.74300   0.06300   0.87600   0.01267  Uiso   1.00
N45    N     0.10500   0.29700   0.11300   0.01267  Uiso   1.00
N46    N     0.08800   0.25900   0.16600   0.01267  Uiso   1.00
N47    N     0.98600   0.25100   0.10600   0.01267  Uiso   1.00
N48    N     0.81700   0.00700   0.90700   0.01267  Uiso   1.00
O1     O     0.07300   0.45700   0.57740   0.01267  Uiso   1.00
O2     O     0.24600   0.34100   0.92200   0.01267  Uiso   1.00
O3     O     0.18400   0.88500   0.70280   0.01267  Uiso   1.00
O4     O     0.29200   0.62200   0.71360   0.01267  Uiso   1.00
O5     O     0.20500   0.18700   0.91040   0.01267  Uiso   1.00
O6     O     0.27600   0.64300   0.91720   0.01267  Uiso   1.00
O7     O     0.02400   0.22000   0.70630   0.01267  Uiso   1.00
O8     O     0.09500   0.05300   0.66930   0.01267  Uiso   1.00
O9     O     0.25000   0.34400   0.70410   0.01267  Uiso   1.00
O10    O     0.28200   0.84700   0.80420   0.01267  Uiso   1.00
O11    O     0.13300   0.28900   0.62330   0.01267  Uiso   1.00
O12    O     0.25900   0.39000   0.59320   0.01267  Uiso   1.00
O13    O     0.05500   0.42400   0.70220   0.01267  Uiso   1.00
O14    O     0.34100   0.30500   0.81020   0.01267  Uiso   1.00
O15    O     0.46300   0.41300   0.76420   0.01267  Uiso   1.00
O16    O     0.14700   0.37200   0.81050   0.01267  Uiso   1.00
O17    O     0.44600   0.27900   0.69210   0.01267  Uiso   1.00
O18    O     0.31300   0.12300   0.80780   0.01267  Uiso   1.00
O19    O     0.07000   0.55700   0.76990   0.01267  Uiso   1.00
O20    O     0.41900   0.08200   0.69460   0.01267  Uiso   1.00
O21    O     0.48900   0.15600   0.78140   0.01267  Uiso   1.00
O22    O     0.97800   0.19200   0.87170   0.01267  Uiso   1.00
O23    O     0.16000   0.52400   0.66860   0.01267  Uiso   1.00
O24    O     0.22200   0.15400   0.70120   0.01267  Uiso   1.00
O25    O     0.37400   0.45000   0.66130   0.01267  Uiso   1.00
O26    O     0.17400   0.50900   0.89240   0.01267  Uiso   1.00
O27    O     0.40200   0.93500   0.75730   0.01267  Uiso   1.00
O28    O     0.35200   0.45300   0.88820   0.01267  Uiso   1.00
O29    O     0.38500   0.19000   0.90960   0.01267  Uiso   1.00
O30    O     0.08500   0.29200   0.91850   0.01267  Uiso   1.00
O31    O     0.45200   0.01900   0.85700   0.01267  Uiso   1.00
O32    O     0.37400   0.57800   0.80710   0.01267  Uiso   1.00
O33    O     0.11700   0.03700   0.88990   0.01267  Uiso   1.00
O34    O     0.31400   0.97900   0.65870   0.01267  Uiso   1.00
O35    O     0.01300   0.46500   0.86960   0.01267  Uiso   1.00
O36    O     0.49300   0.29400   0.85950   0.01267  Uiso   1.00
O37    O     0.18900   0.64500   0.80730   0.01267  Uiso   1.00
O38    O     0.21400   0.12000   0.59170   0.01267  Uiso   1.00
O39    O     0.01000   0.08300   0.76840   0.01267  Uiso   1.00
O40    O     0.09700   0.91000   0.81160   0.01267  Uiso   1.00
O41    O     0.34000   0.22000   0.61740   0.01267  Uiso   1.00
O42    O     0.12600   0.19000   0.81370   0.01267  Uiso   1.00
O43    O     0.30600   0.96200   0.87130   0.01267  Uiso   1.00
O44    O     0.97900   0.33800   0.79610   0.01267  Uiso   1.00
O45    O     0.26400   0.48000   0.77610   0.01267  Uiso   1.00
O46    O     0.19300   0.84500   0.91450   0.01267  Uiso   1.00
O47    O     0.20200   0.01500   0.77320   0.01267  Uiso   1.00
O48    O     0.40600   0.05200   0.57180   0.01267  Uiso   1.00
O49    O     0.92700   0.54300   0.42260   0.01267  Uiso   1.00
O50    O     0.75400   0.65900   0.07800   0.01267  Uiso   1.00
O51    O     0.81600   0.11500   0.29720   0.01267  Uiso   1.00
O52    O     0.70800   0.37800   0.28640   0.01267  Uiso   1.00
O53    O     0.79500   0.81300   0.08960   0.01267  Uiso   1.00
O54    O     0.72400   0.35700   0.08280   0.01267  Uiso   1.00
O55    O     0.97600   0.78000   0.29370   0.01267  Uiso   1.00
O56    O     0.90500   0.94700   0.33070   0.01267  Uiso   1.00
O57    O     0.75000   0.65600   0.29590   0.01267  Uiso   1.00
O58    O     0.71800   0.15300   0.19580   0.01267  Uiso   1.00
O59    O     0.86700   0.71100   0.37670   0.01267  Uiso   1.00
O60    O     0.74100   0.61000   0.40680   0.01267  Uiso   1.00
O61    O     0.94500   0.57600   0.29780   0.01267  Uiso   1.00
O62    O     0.65900   0.69500   0.18980   0.01267  Uiso   1.00
O63    O     0.53700   0.58700   0.23580   0.01267  Uiso   1.00
O64    O     0.85300   0.62800   0.18950   0.01267  Uiso   1.00
O65    O     0.55400   0.72100   0.30790   0.01267  Uiso   1.00
O66    O     0.68700   0.87700   0.19220   0.01267  Uiso   1.00
O67    O     0.93000   0.44300   0.23010   0.01267  Uiso   1.00
O68    O     0.58100   0.91800   0.30540   0.01267  Uiso   1.00
O69    O     0.51100   0.84400   0.21860   0.01267  Uiso   1.00
O70    O     0.02200   0.80800   0.12830   0.01267  Uiso   1.00
O71    O     0.84000   0.47600   0.33140   0.01267  Uiso   1.00
O72    O     0.77800   0.84600   0.29880   0.01267  Uiso   1.00
O73    O     0.62600   0.55000   0.33870   0.01267  Uiso   1.00
O74    O     0.82600   0.49100   0.10760   0.01267  Uiso   1.00
O75    O     0.59800   0.06500   0.24270   0.01267  Uiso   1.00
O76    O     0.64800   0.54700   0.11180   0.01267  Uiso   1.00
O77    O     0.61500   0.81000   0.09040   0.01267  Uiso   1.00
O78    O     0.91500   0.70800   0.08150   0.01267  Uiso   1.00
O79    O     0.54800   0.98100   0.14300   0.01267  Uiso   1.00
O80    O     0.62600   0.42200   0.19290   0.01267  Uiso   1.00
O81    O     0.88300   0.96300   0.11010   0.01267  Uiso   1.00
O82    O     0.68600   0.02100   0.34130   0.01267  Uiso   1.00
O83    O     0.98700   0.53500   0.13040   0.01267  Uiso   1.00
O84    O     0.50700   0.70600   0.14050   0.01267  Uiso   1.00
O85    O     0.81100   0.35500   0.19270   0.01267  Uiso   1.00
O86    O     0.78600   0.88000   0.40830   0.01267  Uiso   1.00
O87    O     0.99000   0.91700   0.23160   0.01267  Uiso   1.00
O88    O     0.90300   0.09000   0.18840   0.01267  Uiso   1.00
O89    O     0.66000   0.78000   0.38260   0.01267  Uiso   1.00
O90    O     0.87400   0.81000   0.18630   0.01267  Uiso   1.00
O91    O     0.69400   0.03800   0.12870   0.01267  Uiso   1.00
O92    O     0.02100   0.66200   0.20390   0.01267  Uiso   1.00
O93    O     0.73600   0.52000   0.22390   0.01267  Uiso   1.00
O94    O     0.80700   0.15500   0.08550   0.01267  Uiso   1.00
O95    O     0.79800   0.98500   0.22680   0.01267  Uiso   1.00
O96    O     0.59400   0.94800   0.42820   0.01267  Uiso   1.00
