data_KIDDIM_clean
_audit_creation_date              2014-07-02
_audit_creation_method            'Materials Studio'
_symmetry_space_group_name_H-M    'P1'
_symmetry_Int_Tables_number       1
_symmetry_cell_setting            triclinic
loop_
_symmetry_equiv_pos_as_xyz
  x,y,z
_cell_length_a                    16.2636
_cell_length_b                    16.2636
_cell_length_c                    22.1993
_cell_angle_alpha                 68.5119
_cell_angle_beta                  68.5118
_cell_angle_gamma                 60.0000
loop_
_atom_site_label
_atom_site_type_symbol
_atom_site_fract_x
_atom_site_fract_y
_atom_site_fract_z
_atom_site_U_iso_or_equiv
_atom_site_adp_type
_atom_site_occupancy
Cd1    Cd    0.36445   0.54508   0.28114   0.01267  Uiso   1.00
Cd2    Cd    0.54508   0.80933   0.28114   0.01267  Uiso   1.00
Cd3    Cd    0.80933   0.36445   0.28114   0.01267  Uiso   1.00
Cd4    Cd    0.13555   0.69067   0.21886   0.01267  Uiso   1.00
Cd5    Cd    0.95492   0.13555   0.21886   0.01267  Uiso   1.00
Cd6    Cd    0.69067   0.95492   0.21886   0.01267  Uiso   1.00
Cd7    Cd    0.63555   0.45492   0.71886   0.01267  Uiso   1.00
Cd8    Cd    0.45492   0.19067   0.71886   0.01267  Uiso   1.00
Cd9    Cd    0.19067   0.63555   0.71886   0.01267  Uiso   1.00
Cd10   Cd    0.86445   0.30933   0.78114   0.01267  Uiso   1.00
Cd11   Cd    0.04508   0.86445   0.78114   0.01267  Uiso   1.00
Cd12   Cd    0.30933   0.04508   0.78114   0.01267  Uiso   1.00
H1     H     0.23710   0.49310   0.28470   0.01267  Uiso   1.00
H2     H     0.17030   0.28860   0.47010   0.01267  Uiso   1.00
H3     H     0.18420   0.19930   0.58560   0.01267  Uiso   1.00
H4     H     0.39180   0.56840   0.41070   0.01267  Uiso   1.00
H5     H     0.46150   0.45570   0.41070   0.01267  Uiso   1.00
H6     H     0.58490   0.41020   0.31140   0.01267  Uiso   1.00
H7     H     0.59810   0.49200   0.24600   0.01267  Uiso   1.00
H8     H     0.49310   0.98510   0.28470   0.01267  Uiso   1.00
H9     H     0.28860   0.07100   0.47010   0.01267  Uiso   1.00
H10    H     0.19930   0.03090   0.58560   0.01267  Uiso   1.00
H11    H     0.56840   0.62910   0.41070   0.01267  Uiso   1.00
H12    H     0.45570   0.67210   0.41070   0.01267  Uiso   1.00
H13    H     0.41020   0.69350   0.31140   0.01267  Uiso   1.00
H14    H     0.49200   0.66390   0.24600   0.01267  Uiso   1.00
H15    H     0.98510   0.23710   0.28470   0.01267  Uiso   1.00
H16    H     0.07100   0.17030   0.47010   0.01267  Uiso   1.00
H17    H     0.03090   0.18420   0.58560   0.01267  Uiso   1.00
H18    H     0.62910   0.39180   0.41070   0.01267  Uiso   1.00
H19    H     0.67210   0.46150   0.41070   0.01267  Uiso   1.00
H20    H     0.69350   0.58490   0.31140   0.01267  Uiso   1.00
H21    H     0.66390   0.59810   0.24600   0.01267  Uiso   1.00
H22    H     0.26290   0.51490   0.21530   0.01267  Uiso   1.00
H23    H     0.32970   0.42900   0.02990   0.01267  Uiso   1.00
H24    H     0.31580   0.46910   0.91440   0.01267  Uiso   1.00
H25    H     0.10820   0.87090   0.08930   0.01267  Uiso   1.00
H26    H     0.03850   0.82790   0.08930   0.01267  Uiso   1.00
H27    H     0.91510   0.80650   0.18860   0.01267  Uiso   1.00
H28    H     0.90190   0.83610   0.25400   0.01267  Uiso   1.00
H29    H     0.00690   0.26290   0.21530   0.01267  Uiso   1.00
H30    H     0.21140   0.32970   0.02990   0.01267  Uiso   1.00
H31    H     0.30070   0.31580   0.91440   0.01267  Uiso   1.00
H32    H     0.93160   0.10820   0.08930   0.01267  Uiso   1.00
H33    H     0.04430   0.03850   0.08930   0.01267  Uiso   1.00
H34    H     0.08980   0.91510   0.18860   0.01267  Uiso   1.00
H35    H     0.00800   0.90190   0.25400   0.01267  Uiso   1.00
H36    H     0.51490   0.00690   0.21530   0.01267  Uiso   1.00
H37    H     0.42900   0.21140   0.02990   0.01267  Uiso   1.00
H38    H     0.46910   0.30070   0.91440   0.01267  Uiso   1.00
H39    H     0.87090   0.93160   0.08930   0.01267  Uiso   1.00
H40    H     0.82790   0.04430   0.08930   0.01267  Uiso   1.00
H41    H     0.80650   0.08980   0.18860   0.01267  Uiso   1.00
H42    H     0.83610   0.00800   0.25400   0.01267  Uiso   1.00
H43    H     0.76290   0.50690   0.71530   0.01267  Uiso   1.00
H44    H     0.82970   0.71140   0.52990   0.01267  Uiso   1.00
H45    H     0.81580   0.80070   0.41440   0.01267  Uiso   1.00
H46    H     0.60820   0.43160   0.58930   0.01267  Uiso   1.00
H47    H     0.53850   0.54430   0.58930   0.01267  Uiso   1.00
H48    H     0.41510   0.58980   0.68860   0.01267  Uiso   1.00
H49    H     0.40190   0.50800   0.75400   0.01267  Uiso   1.00
H50    H     0.50690   0.01490   0.71530   0.01267  Uiso   1.00
H51    H     0.71140   0.92900   0.52990   0.01267  Uiso   1.00
H52    H     0.80070   0.96910   0.41440   0.01267  Uiso   1.00
H53    H     0.43160   0.37090   0.58930   0.01267  Uiso   1.00
H54    H     0.54430   0.32790   0.58930   0.01267  Uiso   1.00
H55    H     0.58980   0.30650   0.68860   0.01267  Uiso   1.00
H56    H     0.50800   0.33610   0.75400   0.01267  Uiso   1.00
H57    H     0.01490   0.76290   0.71530   0.01267  Uiso   1.00
H58    H     0.92900   0.82970   0.52990   0.01267  Uiso   1.00
H59    H     0.96910   0.81580   0.41440   0.01267  Uiso   1.00
H60    H     0.37090   0.60820   0.58930   0.01267  Uiso   1.00
H61    H     0.32790   0.53850   0.58930   0.01267  Uiso   1.00
H62    H     0.30650   0.41510   0.68860   0.01267  Uiso   1.00
H63    H     0.33610   0.40190   0.75400   0.01267  Uiso   1.00
H64    H     0.73710   0.48510   0.78470   0.01267  Uiso   1.00
H65    H     0.67030   0.57100   0.97010   0.01267  Uiso   1.00
H66    H     0.68420   0.53090   0.08560   0.01267  Uiso   1.00
H67    H     0.89180   0.12910   0.91070   0.01267  Uiso   1.00
H68    H     0.96150   0.17210   0.91070   0.01267  Uiso   1.00
H69    H     0.08490   0.19350   0.81140   0.01267  Uiso   1.00
H70    H     0.09810   0.16390   0.74600   0.01267  Uiso   1.00
H71    H     0.99310   0.73710   0.78470   0.01267  Uiso   1.00
H72    H     0.78860   0.67030   0.97010   0.01267  Uiso   1.00
H73    H     0.69930   0.68420   0.08560   0.01267  Uiso   1.00
H74    H     0.06840   0.89180   0.91070   0.01267  Uiso   1.00
H75    H     0.95570   0.96150   0.91070   0.01267  Uiso   1.00
H76    H     0.91020   0.08490   0.81140   0.01267  Uiso   1.00
H77    H     0.99200   0.09810   0.74600   0.01267  Uiso   1.00
H78    H     0.48510   0.99310   0.78470   0.01267  Uiso   1.00
H79    H     0.57100   0.78860   0.97010   0.01267  Uiso   1.00
H80    H     0.53090   0.69930   0.08560   0.01267  Uiso   1.00
H81    H     0.12910   0.06840   0.91070   0.01267  Uiso   1.00
H82    H     0.17210   0.95570   0.91070   0.01267  Uiso   1.00
H83    H     0.19350   0.91020   0.81140   0.01267  Uiso   1.00
H84    H     0.16390   0.99200   0.74600   0.01267  Uiso   1.00
C1     C     0.27311   0.40561   0.39537   0.01267  Uiso   1.00
C2     C     0.26227   0.34497   0.46419   0.01267  Uiso   1.00
C3     C     0.20847   0.29137   0.49239   0.01267  Uiso   1.00
C4     C     0.21615   0.24045   0.55875   0.01267  Uiso   1.00
C5     C     0.27452   0.25692   0.57984   0.01267  Uiso   1.00
C6     C     0.29880   0.21630   0.64650   0.01267  Uiso   1.00
C7     C     0.45869   0.52239   0.39363   0.01267  Uiso   1.00
C8     C     0.58139   0.47699   0.29523   0.01267  Uiso   1.00
C9     C     0.40561   0.92591   0.39537   0.01267  Uiso   1.00
C10    C     0.34497   0.92857   0.46419   0.01267  Uiso   1.00
C11    C     0.29137   0.00777   0.49239   0.01267  Uiso   1.00
C12    C     0.24045   0.98465   0.55875   0.01267  Uiso   1.00
C13    C     0.25692   0.88872   0.57984   0.01267  Uiso   1.00
C14    C     0.21630   0.83840   0.64650   0.01267  Uiso   1.00
C15    C     0.52239   0.62529   0.39363   0.01267  Uiso   1.00
C16    C     0.47699   0.64639   0.29523   0.01267  Uiso   1.00
C17    C     0.92591   0.27311   0.39537   0.01267  Uiso   1.00
C18    C     0.92857   0.26227   0.46419   0.01267  Uiso   1.00
C19    C     0.00777   0.20847   0.49239   0.01267  Uiso   1.00
C20    C     0.98465   0.21615   0.55875   0.01267  Uiso   1.00
C21    C     0.88872   0.27452   0.57984   0.01267  Uiso   1.00
C22    C     0.83840   0.29880   0.64650   0.01267  Uiso   1.00
C23    C     0.62529   0.45869   0.39363   0.01267  Uiso   1.00
C24    C     0.64639   0.58139   0.29523   0.01267  Uiso   1.00
C25    C     0.22689   0.57409   0.10463   0.01267  Uiso   1.00
C26    C     0.23773   0.57143   0.03581   0.01267  Uiso   1.00
C27    C     0.29153   0.49223   0.00761   0.01267  Uiso   1.00
C28    C     0.28385   0.51535   0.94125   0.01267  Uiso   1.00
C29    C     0.22548   0.61128   0.92016   0.01267  Uiso   1.00
C30    C     0.20120   0.66160   0.85350   0.01267  Uiso   1.00
C31    C     0.04131   0.87471   0.10637   0.01267  Uiso   1.00
C32    C     0.91861   0.85361   0.20477   0.01267  Uiso   1.00
C33    C     0.09439   0.22689   0.10463   0.01267  Uiso   1.00
C34    C     0.15503   0.23773   0.03581   0.01267  Uiso   1.00
C35    C     0.20863   0.29153   0.00761   0.01267  Uiso   1.00
C36    C     0.25955   0.28385   0.94125   0.01267  Uiso   1.00
C37    C     0.24308   0.22548   0.92016   0.01267  Uiso   1.00
C38    C     0.28370   0.20120   0.85350   0.01267  Uiso   1.00
C39    C     0.97761   0.04131   0.10637   0.01267  Uiso   1.00
C40    C     0.02301   0.91861   0.20477   0.01267  Uiso   1.00
C41    C     0.57409   0.09439   0.10463   0.01267  Uiso   1.00
C42    C     0.57143   0.15503   0.03581   0.01267  Uiso   1.00
C43    C     0.49223   0.20863   0.00761   0.01267  Uiso   1.00
C44    C     0.51535   0.25955   0.94125   0.01267  Uiso   1.00
C45    C     0.61128   0.24308   0.92016   0.01267  Uiso   1.00
C46    C     0.66160   0.28370   0.85350   0.01267  Uiso   1.00
C47    C     0.87471   0.97761   0.10637   0.01267  Uiso   1.00
C48    C     0.85361   0.02301   0.20477   0.01267  Uiso   1.00
C49    C     0.72689   0.59439   0.60463   0.01267  Uiso   1.00
C50    C     0.73773   0.65503   0.53581   0.01267  Uiso   1.00
C51    C     0.79153   0.70863   0.50761   0.01267  Uiso   1.00
C52    C     0.78385   0.75955   0.44125   0.01267  Uiso   1.00
C53    C     0.72548   0.74308   0.42016   0.01267  Uiso   1.00
C54    C     0.70120   0.78370   0.35350   0.01267  Uiso   1.00
C55    C     0.54131   0.47761   0.60637   0.01267  Uiso   1.00
C56    C     0.41861   0.52301   0.70477   0.01267  Uiso   1.00
C57    C     0.59439   0.07409   0.60463   0.01267  Uiso   1.00
C58    C     0.65503   0.07143   0.53581   0.01267  Uiso   1.00
C59    C     0.70863   0.99223   0.50761   0.01267  Uiso   1.00
C60    C     0.75955   0.01535   0.44125   0.01267  Uiso   1.00
C61    C     0.74308   0.11128   0.42016   0.01267  Uiso   1.00
C62    C     0.78370   0.16160   0.35350   0.01267  Uiso   1.00
C63    C     0.47761   0.37471   0.60637   0.01267  Uiso   1.00
C64    C     0.52301   0.35361   0.70477   0.01267  Uiso   1.00
C65    C     0.07409   0.72689   0.60463   0.01267  Uiso   1.00
C66    C     0.07143   0.73773   0.53581   0.01267  Uiso   1.00
C67    C     0.99223   0.79153   0.50761   0.01267  Uiso   1.00
C68    C     0.01535   0.78385   0.44125   0.01267  Uiso   1.00
C69    C     0.11128   0.72548   0.42016   0.01267  Uiso   1.00
C70    C     0.16160   0.70120   0.35350   0.01267  Uiso   1.00
C71    C     0.37471   0.54131   0.60637   0.01267  Uiso   1.00
C72    C     0.35361   0.41861   0.70477   0.01267  Uiso   1.00
C73    C     0.77311   0.42591   0.89537   0.01267  Uiso   1.00
C74    C     0.76227   0.42857   0.96419   0.01267  Uiso   1.00
C75    C     0.70847   0.50777   0.99239   0.01267  Uiso   1.00
C76    C     0.71615   0.48465   0.05875   0.01267  Uiso   1.00
C77    C     0.77452   0.38872   0.07984   0.01267  Uiso   1.00
C78    C     0.79880   0.33840   0.14650   0.01267  Uiso   1.00
C79    C     0.95869   0.12529   0.89363   0.01267  Uiso   1.00
C80    C     0.08139   0.14639   0.79523   0.01267  Uiso   1.00
C81    C     0.90561   0.77311   0.89537   0.01267  Uiso   1.00
C82    C     0.84497   0.76227   0.96419   0.01267  Uiso   1.00
C83    C     0.79137   0.70847   0.99239   0.01267  Uiso   1.00
C84    C     0.74045   0.71615   0.05875   0.01267  Uiso   1.00
C85    C     0.75692   0.77452   0.07984   0.01267  Uiso   1.00
C86    C     0.71630   0.79880   0.14650   0.01267  Uiso   1.00
C87    C     0.02239   0.95869   0.89363   0.01267  Uiso   1.00
C88    C     0.97699   0.08139   0.79523   0.01267  Uiso   1.00
C89    C     0.42591   0.90561   0.89537   0.01267  Uiso   1.00
C90    C     0.42857   0.84497   0.96419   0.01267  Uiso   1.00
C91    C     0.50777   0.79137   0.99239   0.01267  Uiso   1.00
C92    C     0.48465   0.74045   0.05875   0.01267  Uiso   1.00
C93    C     0.38872   0.75692   0.07984   0.01267  Uiso   1.00
C94    C     0.33840   0.71630   0.14650   0.01267  Uiso   1.00
C95    C     0.12529   0.02239   0.89363   0.01267  Uiso   1.00
C96    C     0.14639   0.97699   0.79523   0.01267  Uiso   1.00
S1     S     0.32276   0.33275   0.51846   0.01267  Uiso   1.00
S2     S     0.33275   0.82603   0.51846   0.01267  Uiso   1.00
S3     S     0.82603   0.32276   0.51846   0.01267  Uiso   1.00
S4     S     0.17724   0.67397   0.98154   0.01267  Uiso   1.00
S5     S     0.16725   0.17724   0.98154   0.01267  Uiso   1.00
S6     S     0.67397   0.16725   0.98154   0.01267  Uiso   1.00
S7     S     0.67724   0.66725   0.48154   0.01267  Uiso   1.00
S8     S     0.66725   0.17397   0.48154   0.01267  Uiso   1.00
S9     S     0.17397   0.67724   0.48154   0.01267  Uiso   1.00
S10    S     0.82276   0.32603   0.01846   0.01267  Uiso   1.00
S11    S     0.83275   0.82276   0.01846   0.01267  Uiso   1.00
S12    S     0.32603   0.83275   0.01846   0.01267  Uiso   1.00
N1     N     0.48083   0.54713   0.31881   0.01267  Uiso   1.00
N2     N     0.54713   0.65323   0.31881   0.01267  Uiso   1.00
N3     N     0.65323   0.48083   0.31881   0.01267  Uiso   1.00
N4     N     0.01917   0.84677   0.18119   0.01267  Uiso   1.00
N5     N     0.95287   0.01917   0.18119   0.01267  Uiso   1.00
N6     N     0.84677   0.95287   0.18119   0.01267  Uiso   1.00
N7     N     0.51917   0.45287   0.68119   0.01267  Uiso   1.00
N8     N     0.45287   0.34677   0.68119   0.01267  Uiso   1.00
N9     N     0.34677   0.51917   0.68119   0.01267  Uiso   1.00
N10    N     0.98083   0.15323   0.81881   0.01267  Uiso   1.00
N11    N     0.04713   0.98083   0.81881   0.01267  Uiso   1.00
N12    N     0.15323   0.04713   0.81881   0.01267  Uiso   1.00
N13    N     0.52744   0.52744   0.41768   0.01267  Uiso   1.00
N14    N     0.97256   0.97256   0.08232   0.01267  Uiso   1.00
N15    N     0.47256   0.47256   0.58232   0.01267  Uiso   1.00
N16    N     0.02744   0.02744   0.91768   0.01267  Uiso   1.00
O1     O     0.34167   0.43263   0.37569   0.01267  Uiso   1.00
O2     O     0.21538   0.42438   0.36276   0.01267  Uiso   1.00
O3     O     0.27289   0.14971   0.68457   0.01267  Uiso   1.00
O4     O     0.34314   0.25138   0.65808   0.01267  Uiso   1.00
O5     O     0.43263   0.85001   0.37569   0.01267  Uiso   1.00
O6     O     0.42438   0.99748   0.36276   0.01267  Uiso   1.00
O7     O     0.14971   0.89283   0.68457   0.01267  Uiso   1.00
O8     O     0.25138   0.74740   0.65808   0.01267  Uiso   1.00
O9     O     0.85001   0.34167   0.37569   0.01267  Uiso   1.00
O10    O     0.99748   0.21538   0.36276   0.01267  Uiso   1.00
O11    O     0.89283   0.27289   0.68457   0.01267  Uiso   1.00
O12    O     0.74740   0.34314   0.65808   0.01267  Uiso   1.00
O13    O     0.15833   0.64999   0.12431   0.01267  Uiso   1.00
O14    O     0.28462   0.50252   0.13724   0.01267  Uiso   1.00
O15    O     0.22711   0.60717   0.81543   0.01267  Uiso   1.00
O16    O     0.15686   0.75260   0.84192   0.01267  Uiso   1.00
O17    O     0.06737   0.15833   0.12431   0.01267  Uiso   1.00
O18    O     0.07562   0.28462   0.13724   0.01267  Uiso   1.00
O19    O     0.35029   0.22711   0.81543   0.01267  Uiso   1.00
O20    O     0.24862   0.15686   0.84192   0.01267  Uiso   1.00
O21    O     0.64999   0.06737   0.12431   0.01267  Uiso   1.00
O22    O     0.50252   0.07562   0.13724   0.01267  Uiso   1.00
O23    O     0.60717   0.35029   0.81543   0.01267  Uiso   1.00
O24    O     0.75260   0.24862   0.84192   0.01267  Uiso   1.00
O25    O     0.65833   0.56737   0.62431   0.01267  Uiso   1.00
O26    O     0.78462   0.57562   0.63724   0.01267  Uiso   1.00
O27    O     0.72711   0.85029   0.31543   0.01267  Uiso   1.00
O28    O     0.65686   0.74862   0.34192   0.01267  Uiso   1.00
O29    O     0.56737   0.14999   0.62431   0.01267  Uiso   1.00
O30    O     0.57562   0.00252   0.63724   0.01267  Uiso   1.00
O31    O     0.85029   0.10717   0.31543   0.01267  Uiso   1.00
O32    O     0.74862   0.25260   0.34192   0.01267  Uiso   1.00
O33    O     0.14999   0.65833   0.62431   0.01267  Uiso   1.00
O34    O     0.00252   0.78462   0.63724   0.01267  Uiso   1.00
O35    O     0.10717   0.72711   0.31543   0.01267  Uiso   1.00
O36    O     0.25260   0.65686   0.34192   0.01267  Uiso   1.00
O37    O     0.84167   0.35001   0.87569   0.01267  Uiso   1.00
O38    O     0.71538   0.49748   0.86276   0.01267  Uiso   1.00
O39    O     0.77289   0.39283   0.18457   0.01267  Uiso   1.00
O40    O     0.84314   0.24740   0.15808   0.01267  Uiso   1.00
O41    O     0.93263   0.84167   0.87569   0.01267  Uiso   1.00
O42    O     0.92438   0.71538   0.86276   0.01267  Uiso   1.00
O43    O     0.64971   0.77289   0.18457   0.01267  Uiso   1.00
O44    O     0.75138   0.84314   0.15808   0.01267  Uiso   1.00
O45    O     0.35001   0.93263   0.87569   0.01267  Uiso   1.00
O46    O     0.49748   0.92438   0.86276   0.01267  Uiso   1.00
O47    O     0.39283   0.64971   0.18457   0.01267  Uiso   1.00
O48    O     0.24740   0.75138   0.15808   0.01267  Uiso   1.00
O49    O     0.25000   0.53505   0.25000   0.01267  Uiso   1.00
O50    O     0.53505   0.96495   0.25000   0.01267  Uiso   1.00
O51    O     0.96495   0.25000   0.25000   0.01267  Uiso   1.00
O52    O     0.75000   0.46495   0.75000   0.01267  Uiso   1.00
O53    O     0.46495   0.03505   0.75000   0.01267  Uiso   1.00
O54    O     0.03505   0.75000   0.75000   0.01267  Uiso   1.00
