data_KIDVIE_clean
_audit_creation_date              2014-07-02
_audit_creation_method            'Materials Studio'
_symmetry_space_group_name_H-M    'P1'
_symmetry_Int_Tables_number       1
_symmetry_cell_setting            triclinic
loop_
_symmetry_equiv_pos_as_xyz
  x,y,z
_cell_length_a                    10.0160
_cell_length_b                    11.3800
_cell_length_c                    12.8210
_cell_angle_alpha                 80.3900
_cell_angle_beta                  80.6500
_cell_angle_gamma                 66.3400
loop_
_atom_site_label
_atom_site_type_symbol
_atom_site_fract_x
_atom_site_fract_y
_atom_site_fract_z
_atom_site_U_iso_or_equiv
_atom_site_adp_type
_atom_site_occupancy
La1    La    0.69862   0.89186   0.78818   0.01267  Uiso   1.00
La2    La    0.38025   0.51211   0.74961   0.01267  Uiso   1.00
La3    La    0.30138   0.10814   0.21182   0.01267  Uiso   1.00
La4    La    0.61975   0.48789   0.25039   0.01267  Uiso   1.00
C1     C     0.54700   0.67660   0.82650   0.01267  Uiso   1.00
C2     C     0.51960   0.73980   0.71620   0.01267  Uiso   1.00
C3     C     0.60010   0.20610   0.78930   0.01267  Uiso   1.00
C4     C     0.50800   0.20180   0.71370   0.01267  Uiso   1.00
C5     C     0.05670   0.73690   0.80340   0.01267  Uiso   1.00
C6     C     0.02000   0.63790   0.75920   0.01267  Uiso   1.00
C7     C     0.58000   0.46570   0.50980   0.01267  Uiso   1.00
C8     C     0.43220   0.02980   0.96680   0.01267  Uiso   1.00
C9     C     0.45300   0.32340   0.17350   0.01267  Uiso   1.00
C10    C     0.48040   0.26020   0.28380   0.01267  Uiso   1.00
C11    C     0.39990   0.79390   0.21070   0.01267  Uiso   1.00
C12    C     0.49200   0.79820   0.28630   0.01267  Uiso   1.00
C13    C     0.94330   0.26310   0.19660   0.01267  Uiso   1.00
C14    C     0.98000   0.36210   0.24080   0.01267  Uiso   1.00
C15    C     0.42000   0.53430   0.49020   0.01267  Uiso   1.00
C16    C     0.56780   0.97020   0.03320   0.01267  Uiso   1.00
O1     O     0.45060   0.69830   0.66760   0.01267  Uiso   1.00
O2     O     0.56530   0.82650   0.68160   0.01267  Uiso   1.00
O3     O     0.60760   0.71700   0.88100   0.01267  Uiso   1.00
O4     O     0.50910   0.58110   0.86220   0.01267  Uiso   1.00
O5     O     0.39820   0.30010   0.69620   0.01267  Uiso   1.00
O6     O     0.58000   0.31050   0.82640   0.01267  Uiso   1.00
O7     O     0.54150   0.09280   0.68910   0.01267  Uiso   1.00
O8     O     0.71120   0.10030   0.81840   0.01267  Uiso   1.00
O9     O     0.95140   0.84020   0.82910   0.01267  Uiso   1.00
O10    O     0.88830   0.67190   0.74810   0.01267  Uiso   1.00
O11    O     0.12220   0.53630   0.74170   0.01267  Uiso   1.00
O12    O     0.18670   0.71650   0.80660   0.01267  Uiso   1.00
O13    O     0.59940   0.43940   0.60970   0.01267  Uiso   1.00
O14    O     0.67770   0.43440   0.43550   0.01267  Uiso   1.00
O15    O     0.44770   0.00870   0.87490   0.01267  Uiso   1.00
O16    O     0.31570   0.10340   0.01590   0.01267  Uiso   1.00
O17    O     0.54940   0.30170   0.33240   0.01267  Uiso   1.00
O18    O     0.43470   0.17350   0.31840   0.01267  Uiso   1.00
O19    O     0.39240   0.28300   0.11900   0.01267  Uiso   1.00
O20    O     0.49090   0.41890   0.13780   0.01267  Uiso   1.00
O21    O     0.60180   0.69990   0.30380   0.01267  Uiso   1.00
O22    O     0.42000   0.68950   0.17360   0.01267  Uiso   1.00
O23    O     0.45850   0.90720   0.31090   0.01267  Uiso   1.00
O24    O     0.28880   0.89970   0.18160   0.01267  Uiso   1.00
O25    O     0.04860   0.15980   0.17090   0.01267  Uiso   1.00
O26    O     0.11170   0.32810   0.25190   0.01267  Uiso   1.00
O27    O     0.87780   0.46370   0.25830   0.01267  Uiso   1.00
O28    O     0.81330   0.28350   0.19340   0.01267  Uiso   1.00
O29    O     0.40060   0.56060   0.39030   0.01267  Uiso   1.00
O30    O     0.32230   0.56560   0.56450   0.01267  Uiso   1.00
O31    O     0.55230   0.99130   0.12510   0.01267  Uiso   1.00
O32    O     0.68430   0.89660   0.98410   0.01267  Uiso   1.00
