data_image0
_cell_length_a       9.7012
_cell_length_b       12.442
_cell_length_c       17.218
_cell_angle_alpha    89.83
_cell_angle_beta     75.01
_cell_angle_gamma    73.33

_symmetry_space_group_name_H-M    "P 1"
_symmetry_int_tables_number       1

loop_
  _symmetry_equiv_pos_as_xyz
  'x, y, z'

loop_
  _atom_site_label
  _atom_site_occupancy
  _atom_site_fract_x
  _atom_site_fract_y
  _atom_site_fract_z
  _atom_site_thermal_displace_type
  _atom_site_B_iso_or_equiv
  _atom_site_type_symbol
  Zn1      1.0000 0.35164  0.19291  0.18370  Biso   1.000  Zn
  Zn2      1.0000 0.96083  0.88684  0.19338  Biso   1.000  Zn
  Na1      1.0000 0.23335  0.44451  0.27429  Biso   1.000  Na
  O1       1.0000 0.08600  0.82290  0.00636  Biso   1.000  O
  O2       1.0000 0.03790  0.74580  0.12300  Biso   1.000  O
  O3       1.0000 0.41980  0.23520  0.03099  Biso   1.000  O
  O4       1.0000 0.29420  0.34520  0.14291  Biso   1.000  O
  O5       1.0000 0.39000  0.45950  0.75137  Biso   1.000  O
  O6       1.0000 0.48420  0.61490  0.77003  Biso   1.000  O
  O7       1.0000 0.62860  0.42410  0.78301  Biso   1.000  O
  O8       1.0000 0.20640  0.04400  0.63470  Biso   1.000  O
  O9       1.0000 0.01250  0.17320  0.70833  Biso   1.000  O
  O10      1.0000 0.24720  0.25440  0.29619  Biso   1.000  O
  O11      1.0000 0.33620  0.08270  0.33450  Biso   1.000  O
  O12      1.0000 0.77780  0.52720  0.45998  Biso   1.000  O
  O13      1.0000 0.71880  0.51720  0.60332  Biso   1.000  O
  O14      1.0000 0.64790  0.39750  0.52100  Biso   1.000  O
  S1       1.0000 0.48099  0.50247  0.79233  Biso   1.000  S
  S2       1.0000 0.75516  0.45716  0.52622  Biso   1.000  S
  C1       1.0000 0.66610  0.08820  0.09090  Biso   1.000  C
  H1       1.0000 0.64680  0.12540  0.04490  Biso   1.000  H
  C2       1.0000 0.63890  0.03290  0.20760  Biso   1.000  C
  H2       1.0000 0.59620  0.02250  0.26220  Biso   1.000  H
  C3       1.0000 0.17010  0.02840  0.19770  Biso   1.000  C
  H3       1.0000 0.18000  0.01040  0.25000  Biso   1.000  H
  C4       1.0000 0.18840  0.09910  0.08640  Biso   1.000  C
  H4       1.0000 0.21470  0.14250  0.04260  Biso   1.000  H
  C5       1.0000 0.38450  0.51650  0.89540  Biso   1.000  C
  C6       1.0000 0.28520  0.61980  0.92980  Biso   1.000  C
  H5       1.0000 0.27110  0.68300  0.89840  Biso   1.000  H
  C7       1.0000 0.20690  0.62970  0.01040  Biso   1.000  C
  C8       1.0000 0.22910  0.53620  0.05550  Biso   1.000  C
  H6       1.0000 0.17660  0.54310  0.11090  Biso   1.000  H
  C9       1.0000 0.32850  0.43180  0.01980  Biso   1.000  C
  C10      1.0000 0.40730  0.42210  0.93950  Biso   1.000  C
  H7       1.0000 0.47580  0.35220  0.91490  Biso   1.000  H
  C11      1.0000 0.10180  0.74250  0.04890  Biso   1.000  C
  C12      1.0000 0.35070  0.33000  0.06650  Biso   1.000  C
  C13      1.0000 0.92540  0.34740  0.51550  Biso   1.000  C
  C14      1.0000 0.94970  0.28910  0.58130  Biso   1.000  C
  H8       1.0000 0.88200  0.31290  0.63310  Biso   1.000  H
  C15      1.0000 0.07460  0.19450  0.57130  Biso   1.000  C
  C16      1.0000 0.17310  0.15970  0.49550  Biso   1.000  C
  H9       1.0000 0.25620  0.09410  0.48840  Biso   1.000  H
  C17      1.0000 0.15010  0.22070  0.43020  Biso   1.000  C
  C18      1.0000 0.02530  0.31610  0.44080  Biso   1.000  C
  H10      1.0000 0.01000  0.35890  0.39640  Biso   1.000  H
  C19      1.0000 0.10240  0.12970  0.64230  Biso   1.000  C
  C20      1.0000 0.25330  0.18170  0.34830  Biso   1.000  C
  N1       1.0000 0.56390  0.10070  0.16155  Biso   1.000  N
  N2       1.0000 0.79730  0.01830  0.09174  Biso   1.000  N
  N3       1.0000 0.77890  0.98260  0.16763  Biso   1.000  N
  N4       1.0000 0.23050  0.10090  0.15449  Biso   1.000  N
  N5       1.0000 0.09480  0.98450  0.15898  Biso   1.000  N
  N6       1.0000 0.10670  0.03080  0.08649  Biso   1.000  N
  Zn3      1.0000 0.64836  0.80709  0.81630  Biso   1.000  Zn
  Zn4      1.0000 0.03917  0.11316  0.80662  Biso   1.000  Zn
  Na2      1.0000 0.76665  0.55549  0.72571  Biso   1.000  Na
  O15      1.0000 0.91400  0.17710  0.99364  Biso   1.000  O
  O16      1.0000 0.96210  0.25420  0.87700  Biso   1.000  O
  O17      1.0000 0.58020  0.76480  0.96901  Biso   1.000  O
  O18      1.0000 0.70580  0.65480  0.85709  Biso   1.000  O
  O19      1.0000 0.61000  0.54050  0.24863  Biso   1.000  O
  O20      1.0000 0.51580  0.38510  0.22997  Biso   1.000  O
  O21      1.0000 0.37140  0.57590  0.21699  Biso   1.000  O
  O22      1.0000 0.79360  0.95600  0.36530  Biso   1.000  O
  O23      1.0000 0.98750  0.82680  0.29167  Biso   1.000  O
  O24      1.0000 0.75280  0.74560  0.70381  Biso   1.000  O
  O25      1.0000 0.66380  0.91730  0.66550  Biso   1.000  O
  O26      1.0000 0.22220  0.47280  0.54002  Biso   1.000  O
  O27      1.0000 0.28120  0.48280  0.39668  Biso   1.000  O
  O28      1.0000 0.35210  0.60250  0.47900  Biso   1.000  O
  S3       1.0000 0.51901  0.49753  0.20767  Biso   1.000  S
  S4       1.0000 0.24484  0.54284  0.47378  Biso   1.000  S
  C21      1.0000 0.33390  0.91180  0.90910  Biso   1.000  C
  H11      1.0000 0.35320  0.87460  0.95510  Biso   1.000  H
  C22      1.0000 0.36110  0.96710  0.79240  Biso   1.000  C
  H12      1.0000 0.40380  0.97750  0.73780  Biso   1.000  H
  C23      1.0000 0.82990  0.97160  0.80230  Biso   1.000  C
  H13      1.0000 0.82000  0.98960  0.75000  Biso   1.000  H
  C24      1.0000 0.81160  0.90090  0.91360  Biso   1.000  C
  H14      1.0000 0.78530  0.85750  0.95740  Biso   1.000  H
  C25      1.0000 0.61550  0.48350  0.10460  Biso   1.000  C
  C26      1.0000 0.71480  0.38020  0.07020  Biso   1.000  C
  H15      1.0000 0.72890  0.31700  0.10160  Biso   1.000  H
  C27      1.0000 0.79310  0.37030  0.98960  Biso   1.000  C
  C28      1.0000 0.77090  0.46380  0.94450  Biso   1.000  C
  H16      1.0000 0.82340  0.45690  0.88910  Biso   1.000  H
  C29      1.0000 0.67150  0.56820  0.98020  Biso   1.000  C
  C30      1.0000 0.59270  0.57790  0.06050  Biso   1.000  C
  H17      1.0000 0.52420  0.64780  0.08510  Biso   1.000  H
  C31      1.0000 0.89820  0.25750  0.95110  Biso   1.000  C
  C32      1.0000 0.64930  0.67000  0.93350  Biso   1.000  C
  C33      1.0000 0.07460  0.65260  0.48450  Biso   1.000  C
  C34      1.0000 0.05030  0.71090  0.41870  Biso   1.000  C
  H18      1.0000 0.11800  0.68710  0.36690  Biso   1.000  H
  C35      1.0000 0.92540  0.80550  0.42870  Biso   1.000  C
  C36      1.0000 0.82690  0.84030  0.50450  Biso   1.000  C
  H19      1.0000 0.74380  0.90590  0.51160  Biso   1.000  H
  C37      1.0000 0.84990  0.77930  0.56980  Biso   1.000  C
  C38      1.0000 0.97470  0.68390  0.55920  Biso   1.000  C
  H20      1.0000 0.99000  0.64110  0.60360  Biso   1.000  H
  C39      1.0000 0.89760  0.87030  0.35770  Biso   1.000  C
  C40      1.0000 0.74670  0.81830  0.65170  Biso   1.000  C
  N7       1.0000 0.43610  0.89930  0.83845  Biso   1.000  N
  N8       1.0000 0.20270  0.98170  0.90826  Biso   1.000  N
  N9       1.0000 0.22110  0.01740  0.83237  Biso   1.000  N
  N10      1.0000 0.76950  0.89910  0.84551  Biso   1.000  N
  N11      1.0000 0.90520  0.01550  0.84102  Biso   1.000  N
  N12      1.0000 0.89330  0.96920  0.91351  Biso   1.000  N
  Zn5      1.0000 0.00000  0.00000  0.00000  Biso   1.000  Zn
