data_KIFKEQ_clean
_audit_creation_date              2014-07-02
_audit_creation_method            'Materials Studio'
_symmetry_space_group_name_H-M    'P1'
_symmetry_Int_Tables_number       1
_symmetry_cell_setting            triclinic
loop_
_symmetry_equiv_pos_as_xyz
  x,y,z
_cell_length_a                    12.1948
_cell_length_b                    13.7835
_cell_length_c                    18.3840
_cell_angle_alpha                 90.0000
_cell_angle_beta                  90.0000
_cell_angle_gamma                 113.9600
loop_
_atom_site_label
_atom_site_type_symbol
_atom_site_fract_x
_atom_site_fract_y
_atom_site_fract_z
_atom_site_U_iso_or_equiv
_atom_site_adp_type
_atom_site_occupancy
Mg1    Mg    0.68007   0.91583   0.52072   0.01267  Uiso   1.00
Mg2    Mg    0.81993   0.08417   0.02072   0.01267  Uiso   1.00
Mg3    Mg    0.31993   0.08417   0.47928   0.01267  Uiso   1.00
Mg4    Mg    0.18007   0.91583   0.97928   0.01267  Uiso   1.00
Mg5    Mg    0.00000   0.00000   0.50000   0.01267  Uiso   1.00
Mg6    Mg    0.50000   0.00000   0.00000   0.01267  Uiso   1.00
H1     H     0.65880   0.70980   0.69850   0.01267  Uiso   1.00
H2     H     0.63810   0.56520   0.77190   0.01267  Uiso   1.00
H3     H     0.94850   0.56880   0.69050   0.01267  Uiso   1.00
H4     H     0.97330   0.71850   0.62130   0.01267  Uiso   1.00
H5     H     0.58800   0.37610   0.75780   0.01267  Uiso   1.00
H6     H     0.55380   0.22050   0.82200   0.01267  Uiso   1.00
H7     H     0.90600   0.33300   0.87430   0.01267  Uiso   1.00
H8     H     0.94190   0.48730   0.80810   0.01267  Uiso   1.00
H9     H     0.00060   0.22670   0.55420   0.01267  Uiso   1.00
H10    H     0.08890   0.41110   0.56320   0.01267  Uiso   1.00
H11    H     0.84120   0.43000   0.42420   0.01267  Uiso   1.00
H12    H     0.74840   0.24540   0.41880   0.01267  Uiso   1.00
H13    H     0.84120   0.29020   0.19850   0.01267  Uiso   1.00
H14    H     0.86190   0.43480   0.27190   0.01267  Uiso   1.00
H15    H     0.55150   0.43120   0.19050   0.01267  Uiso   1.00
H16    H     0.52670   0.28150   0.12130   0.01267  Uiso   1.00
H17    H     0.91200   0.62390   0.25780   0.01267  Uiso   1.00
H18    H     0.94620   0.77950   0.32200   0.01267  Uiso   1.00
H19    H     0.59400   0.66700   0.37430   0.01267  Uiso   1.00
H20    H     0.55810   0.51270   0.30810   0.01267  Uiso   1.00
H21    H     0.49940   0.77330   0.05420   0.01267  Uiso   1.00
H22    H     0.41110   0.58890   0.06320   0.01267  Uiso   1.00
H23    H     0.65880   0.57000   0.92420   0.01267  Uiso   1.00
H24    H     0.75160   0.75460   0.91880   0.01267  Uiso   1.00
H25    H     0.34120   0.29020   0.30150   0.01267  Uiso   1.00
H26    H     0.36190   0.43480   0.22810   0.01267  Uiso   1.00
H27    H     0.05150   0.43120   0.30950   0.01267  Uiso   1.00
H28    H     0.02670   0.28150   0.37870   0.01267  Uiso   1.00
H29    H     0.41200   0.62390   0.24220   0.01267  Uiso   1.00
H30    H     0.44620   0.77950   0.17800   0.01267  Uiso   1.00
H31    H     0.09400   0.66700   0.12570   0.01267  Uiso   1.00
H32    H     0.05810   0.51270   0.19190   0.01267  Uiso   1.00
H33    H     0.99940   0.77330   0.44580   0.01267  Uiso   1.00
H34    H     0.91110   0.58890   0.43680   0.01267  Uiso   1.00
H35    H     0.15880   0.57000   0.57580   0.01267  Uiso   1.00
H36    H     0.25160   0.75460   0.58120   0.01267  Uiso   1.00
H37    H     0.15880   0.70980   0.80150   0.01267  Uiso   1.00
H38    H     0.13810   0.56520   0.72810   0.01267  Uiso   1.00
H39    H     0.44850   0.56880   0.80950   0.01267  Uiso   1.00
H40    H     0.47330   0.71850   0.87870   0.01267  Uiso   1.00
H41    H     0.08800   0.37610   0.74220   0.01267  Uiso   1.00
H42    H     0.05380   0.22050   0.67800   0.01267  Uiso   1.00
H43    H     0.40600   0.33300   0.62570   0.01267  Uiso   1.00
H44    H     0.44190   0.48730   0.69190   0.01267  Uiso   1.00
H45    H     0.50060   0.22670   0.94580   0.01267  Uiso   1.00
H46    H     0.58890   0.41110   0.93680   0.01267  Uiso   1.00
H47    H     0.34120   0.43000   0.07580   0.01267  Uiso   1.00
H48    H     0.24840   0.24540   0.08120   0.01267  Uiso   1.00
C1     C     0.82699   0.81854   0.60149   0.01267  Uiso   1.00
C2     C     0.81701   0.72754   0.65119   0.01267  Uiso   1.00
C3     C     0.71797   0.68153   0.69681   0.01267  Uiso   1.00
C4     C     0.70497   0.59437   0.74005   0.01267  Uiso   1.00
C5     C     0.78895   0.54930   0.73714   0.01267  Uiso   1.00
C6     C     0.88930   0.59712   0.69241   0.01267  Uiso   1.00
C7     C     0.90366   0.68604   0.65052   0.01267  Uiso   1.00
C8     C     0.76851   0.44997   0.77771   0.01267  Uiso   1.00
C9     C     0.65292   0.36814   0.78171   0.01267  Uiso   1.00
C10    C     0.63235   0.27534   0.82035   0.01267  Uiso   1.00
C11    C     0.72563   0.26213   0.85648   0.01267  Uiso   1.00
C12    C     0.84112   0.34180   0.85101   0.01267  Uiso   1.00
C13    C     0.86242   0.43426   0.81177   0.01267  Uiso   1.00
C14    C     0.70196   0.16665   0.90495   0.01267  Uiso   1.00
C15    C     0.80335   0.09949   0.48659   0.01267  Uiso   1.00
C16    C     0.86487   0.21764   0.48666   0.01267  Uiso   1.00
C17    C     0.96668   0.26779   0.52872   0.01267  Uiso   1.00
C18    C     0.01951   0.37797   0.53384   0.01267  Uiso   1.00
C19    C     0.97248   0.44105   0.49652   0.01267  Uiso   1.00
C20    C     0.87249   0.38910   0.45217   0.01267  Uiso   1.00
C21    C     0.81788   0.27893   0.44802   0.01267  Uiso   1.00
C22    C     0.67301   0.18146   0.10149   0.01267  Uiso   1.00
C23    C     0.68299   0.27246   0.15119   0.01267  Uiso   1.00
C24    C     0.78203   0.31847   0.19681   0.01267  Uiso   1.00
C25    C     0.79503   0.40563   0.24005   0.01267  Uiso   1.00
C26    C     0.71105   0.45070   0.23714   0.01267  Uiso   1.00
C27    C     0.61070   0.40288   0.19241   0.01267  Uiso   1.00
C28    C     0.59634   0.31396   0.15052   0.01267  Uiso   1.00
C29    C     0.73149   0.55003   0.27771   0.01267  Uiso   1.00
C30    C     0.84708   0.63186   0.28171   0.01267  Uiso   1.00
C31    C     0.86765   0.72466   0.32035   0.01267  Uiso   1.00
C32    C     0.77437   0.73787   0.35648   0.01267  Uiso   1.00
C33    C     0.65888   0.65820   0.35101   0.01267  Uiso   1.00
C34    C     0.63758   0.56574   0.31177   0.01267  Uiso   1.00
C35    C     0.79804   0.83335   0.40495   0.01267  Uiso   1.00
C36    C     0.69665   0.90051   0.98659   0.01267  Uiso   1.00
C37    C     0.63513   0.78236   0.98666   0.01267  Uiso   1.00
C38    C     0.53332   0.73221   0.02872   0.01267  Uiso   1.00
C39    C     0.48049   0.62203   0.03384   0.01267  Uiso   1.00
C40    C     0.52752   0.55895   0.99652   0.01267  Uiso   1.00
C41    C     0.62751   0.61090   0.95217   0.01267  Uiso   1.00
C42    C     0.68212   0.72107   0.94802   0.01267  Uiso   1.00
C43    C     0.17301   0.18146   0.39851   0.01267  Uiso   1.00
C44    C     0.18299   0.27246   0.34881   0.01267  Uiso   1.00
C45    C     0.28203   0.31847   0.30319   0.01267  Uiso   1.00
C46    C     0.29503   0.40563   0.25995   0.01267  Uiso   1.00
C47    C     0.21105   0.45070   0.26286   0.01267  Uiso   1.00
C48    C     0.11070   0.40288   0.30759   0.01267  Uiso   1.00
C49    C     0.09634   0.31396   0.34948   0.01267  Uiso   1.00
C50    C     0.23149   0.55003   0.22229   0.01267  Uiso   1.00
C51    C     0.34708   0.63186   0.21829   0.01267  Uiso   1.00
C52    C     0.36765   0.72466   0.17965   0.01267  Uiso   1.00
C53    C     0.27437   0.73787   0.14352   0.01267  Uiso   1.00
C54    C     0.15888   0.65820   0.14899   0.01267  Uiso   1.00
C55    C     0.13758   0.56574   0.18823   0.01267  Uiso   1.00
C56    C     0.29804   0.83335   0.09505   0.01267  Uiso   1.00
C57    C     0.19665   0.90051   0.51341   0.01267  Uiso   1.00
C58    C     0.13513   0.78236   0.51334   0.01267  Uiso   1.00
C59    C     0.03332   0.73221   0.47128   0.01267  Uiso   1.00
C60    C     0.98049   0.62203   0.46616   0.01267  Uiso   1.00
C61    C     0.02752   0.55895   0.50348   0.01267  Uiso   1.00
C62    C     0.12751   0.61090   0.54783   0.01267  Uiso   1.00
C63    C     0.18212   0.72107   0.55198   0.01267  Uiso   1.00
C64    C     0.32699   0.81854   0.89851   0.01267  Uiso   1.00
C65    C     0.31701   0.72754   0.84881   0.01267  Uiso   1.00
C66    C     0.21797   0.68153   0.80319   0.01267  Uiso   1.00
C67    C     0.20497   0.59437   0.75995   0.01267  Uiso   1.00
C68    C     0.28895   0.54930   0.76286   0.01267  Uiso   1.00
C69    C     0.38930   0.59712   0.80759   0.01267  Uiso   1.00
C70    C     0.40366   0.68604   0.84948   0.01267  Uiso   1.00
C71    C     0.26851   0.44997   0.72229   0.01267  Uiso   1.00
C72    C     0.15292   0.36814   0.71829   0.01267  Uiso   1.00
C73    C     0.13235   0.27534   0.67965   0.01267  Uiso   1.00
C74    C     0.22563   0.26213   0.64352   0.01267  Uiso   1.00
C75    C     0.34112   0.34180   0.64899   0.01267  Uiso   1.00
C76    C     0.36242   0.43426   0.68823   0.01267  Uiso   1.00
C77    C     0.20196   0.16665   0.59505   0.01267  Uiso   1.00
C78    C     0.30335   0.09949   0.01341   0.01267  Uiso   1.00
C79    C     0.36487   0.21764   0.01334   0.01267  Uiso   1.00
C80    C     0.46668   0.26779   0.97128   0.01267  Uiso   1.00
C81    C     0.51951   0.37797   0.96616   0.01267  Uiso   1.00
C82    C     0.47248   0.44105   0.00348   0.01267  Uiso   1.00
C83    C     0.37249   0.38910   0.04783   0.01267  Uiso   1.00
C84    C     0.31788   0.27893   0.05198   0.01267  Uiso   1.00
O1     O     0.92845   0.87694   0.57684   0.01267  Uiso   1.00
O2     O     0.72960   0.82622   0.58845   0.01267  Uiso   1.00
O3     O     0.59418   0.10621   0.91731   0.01267  Uiso   1.00
O4     O     0.79311   0.15751   0.93000   0.01267  Uiso   1.00
O5     O     0.69754   0.05575   0.46414   0.01267  Uiso   1.00
O6     O     0.85629   0.04500   0.51447   0.01267  Uiso   1.00
O7     O     0.57155   0.12306   0.07684   0.01267  Uiso   1.00
O8     O     0.77040   0.17378   0.08845   0.01267  Uiso   1.00
O9     O     0.90582   0.89379   0.41731   0.01267  Uiso   1.00
O10    O     0.70689   0.84249   0.43000   0.01267  Uiso   1.00
O11    O     0.80246   0.94425   0.96414   0.01267  Uiso   1.00
O12    O     0.64371   0.95500   0.01447   0.01267  Uiso   1.00
O13    O     0.07155   0.12306   0.42316   0.01267  Uiso   1.00
O14    O     0.27040   0.17378   0.41155   0.01267  Uiso   1.00
O15    O     0.40582   0.89379   0.08269   0.01267  Uiso   1.00
O16    O     0.20689   0.84249   0.07000   0.01267  Uiso   1.00
O17    O     0.30246   0.94425   0.53586   0.01267  Uiso   1.00
O18    O     0.14371   0.95500   0.48553   0.01267  Uiso   1.00
O19    O     0.42845   0.87694   0.92316   0.01267  Uiso   1.00
O20    O     0.22960   0.82622   0.91155   0.01267  Uiso   1.00
O21    O     0.09418   0.10621   0.58269   0.01267  Uiso   1.00
O22    O     0.29311   0.15751   0.57000   0.01267  Uiso   1.00
O23    O     0.19754   0.05575   0.03586   0.01267  Uiso   1.00
O24    O     0.35629   0.04500   0.98553   0.01267  Uiso   1.00
