data_KIFKAM_clean
_audit_creation_date              2014-07-02
_audit_creation_method            'Materials Studio'
_symmetry_space_group_name_H-M    'P1'
_symmetry_Int_Tables_number       1
_symmetry_cell_setting            triclinic
loop_
_symmetry_equiv_pos_as_xyz
  x,y,z
_cell_length_a                    8.9778
_cell_length_b                    9.8730
_cell_length_c                    17.2530
_cell_angle_alpha                 90.0000
_cell_angle_beta                  90.0000
_cell_angle_gamma                 92.6180
loop_
_atom_site_label
_atom_site_type_symbol
_atom_site_fract_x
_atom_site_fract_y
_atom_site_fract_z
_atom_site_U_iso_or_equiv
_atom_site_adp_type
_atom_site_occupancy
Mg1    Mg    0.62229   0.39732   0.97990   0.01267  Uiso   1.00
Mg2    Mg    0.87771   0.10268   0.47990   0.01267  Uiso   1.00
Mg3    Mg    0.37771   0.60268   0.02010   0.01267  Uiso   1.00
Mg4    Mg    0.12229   0.89732   0.52010   0.01267  Uiso   1.00
Mg5    Mg    0.00000   0.50000   0.00000   0.01267  Uiso   1.00
Mg6    Mg    0.50000  -0.00000   0.50000   0.01267  Uiso   1.00
H1     H     0.01650   0.70750   0.78830   0.01267  Uiso   1.00
H2     H     0.00970   0.83560   0.67460   0.01267  Uiso   1.00
H3     H     0.58260   0.70060   0.63910   0.01267  Uiso   1.00
H4     H     0.58970   0.57240   0.75260   0.01267  Uiso   1.00
H5     H     0.80800   0.98390   0.90810   0.01267  Uiso   1.00
H6     H     0.03820   0.19800   0.07320   0.01267  Uiso   1.00
H7     H     0.48350   0.79250   0.28830   0.01267  Uiso   1.00
H8     H     0.49030   0.66440   0.17460   0.01267  Uiso   1.00
H9     H     0.91740   0.79940   0.13910   0.01267  Uiso   1.00
H10    H     0.91030   0.92760   0.25260   0.01267  Uiso   1.00
H11    H     0.69200   0.51610   0.40810   0.01267  Uiso   1.00
H12    H     0.46180   0.30200   0.57320   0.01267  Uiso   1.00
H13    H     0.98350   0.29250   0.21170   0.01267  Uiso   1.00
H14    H     0.99030   0.16440   0.32540   0.01267  Uiso   1.00
H15    H     0.41740   0.29940   0.36090   0.01267  Uiso   1.00
H16    H     0.41030   0.42760   0.24740   0.01267  Uiso   1.00
H17    H     0.19200   0.01610   0.09190   0.01267  Uiso   1.00
H18    H     0.96180   0.80200   0.92680   0.01267  Uiso   1.00
H19    H     0.51650   0.20750   0.71170   0.01267  Uiso   1.00
H20    H     0.50970   0.33560   0.82540   0.01267  Uiso   1.00
H21    H     0.08260   0.20060   0.86090   0.01267  Uiso   1.00
H22    H     0.08970   0.07240   0.74740   0.01267  Uiso   1.00
H23    H     0.30800   0.48390   0.59190   0.01267  Uiso   1.00
H24    H     0.53820   0.69800   0.42680   0.01267  Uiso   1.00
C1     C     0.80680   0.55305   0.85804   0.01267  Uiso   1.00
C2     C     0.80350   0.62881   0.78242   0.01267  Uiso   1.00
C3     C     0.92786   0.70640   0.75821   0.01267  Uiso   1.00
C4     C     0.92411   0.78251   0.69039   0.01267  Uiso   1.00
C5     C     0.79552   0.78090   0.64593   0.01267  Uiso   1.00
C6     C     0.67090   0.70230   0.66953   0.01267  Uiso   1.00
C7     C     0.67490   0.62630   0.73715   0.01267  Uiso   1.00
C8     C     0.78328   0.86801   0.57514   0.01267  Uiso   1.00
C9     C     0.80828   0.22342   0.97772   0.01267  Uiso   1.00
C10    C     0.90950   0.10854   0.98871   0.01267  Uiso   1.00
C11    C     0.88600   0.99041   0.94531   0.01267  Uiso   1.00
C12    C     0.02290   0.11760   0.04341   0.01267  Uiso   1.00
C13    C     0.69320   0.94695   0.35804   0.01267  Uiso   1.00
C14    C     0.69650   0.87119   0.28242   0.01267  Uiso   1.00
C15    C     0.57214   0.79360   0.25821   0.01267  Uiso   1.00
C16    C     0.57589   0.71749   0.19039   0.01267  Uiso   1.00
C17    C     0.70448   0.71910   0.14593   0.01267  Uiso   1.00
C18    C     0.82910   0.79770   0.16953   0.01267  Uiso   1.00
C19    C     0.82510   0.87370   0.23715   0.01267  Uiso   1.00
C20    C     0.71672   0.63199   0.07514   0.01267  Uiso   1.00
C21    C     0.69172   0.27658   0.47772   0.01267  Uiso   1.00
C22    C     0.59050   0.39146   0.48871   0.01267  Uiso   1.00
C23    C     0.61400   0.50959   0.44531   0.01267  Uiso   1.00
C24    C     0.47710   0.38240   0.54341   0.01267  Uiso   1.00
C25    C     0.19320   0.44695   0.14196   0.01267  Uiso   1.00
C26    C     0.19650   0.37119   0.21758   0.01267  Uiso   1.00
C27    C     0.07214   0.29360   0.24179   0.01267  Uiso   1.00
C28    C     0.07589   0.21749   0.30961   0.01267  Uiso   1.00
C29    C     0.20448   0.21910   0.35407   0.01267  Uiso   1.00
C30    C     0.32910   0.29770   0.33047   0.01267  Uiso   1.00
C31    C     0.32510   0.37370   0.26285   0.01267  Uiso   1.00
C32    C     0.21672   0.13199   0.42486   0.01267  Uiso   1.00
C33    C     0.19172   0.77658   0.02228   0.01267  Uiso   1.00
C34    C     0.09050   0.89146   0.01129   0.01267  Uiso   1.00
C35    C     0.11400   0.00959   0.05469   0.01267  Uiso   1.00
C36    C     0.97710   0.88240   0.95659   0.01267  Uiso   1.00
C37    C     0.30680   0.05305   0.64196   0.01267  Uiso   1.00
C38    C     0.30350   0.12881   0.71758   0.01267  Uiso   1.00
C39    C     0.42786   0.20640   0.74179   0.01267  Uiso   1.00
C40    C     0.42411   0.28251   0.80961   0.01267  Uiso   1.00
C41    C     0.29552   0.28090   0.85407   0.01267  Uiso   1.00
C42    C     0.17090   0.20230   0.83047   0.01267  Uiso   1.00
C43    C     0.17490   0.12630   0.76285   0.01267  Uiso   1.00
C44    C     0.28328   0.36801   0.92486   0.01267  Uiso   1.00
C45    C     0.30828   0.72342   0.52228   0.01267  Uiso   1.00
C46    C     0.40950   0.60854   0.51129   0.01267  Uiso   1.00
C47    C     0.38600   0.49041   0.55469   0.01267  Uiso   1.00
C48    C     0.52290   0.61760   0.45659   0.01267  Uiso   1.00
O1     O     0.68219   0.50744   0.88436   0.01267  Uiso   1.00
O2     O     0.93006   0.54260   0.88999   0.01267  Uiso   1.00
O3     O     0.90165   0.92851   0.54779   0.01267  Uiso   1.00
O4     O     0.65733   0.88185   0.54755   0.01267  Uiso   1.00
O5     O     0.68745   0.20538   0.94180   0.01267  Uiso   1.00
O6     O     0.84206   0.33853   0.00840   0.01267  Uiso   1.00
O7     O     0.81781   0.99256   0.38436   0.01267  Uiso   1.00
O8     O     0.56994   0.95740   0.38999   0.01267  Uiso   1.00
O9     O     0.59835   0.57149   0.04779   0.01267  Uiso   1.00
O10    O     0.84267   0.61815   0.04755   0.01267  Uiso   1.00
O11    O     0.81255   0.29462   0.44180   0.01267  Uiso   1.00
O12    O     0.65794   0.16147   0.50840   0.01267  Uiso   1.00
O13    O     0.31781   0.49256   0.11564   0.01267  Uiso   1.00
O14    O     0.06994   0.45740   0.11001   0.01267  Uiso   1.00
O15    O     0.09835   0.07149   0.45221   0.01267  Uiso   1.00
O16    O     0.34267   0.11815   0.45245   0.01267  Uiso   1.00
O17    O     0.31255   0.79462   0.05820   0.01267  Uiso   1.00
O18    O     0.15794   0.66147   0.99160   0.01267  Uiso   1.00
O19    O     0.18219   0.00744   0.61564   0.01267  Uiso   1.00
O20    O     0.43006   0.04260   0.61001   0.01267  Uiso   1.00
O21    O     0.40165   0.42851   0.95221   0.01267  Uiso   1.00
O22    O     0.15733   0.38185   0.95245   0.01267  Uiso   1.00
O23    O     0.18745   0.70538   0.55820   0.01267  Uiso   1.00
O24    O     0.34206   0.83853   0.49160   0.01267  Uiso   1.00
