data_KIHTOL01_clean
_audit_creation_date              2015-10-16
_audit_creation_method            'Materials Studio'
_symmetry_space_group_name_H-M    'P1'
_symmetry_Int_Tables_number       1
_symmetry_cell_setting            triclinic
loop_
_symmetry_equiv_pos_as_xyz
  x,y,z
_cell_length_a                    8.9406
_cell_length_b                    12.1306
_cell_length_c                    16.6998
_cell_angle_alpha                 90.0000
_cell_angle_beta                  90.0000
_cell_angle_gamma                 109.2810
loop_
_atom_site_label
_atom_site_type_symbol
_atom_site_fract_x
_atom_site_fract_y
_atom_site_fract_z
_atom_site_U_iso_or_equiv
_atom_site_adp_type
_atom_site_occupancy
Nd1    Nd    0.06697   0.04804   0.11685   0.01267  Uiso   1.00
Nd2    Nd    0.93303   0.95196   0.88315   0.01267  Uiso   1.00
Nd3    Nd    0.56697   0.04804   0.38315   0.01267  Uiso   1.00
Nd4    Nd    0.43303   0.95196   0.61685   0.01267  Uiso   1.00
H1     H     0.37190   0.53290   0.06770   0.01267  Uiso   1.00
H2     H     0.52940   0.71760   0.06830   0.01267  Uiso   1.00
H3     H     0.74150   0.79520   0.42830   0.01267  Uiso   1.00
H4     H     0.25850   0.20480   0.57170   0.01267  Uiso   1.00
H5     H     0.02940   0.71760   0.43170   0.01267  Uiso   1.00
H6     H     0.41250   0.72400   0.82230   0.01267  Uiso   1.00
H7     H     0.67940   0.35710   0.39900   0.01267  Uiso   1.00
H8     H     0.40170   0.34790   0.30760   0.01267  Uiso   1.00
H9     H     0.87190   0.53290   0.43230   0.01267  Uiso   1.00
H10    H     0.00820   0.66400   0.07340   0.01267  Uiso   1.00
H11    H     0.90710   0.47460   0.77550   0.01267  Uiso   1.00
H12    H     0.75850   0.20480   0.92830   0.01267  Uiso   1.00
H13    H     0.24150   0.79520   0.07170   0.01267  Uiso   1.00
H14    H     0.58750   0.27600   0.17770   0.01267  Uiso   1.00
H15    H     0.38050   0.36370   0.96500   0.01267  Uiso   1.00
H16    H     0.82830   0.81820   0.66640   0.01267  Uiso   1.00
H17    H     0.61950   0.63630   0.03500   0.01267  Uiso   1.00
H18    H     0.20460   0.50520   0.91460   0.01267  Uiso   1.00
H19    H     0.32830   0.81820   0.83360   0.01267  Uiso   1.00
H20    H     0.99180   0.33600   0.92660   0.01267  Uiso   1.00
H21    H     0.59290   0.52540   0.27550   0.01267  Uiso   1.00
H22    H     0.12810   0.46710   0.56770   0.01267  Uiso   1.00
H23    H     0.79540   0.49480   0.08540   0.01267  Uiso   1.00
H24    H     0.29540   0.49480   0.41460   0.01267  Uiso   1.00
H25    H     0.11950   0.63630   0.46500   0.01267  Uiso   1.00
H26    H     0.47060   0.28240   0.93170   0.01267  Uiso   1.00
H27    H     0.70460   0.50520   0.58540   0.01267  Uiso   1.00
H28    H     0.08750   0.27600   0.32230   0.01267  Uiso   1.00
H29    H     0.67170   0.18180   0.16640   0.01267  Uiso   1.00
H30    H     0.17170   0.18180   0.33360   0.01267  Uiso   1.00
H31    H     0.82060   0.64290   0.89900   0.01267  Uiso   1.00
H32    H     0.49180   0.33600   0.57340   0.01267  Uiso   1.00
H33    H     0.59830   0.65210   0.69240   0.01267  Uiso   1.00
H34    H     0.87550   0.86060   0.48870   0.01267  Uiso   1.00
H35    H     0.40710   0.47460   0.72450   0.01267  Uiso   1.00
H36    H     0.50820   0.66400   0.42660   0.01267  Uiso   1.00
H37    H     0.62810   0.46710   0.93230   0.01267  Uiso   1.00
H38    H     0.90170   0.34790   0.19240   0.01267  Uiso   1.00
H39    H     0.97060   0.28240   0.56830   0.01267  Uiso   1.00
H40    H     0.12450   0.13940   0.51130   0.01267  Uiso   1.00
H41    H     0.09830   0.65210   0.80760   0.01267  Uiso   1.00
H42    H     0.37550   0.86060   0.01130   0.01267  Uiso   1.00
H43    H     0.91250   0.72400   0.67770   0.01267  Uiso   1.00
H44    H     0.88050   0.36370   0.53500   0.01267  Uiso   1.00
H45    H     0.32060   0.64290   0.60100   0.01267  Uiso   1.00
H46    H     0.17940   0.35710   0.10100   0.01267  Uiso   1.00
H47    H     0.62450   0.13940   0.98870   0.01267  Uiso   1.00
H48    H     0.09290   0.52540   0.22450   0.01267  Uiso   1.00
C1     C     0.22520   0.66460   0.70602   0.01267  Uiso   1.00
C2     C     0.87000   0.39810   0.00691   0.01267  Uiso   1.00
C3     C     0.15610   0.85690   0.97400   0.01267  Uiso   1.00
C4     C     0.65610   0.85690   0.52600   0.01267  Uiso   1.00
C5     C     0.06010   0.89030   0.70218   0.01267  Uiso   1.00
C6     C     0.99680   0.45460   0.66788   0.01267  Uiso   1.00
C7     C     0.09890   0.20530   0.30009   0.01267  Uiso   1.00
C8     C     0.37610   0.30400   0.92560   0.01267  Uiso   1.00
C9     C     0.27480   0.33540   0.20602   0.01267  Uiso   1.00
C10    C     0.12130   0.50420   0.61571   0.01267  Uiso   1.00
C11    C     0.56010   0.89030   0.79782   0.01267  Uiso   1.00
C12    C     0.39630   0.38480   0.25942   0.01267  Uiso   1.00
C13    C     0.23620   0.60960   0.63552   0.01267  Uiso   1.00
C14    C     0.13000   0.60190   0.99309   0.01267  Uiso   1.00
C15    C     0.51080   0.49090   0.23990   0.01267  Uiso   1.00
C16    C     0.48920   0.50910   0.76010   0.01267  Uiso   1.00
C17    C     0.37770   0.49690   0.44921   0.01267  Uiso   1.00
C18    C     0.59890   0.20530   0.19991   0.01267  Uiso   1.00
C19    C     0.87870   0.49580   0.38429   0.01267  Uiso   1.00
C20    C     0.37870   0.49580   0.11571   0.01267  Uiso   1.00
C21    C     0.87610   0.30400   0.57440   0.01267  Uiso   1.00
C22    C     0.12230   0.50310   0.94921   0.01267  Uiso   1.00
C23    C     0.99460   0.40170   0.95601   0.01267  Uiso   1.00
C24    C     0.01080   0.49090   0.26010   0.01267  Uiso   1.00
C25    C     0.63000   0.60190   0.50691   0.01267  Uiso   1.00
C26    C     0.43990   0.10970   0.20218   0.01267  Uiso   1.00
C27    C     0.49460   0.40170   0.54399   0.01267  Uiso   1.00
C28    C     0.50540   0.59830   0.45601   0.01267  Uiso   1.00
C29    C     0.89630   0.38480   0.24058   0.01267  Uiso   1.00
C30    C     0.62390   0.69600   0.07440   0.01267  Uiso   1.00
C31    C     0.73160   0.19800   0.55828   0.01267  Uiso   1.00
C32    C     0.76840   0.80200   0.05828   0.01267  Uiso   1.00
C33    C     0.40110   0.79470   0.80009   0.01267  Uiso   1.00
C34    C     0.87770   0.49690   0.05079   0.01267  Uiso   1.00
C35    C     0.34390   0.14310   0.47400   0.01267  Uiso   1.00
C36    C     0.77480   0.33540   0.29398   0.01267  Uiso   1.00
C37    C     0.23130   0.19440   0.51530   0.01267  Uiso   1.00
C38    C     0.98920   0.50910   0.73990   0.01267  Uiso   1.00
C39    C     0.62130   0.50420   0.88429   0.01267  Uiso   1.00
C40    C     0.00320   0.54540   0.33212   0.01267  Uiso   1.00
C41    C     0.49680   0.45460   0.83212   0.01267  Uiso   1.00
C42    C     0.73620   0.60960   0.86448   0.01267  Uiso   1.00
C43    C     0.37000   0.39810   0.49309   0.01267  Uiso   1.00
C44    C     0.26870   0.80560   0.01530   0.01267  Uiso   1.00
C45    C     0.76380   0.39040   0.36448   0.01267  Uiso   1.00
C46    C     0.76870   0.80560   0.48470   0.01267  Uiso   1.00
C47    C     0.72520   0.66460   0.79398   0.01267  Uiso   1.00
C48    C     0.90110   0.79470   0.69991   0.01267  Uiso   1.00
C49    C     0.60370   0.61520   0.74058   0.01267  Uiso   1.00
C50    C     0.10370   0.61520   0.75942   0.01267  Uiso   1.00
C51    C     0.50320   0.54540   0.16788   0.01267  Uiso   1.00
C52    C     0.84390   0.14310   0.02600   0.01267  Uiso   1.00
C53    C     0.26840   0.80200   0.44172   0.01267  Uiso   1.00
C54    C     0.93990   0.10970   0.29782   0.01267  Uiso   1.00
C55    C     0.26380   0.39040   0.13552   0.01267  Uiso   1.00
C56    C     0.12390   0.69600   0.42560   0.01267  Uiso   1.00
C57    C     0.23160   0.19800   0.94172   0.01267  Uiso   1.00
C58    C     0.62230   0.50310   0.55079   0.01267  Uiso   1.00
C59    C     0.00540   0.59830   0.04399   0.01267  Uiso   1.00
C60    C     0.73130   0.19440   0.98470   0.01267  Uiso   1.00
O1     O     0.83950   0.86441   0.11530   0.01267  Uiso   1.00
O2     O     0.59350   0.95463   0.73700   0.01267  Uiso   1.00
O3     O     0.84080   0.77358   0.78024   0.01267  Uiso   1.00
O4     O     0.35310   0.09972   0.14219   0.01267  Uiso   1.00
O5     O     0.87010   0.05760   0.99224   0.01267  Uiso   1.00
O6     O     0.73380   0.30312   0.01701   0.01267  Uiso   1.00
O7     O     0.33950   0.86441   0.38470   0.01267  Uiso   1.00
O8     O     0.19980   0.18303   0.01456   0.01267  Uiso   1.00
O9     O     0.80020   0.81697   0.98544   0.01267  Uiso   1.00
O10    O     0.90240   0.18064   0.09185   0.01267  Uiso   1.00
O11    O     0.09350   0.95463   0.76300   0.01267  Uiso   1.00
O12    O     0.65920   0.22642   0.28024   0.01267  Uiso   1.00
O13    O     0.37520   0.35105   0.84774   0.01267  Uiso   1.00
O14    O     0.69980   0.18303   0.48544   0.01267  Uiso   1.00
O15    O     0.66050   0.13559   0.61530   0.01267  Uiso   1.00
O16    O     0.26620   0.69688   0.98299   0.01267  Uiso   1.00
O17    O     0.34080   0.77358   0.71976   0.01267  Uiso   1.00
O18    O     0.12990   0.94240   0.00776   0.01267  Uiso   1.00
O19    O     0.14690   0.90028   0.64219   0.01267  Uiso   1.00
O20    O     0.90650   0.04537   0.23700   0.01267  Uiso   1.00
O21    O     0.40240   0.18064   0.40815   0.01267  Uiso   1.00
O22    O     0.87520   0.35105   0.65226   0.01267  Uiso   1.00
O23    O     0.12480   0.64895   0.34774   0.01267  Uiso   1.00
O24    O     0.37010   0.05760   0.50776   0.01267  Uiso   1.00
O25    O     0.62480   0.64895   0.15226   0.01267  Uiso   1.00
O26    O     0.62990   0.94240   0.49224   0.01267  Uiso   1.00
O27    O     0.09760   0.81936   0.90815   0.01267  Uiso   1.00
O28    O     0.30020   0.81697   0.51456   0.01267  Uiso   1.00
O29    O     0.16050   0.13559   0.88470   0.01267  Uiso   1.00
O30    O     0.85310   0.09972   0.35781   0.01267  Uiso   1.00
O31    O     0.76620   0.69688   0.51701   0.01267  Uiso   1.00
O32    O     0.40650   0.04537   0.26300   0.01267  Uiso   1.00
O33    O     0.64690   0.90028   0.85781   0.01267  Uiso   1.00
O34    O     0.59760   0.81936   0.59185   0.01267  Uiso   1.00
O35    O     0.15920   0.22642   0.21976   0.01267  Uiso   1.00
O36    O     0.23380   0.30312   0.48299   0.01267  Uiso   1.00
