data_image0
_cell_length_a       9.7355
_cell_length_b       10.0002
_cell_length_c       26.295
_cell_angle_alpha    90
_cell_angle_beta     90
_cell_angle_gamma    90

_symmetry_space_group_name_H-M    "P 1"
_symmetry_int_tables_number       1

loop_
  _symmetry_equiv_pos_as_xyz
  'x, y, z'

loop_
  _atom_site_label
  _atom_site_occupancy
  _atom_site_fract_x
  _atom_site_fract_y
  _atom_site_fract_z
  _atom_site_thermal_displace_type
  _atom_site_B_iso_or_equiv
  _atom_site_type_symbol
  Cd1      1.0000 0.46862  0.31342  0.86616  Biso   1.000  Cd
  N1       1.0000 0.35060  0.15290  0.91210  Biso   1.000  N
  C1       1.0000 0.30590  0.18470  0.95980  Biso   1.000  C
  H1       1.0000 0.32580  0.26920  0.97260  Biso   1.000  H
  C2       1.0000 0.23280  0.09750  0.98970  Biso   1.000  C
  C3       1.0000 0.25150  0.93640  0.92390  Biso   1.000  C
  H2       1.0000 0.23850  0.85000  0.91180  Biso   1.000  H
  C4       1.0000 0.32320  0.02920  0.89560  Biso   1.000  C
  H3       1.0000 0.35410  0.00460  0.86350  Biso   1.000  H
  C5       1.0000 0.20000  0.97360  0.96990  Biso   1.000  C
  H4       1.0000 0.14290  0.91590  0.98780  Biso   1.000  H
  C6       1.0000 0.17590  0.13900  0.04010  Biso   1.000  C
  O1       1.0000 0.04520  0.36780  0.19200  Biso   1.000  O
  C7       1.0000 0.26160  0.21880  0.07650  Biso   1.000  C
  C8       1.0000 0.40360  0.22720  0.07320  Biso   1.000  C
  H5       1.0000 0.45160  0.18410  0.04740  Biso   1.000  H
  C9       1.0000 0.47240  0.30270  0.11020  Biso   1.000  C
  H6       1.0000 0.56790  0.30600  0.11070  Biso   1.000  H
  C10      1.0000 0.39710  0.37200  0.14590  Biso   1.000  C
  H7       1.0000 0.43950  0.42880  0.16910  Biso   1.000  H
  C11      1.0000 0.25290  0.35390  0.14610  Biso   1.000  C
  N2       1.0000 0.18870  0.27630  0.11310  Biso   1.000  N
  C12      1.0000 0.16050  0.41770  0.18480  Biso   1.000  C
  O2       1.0000 0.05930  0.10650  0.05140  Biso   1.000  O
  C13      1.0000 0.23840  0.75740  0.27250  Biso   1.000  C
  H8       1.0000 0.25270  0.83360  0.29210  Biso   1.000  H
  C14      1.0000 0.30060  0.74880  0.22610  Biso   1.000  C
  H9       1.0000 0.35650  0.81840  0.21500  Biso   1.000  H
  C15      1.0000 0.28170  0.63740  0.19520  Biso   1.000  C
  H10      1.0000 0.32170  0.63170  0.16310  Biso   1.000  H
  C16      1.0000 0.20040  0.53490  0.21440  Biso   1.000  C
  C17      1.0000 0.14210  0.55210  0.26190  Biso   1.000  C
  H11      1.0000 0.08800  0.48320  0.27470  Biso   1.000  H
  N3       1.0000 0.15840  0.66140  0.29070  Biso   1.000  N
  Cd2      1.0000 0.03138  0.68658  0.36616  Biso   1.000  Cd
  N4       1.0000 0.14940  0.84710  0.41210  Biso   1.000  N
  C18      1.0000 0.19410  0.81530  0.45980  Biso   1.000  C
  H12      1.0000 0.17420  0.73080  0.47260  Biso   1.000  H
  C19      1.0000 0.26720  0.90250  0.48970  Biso   1.000  C
  C20      1.0000 0.24850  0.06360  0.42390  Biso   1.000  C
  H13      1.0000 0.26150  0.15000  0.41180  Biso   1.000  H
  C21      1.0000 0.17680  0.97080  0.39560  Biso   1.000  C
  H14      1.0000 0.14590  0.99540  0.36350  Biso   1.000  H
  C22      1.0000 0.30000  0.02640  0.46990  Biso   1.000  C
  H15      1.0000 0.35710  0.08410  0.48780  Biso   1.000  H
  C23      1.0000 0.32410  0.86100  0.54010  Biso   1.000  C
  O3       1.0000 0.45480  0.63220  0.69200  Biso   1.000  O
  C24      1.0000 0.23840  0.78120  0.57650  Biso   1.000  C
  C25      1.0000 0.09640  0.77280  0.57320  Biso   1.000  C
  H16      1.0000 0.04840  0.81590  0.54740  Biso   1.000  H
  C26      1.0000 0.02760  0.69730  0.61020  Biso   1.000  C
  H17      1.0000 0.93210  0.69400  0.61070  Biso   1.000  H
  C27      1.0000 0.10290  0.62800  0.64590  Biso   1.000  C
  H18      1.0000 0.06050  0.57120  0.66910  Biso   1.000  H
  C28      1.0000 0.24710  0.64610  0.64610  Biso   1.000  C
  N5       1.0000 0.31130  0.72370  0.61310  Biso   1.000  N
  C29      1.0000 0.33950  0.58230  0.68480  Biso   1.000  C
  O4       1.0000 0.44070  0.89350  0.55140  Biso   1.000  O
  C30      1.0000 0.26160  0.24260  0.77250  Biso   1.000  C
  H19      1.0000 0.24730  0.16640  0.79210  Biso   1.000  H
  C31      1.0000 0.19940  0.25120  0.72610  Biso   1.000  C
  H20      1.0000 0.14350  0.18160  0.71500  Biso   1.000  H
  C32      1.0000 0.21830  0.36260  0.69520  Biso   1.000  C
  H21      1.0000 0.17830  0.36830  0.66310  Biso   1.000  H
  C33      1.0000 0.29960  0.46510  0.71440  Biso   1.000  C
  C34      1.0000 0.35790  0.44790  0.76190  Biso   1.000  C
  H22      1.0000 0.41200  0.51680  0.77470  Biso   1.000  H
  N6       1.0000 0.34160  0.33860  0.79070  Biso   1.000  N
  Cd3      1.0000 0.53138  0.81342  0.63384  Biso   1.000  Cd
  N7       1.0000 0.64940  0.65290  0.58790  Biso   1.000  N
  C35      1.0000 0.69410  0.68470  0.54020  Biso   1.000  C
  H23      1.0000 0.67420  0.76920  0.52740  Biso   1.000  H
  C36      1.0000 0.76720  0.59750  0.51030  Biso   1.000  C
  C37      1.0000 0.74850  0.43640  0.57610  Biso   1.000  C
  H24      1.0000 0.76150  0.35000  0.58820  Biso   1.000  H
  C38      1.0000 0.67680  0.52920  0.60440  Biso   1.000  C
  H25      1.0000 0.64590  0.50460  0.63650  Biso   1.000  H
  C39      1.0000 0.80000  0.47360  0.53010  Biso   1.000  C
  H26      1.0000 0.85710  0.41590  0.51220  Biso   1.000  H
  C40      1.0000 0.82410  0.63900  0.45990  Biso   1.000  C
  O5       1.0000 0.95480  0.86780  0.30800  Biso   1.000  O
  C41      1.0000 0.73840  0.71880  0.42350  Biso   1.000  C
  C42      1.0000 0.59640  0.72720  0.42680  Biso   1.000  C
  H27      1.0000 0.54840  0.68410  0.45260  Biso   1.000  H
  C43      1.0000 0.52760  0.80270  0.38980  Biso   1.000  C
  H28      1.0000 0.43210  0.80600  0.38930  Biso   1.000  H
  C44      1.0000 0.60290  0.87200  0.35410  Biso   1.000  C
  H29      1.0000 0.56050  0.92880  0.33090  Biso   1.000  H
  C45      1.0000 0.74710  0.85390  0.35390  Biso   1.000  C
  N8       1.0000 0.81130  0.77630  0.38690  Biso   1.000  N
  C46      1.0000 0.83950  0.91770  0.31520  Biso   1.000  C
  O6       1.0000 0.94070  0.60650  0.44860  Biso   1.000  O
  C47      1.0000 0.76160  0.25740  0.22750  Biso   1.000  C
  H30      1.0000 0.74730  0.33360  0.20790  Biso   1.000  H
  C48      1.0000 0.69940  0.24880  0.27390  Biso   1.000  C
  H31      1.0000 0.64350  0.31840  0.28500  Biso   1.000  H
  C49      1.0000 0.71830  0.13740  0.30480  Biso   1.000  C
  H32      1.0000 0.67830  0.13170  0.33690  Biso   1.000  H
  C50      1.0000 0.79960  0.03490  0.28560  Biso   1.000  C
  C51      1.0000 0.85790  0.05210  0.23810  Biso   1.000  C
  H33      1.0000 0.91200  0.98320  0.22530  Biso   1.000  H
  N9       1.0000 0.84160  0.16140  0.20930  Biso   1.000  N
  Cd4      1.0000 0.96862  0.18658  0.13384  Biso   1.000  Cd
  N10      1.0000 0.85060  0.34710  0.08790  Biso   1.000  N
  C52      1.0000 0.80590  0.31530  0.04020  Biso   1.000  C
  H34      1.0000 0.82580  0.23080  0.02740  Biso   1.000  H
  C53      1.0000 0.73280  0.40250  0.01030  Biso   1.000  C
  C54      1.0000 0.75150  0.56360  0.07610  Biso   1.000  C
  H35      1.0000 0.73850  0.65000  0.08820  Biso   1.000  H
  C55      1.0000 0.82320  0.47080  0.10440  Biso   1.000  C
  H36      1.0000 0.85410  0.49540  0.13650  Biso   1.000  H
  C56      1.0000 0.70000  0.52640  0.03010  Biso   1.000  C
  H37      1.0000 0.64290  0.58410  0.01220  Biso   1.000  H
  C57      1.0000 0.67590  0.36100  0.95990  Biso   1.000  C
  O7       1.0000 0.54520  0.13220  0.80800  Biso   1.000  O
  C58      1.0000 0.76160  0.28120  0.92350  Biso   1.000  C
  C59      1.0000 0.90360  0.27280  0.92680  Biso   1.000  C
  H38      1.0000 0.95160  0.31590  0.95260  Biso   1.000  H
  C60      1.0000 0.97240  0.19730  0.88980  Biso   1.000  C
  H39      1.0000 0.06790  0.19400  0.88930  Biso   1.000  H
  C61      1.0000 0.89710  0.12800  0.85410  Biso   1.000  C
  H40      1.0000 0.93950  0.07120  0.83090  Biso   1.000  H
  C62      1.0000 0.75290  0.14610  0.85390  Biso   1.000  C
  N11      1.0000 0.68870  0.22370  0.88690  Biso   1.000  N
  C63      1.0000 0.66050  0.08230  0.81520  Biso   1.000  C
  O8       1.0000 0.55930  0.39350  0.94860  Biso   1.000  O
  C64      1.0000 0.73840  0.74260  0.72750  Biso   1.000  C
  H41      1.0000 0.75270  0.66640  0.70790  Biso   1.000  H
  C65      1.0000 0.80060  0.75120  0.77390  Biso   1.000  C
  H42      1.0000 0.85650  0.68160  0.78500  Biso   1.000  H
  C66      1.0000 0.78170  0.86260  0.80480  Biso   1.000  C
  H43      1.0000 0.82170  0.86830  0.83690  Biso   1.000  H
  C67      1.0000 0.70040  0.96510  0.78560  Biso   1.000  C
  C68      1.0000 0.64210  0.94790  0.73810  Biso   1.000  C
  H44      1.0000 0.58800  0.01680  0.72530  Biso   1.000  H
  N12      1.0000 0.65840  0.83860  0.70930  Biso   1.000  N
