data_KIJRUS_clean
_audit_creation_date              2014-07-02
_audit_creation_method            'Materials Studio'
_symmetry_space_group_name_H-M    'P1'
_symmetry_Int_Tables_number       1
_symmetry_cell_setting            triclinic
loop_
_symmetry_equiv_pos_as_xyz
  x,y,z
_cell_length_a                    18.1399
_cell_length_b                    21.9042
_cell_length_c                    21.9042
_cell_angle_alpha                 80.1274
_cell_angle_beta                  65.5390
_cell_angle_gamma                 65.5389
loop_
_atom_site_label
_atom_site_type_symbol
_atom_site_fract_x
_atom_site_fract_y
_atom_site_fract_z
_atom_site_U_iso_or_equiv
_atom_site_adp_type
_atom_site_occupancy
Cu1    Cu    0.88719   0.72381   0.27619   0.01267  Uiso   1.00
Cu2    Cu    0.99508   0.78621   0.21379   0.01267  Uiso   1.00
Cu3    Cu    0.88719   0.27619   0.72381   0.01267  Uiso   1.00
Cu4    Cu    0.99508   0.21379   0.78621   0.01267  Uiso   1.00
H1     H     0.85570   0.68130   0.10630   0.01267  Uiso   1.00
H2     H     0.86260   0.65560   0.00580   0.01267  Uiso   1.00
H3     H     0.04610   0.73410   0.90730   0.01267  Uiso   1.00
H4     H     0.03730   0.75840   0.00920   0.01267  Uiso   1.00
H5     H     0.96430   0.76480   0.83520   0.01267  Uiso   1.00
H6     H     0.95410   0.64600   0.72100   0.01267  Uiso   1.00
H7     H     0.94230   0.58850   0.90610   0.01267  Uiso   1.00
H8     H     0.01050   0.48650   0.85970   0.01267  Uiso   1.00
H9     H     0.01960   0.38520   0.83440   0.01267  Uiso   1.00
H10    H     0.87370   0.47800   0.72840   0.01267  Uiso   1.00
H11    H     0.87460   0.57790   0.74570   0.01267  Uiso   1.00
H12    H     0.64330   0.31870   0.89370   0.01267  Uiso   1.00
H13    H     0.52400   0.34440   0.99420   0.01267  Uiso   1.00
H14    H     0.68750   0.26590   0.09270   0.01267  Uiso   1.00
H15    H     0.80490   0.24160   0.99080   0.01267  Uiso   1.00
H16    H     0.56430   0.23520   0.16480   0.01267  Uiso   1.00
H17    H     0.32110   0.35400   0.27900   0.01267  Uiso   1.00
H18    H     0.43690   0.41150   0.09390   0.01267  Uiso   1.00
H19    H     0.35670   0.51350   0.14030   0.01267  Uiso   1.00
H20    H     0.23920   0.61480   0.16560   0.01267  Uiso   1.00
H21    H     0.08010   0.52200   0.27160   0.01267  Uiso   1.00
H22    H     0.19820   0.42210   0.25430   0.01267  Uiso   1.00
H23    H     0.64330   0.89370   0.31870   0.01267  Uiso   1.00
H24    H     0.52400   0.99420   0.34440   0.01267  Uiso   1.00
H25    H     0.68750   0.09270   0.26590   0.01267  Uiso   1.00
H26    H     0.80490   0.99080   0.24160   0.01267  Uiso   1.00
H27    H     0.56430   0.16480   0.23520   0.01267  Uiso   1.00
H28    H     0.32110   0.27900   0.35400   0.01267  Uiso   1.00
H29    H     0.43690   0.09390   0.41150   0.01267  Uiso   1.00
H30    H     0.35670   0.14030   0.51350   0.01267  Uiso   1.00
H31    H     0.23920   0.16560   0.61480   0.01267  Uiso   1.00
H32    H     0.08010   0.27160   0.52200   0.01267  Uiso   1.00
H33    H     0.19820   0.25430   0.42210   0.01267  Uiso   1.00
H34    H     0.85570   0.10630   0.68130   0.01267  Uiso   1.00
H35    H     0.86260   0.00580   0.65560   0.01267  Uiso   1.00
H36    H     0.04610   0.90730   0.73410   0.01267  Uiso   1.00
H37    H     0.03730   0.00920   0.75840   0.01267  Uiso   1.00
H38    H     0.96430   0.83520   0.76480   0.01267  Uiso   1.00
H39    H     0.95410   0.72100   0.64600   0.01267  Uiso   1.00
H40    H     0.94230   0.90610   0.58850   0.01267  Uiso   1.00
H41    H     0.01050   0.85970   0.48650   0.01267  Uiso   1.00
H42    H     0.01960   0.83440   0.38520   0.01267  Uiso   1.00
H43    H     0.87370   0.72840   0.47800   0.01267  Uiso   1.00
H44    H     0.87460   0.74570   0.57790   0.01267  Uiso   1.00
C1     C     0.94444   0.73641   0.13351   0.01267  Uiso   1.00
C2     C     0.94741   0.72119   0.06739   0.01267  Uiso   1.00
C3     C     0.89423   0.69151   0.06623   0.01267  Uiso   1.00
C4     C     0.89783   0.67664   0.00590   0.01267  Uiso   1.00
C5     C     0.95321   0.69281   0.94577   0.01267  Uiso   1.00
C6     C     0.00745   0.72345   0.94705   0.01267  Uiso   1.00
C7     C     0.00245   0.73746   0.00824   0.01267  Uiso   1.00
C8     C     0.95763   0.67789   0.87905   0.01267  Uiso   1.00
C9     C     0.96099   0.72541   0.82841   0.01267  Uiso   1.00
C10    C     0.95952   0.71613   0.76763   0.01267  Uiso   1.00
C11    C     0.95462   0.65440   0.76096   0.01267  Uiso   1.00
C12    C     0.95060   0.60733   0.81027   0.01267  Uiso   1.00
C13    C     0.94895   0.61899   0.87111   0.01267  Uiso   1.00
C14    C     0.94562   0.54276   0.80200   0.01267  Uiso   1.00
C15    C     0.98520   0.48507   0.83093   0.01267  Uiso   1.00
C16    C     0.98760   0.42449   0.81771   0.01267  Uiso   1.00
C17    C     0.94521   0.42071   0.78147   0.01267  Uiso   1.00
C18    C     0.90302   0.47900   0.75416   0.01267  Uiso   1.00
C19    C     0.90360   0.53892   0.76468   0.01267  Uiso   1.00
C20    C     0.94387   0.35411   0.77195   0.01267  Uiso   1.00
C21    C     0.81436   0.26359   0.86649   0.01267  Uiso   1.00
C22    C     0.73599   0.27881   0.93261   0.01267  Uiso   1.00
C23    C     0.65197   0.30849   0.93377   0.01267  Uiso   1.00
C24    C     0.58037   0.32336   0.99410   0.01267  Uiso   1.00
C25    C     0.59179   0.30719   0.05423   0.01267  Uiso   1.00
C26    C     0.67795   0.27655   0.05295   0.01267  Uiso   1.00
C27    C     0.74815   0.26254   0.99176   0.01267  Uiso   1.00
C28    C     0.51457   0.32211   0.12095   0.01267  Uiso   1.00
C29    C     0.51481   0.27459   0.17159   0.01267  Uiso   1.00
C30    C     0.44328   0.28387   0.23237   0.01267  Uiso   1.00
C31    C     0.36998   0.34560   0.23904   0.01267  Uiso   1.00
C32    C     0.36820   0.39267   0.18973   0.01267  Uiso   1.00
C33    C     0.43905   0.38101   0.12889   0.01267  Uiso   1.00
C34    C     0.29038   0.45724   0.19800   0.01267  Uiso   1.00
C35    C     0.30120   0.51493   0.16907   0.01267  Uiso   1.00
C36    C     0.22980   0.57551   0.18229   0.01267  Uiso   1.00
C37    C     0.14739   0.57929   0.21853   0.01267  Uiso   1.00
C38    C     0.13618   0.52100   0.24584   0.01267  Uiso   1.00
C39    C     0.20720   0.46108   0.23532   0.01267  Uiso   1.00
C40    C     0.06993   0.64589   0.22805   0.01267  Uiso   1.00
C41    C     0.81436   0.86649   0.26359   0.01267  Uiso   1.00
C42    C     0.73599   0.93261   0.27881   0.01267  Uiso   1.00
C43    C     0.65197   0.93377   0.30849   0.01267  Uiso   1.00
C44    C     0.58037   0.99410   0.32336   0.01267  Uiso   1.00
C45    C     0.59179   0.05423   0.30719   0.01267  Uiso   1.00
C46    C     0.67795   0.05295   0.27655   0.01267  Uiso   1.00
C47    C     0.74815   0.99176   0.26254   0.01267  Uiso   1.00
C48    C     0.51457   0.12095   0.32211   0.01267  Uiso   1.00
C49    C     0.51481   0.17159   0.27459   0.01267  Uiso   1.00
C50    C     0.44328   0.23237   0.28387   0.01267  Uiso   1.00
C51    C     0.36998   0.23904   0.34560   0.01267  Uiso   1.00
C52    C     0.36820   0.18973   0.39267   0.01267  Uiso   1.00
C53    C     0.43905   0.12889   0.38101   0.01267  Uiso   1.00
C54    C     0.29038   0.19800   0.45724   0.01267  Uiso   1.00
C55    C     0.30120   0.16907   0.51493   0.01267  Uiso   1.00
C56    C     0.22980   0.18229   0.57551   0.01267  Uiso   1.00
C57    C     0.14739   0.21853   0.57929   0.01267  Uiso   1.00
C58    C     0.13618   0.24584   0.52100   0.01267  Uiso   1.00
C59    C     0.20720   0.23532   0.46108   0.01267  Uiso   1.00
C60    C     0.06993   0.22805   0.64589   0.01267  Uiso   1.00
C61    C     0.94444   0.13351   0.73641   0.01267  Uiso   1.00
C62    C     0.94741   0.06739   0.72119   0.01267  Uiso   1.00
C63    C     0.89423   0.06623   0.69151   0.01267  Uiso   1.00
C64    C     0.89783   0.00590   0.67664   0.01267  Uiso   1.00
C65    C     0.95321   0.94577   0.69281   0.01267  Uiso   1.00
C66    C     0.00745   0.94705   0.72345   0.01267  Uiso   1.00
C67    C     0.00245   0.00824   0.73746   0.01267  Uiso   1.00
C68    C     0.95763   0.87905   0.67789   0.01267  Uiso   1.00
C69    C     0.96099   0.82841   0.72541   0.01267  Uiso   1.00
C70    C     0.95952   0.76763   0.71613   0.01267  Uiso   1.00
C71    C     0.95462   0.76096   0.65440   0.01267  Uiso   1.00
C72    C     0.95060   0.81027   0.60733   0.01267  Uiso   1.00
C73    C     0.94895   0.87111   0.61899   0.01267  Uiso   1.00
C74    C     0.94562   0.80200   0.54276   0.01267  Uiso   1.00
C75    C     0.98520   0.83093   0.48507   0.01267  Uiso   1.00
C76    C     0.98760   0.81771   0.42449   0.01267  Uiso   1.00
C77    C     0.94521   0.78147   0.42071   0.01267  Uiso   1.00
C78    C     0.90302   0.75416   0.47900   0.01267  Uiso   1.00
C79    C     0.90360   0.76468   0.53892   0.01267  Uiso   1.00
C80    C     0.94387   0.77195   0.35411   0.01267  Uiso   1.00
O1     O     0.98820   0.76829   0.13189   0.01267  Uiso   1.00
O2     O     0.89452   0.71521   0.18597   0.01267  Uiso   1.00
O3     O     0.98767   0.30314   0.79550   0.01267  Uiso   1.00
O4     O     0.89788   0.35622   0.74040   0.01267  Uiso   1.00
O5     O     0.88838   0.23171   0.86811   0.01267  Uiso   1.00
O6     O     0.79570   0.28479   0.81403   0.01267  Uiso   1.00
O7     O     0.08631   0.69686   0.20450   0.01267  Uiso   1.00
O8     O     0.99450   0.64378   0.25960   0.01267  Uiso   1.00
O9     O     0.88838   0.86811   0.23171   0.01267  Uiso   1.00
O10    O     0.79570   0.81403   0.28479   0.01267  Uiso   1.00
O11    O     0.08631   0.20450   0.69686   0.01267  Uiso   1.00
O12    O     0.99450   0.25960   0.64378   0.01267  Uiso   1.00
O13    O     0.98820   0.13189   0.76829   0.01267  Uiso   1.00
O14    O     0.89452   0.18597   0.71521   0.01267  Uiso   1.00
O15    O     0.98767   0.79550   0.30314   0.01267  Uiso   1.00
O16    O     0.89788   0.74040   0.35622   0.01267  Uiso   1.00
Cu5    Cu    0.83662   0.27619   0.27619   0.01267  Uiso   1.00
Cu6    Cu    0.79113   0.21379   0.21379   0.01267  Uiso   1.00
Cu7    Cu    0.38900   0.72381   0.72381   0.01267  Uiso   1.00
Cu8    Cu    0.21871   0.78621   0.78621   0.01267  Uiso   1.00
H45    H     0.03800   0.10630   0.31870   0.01267  Uiso   1.00
H46    H     0.13160   0.00580   0.34440   0.01267  Uiso   1.00
H47    H     0.04660   0.90730   0.26590   0.01267  Uiso   1.00
H48    H     0.95350   0.00920   0.24160   0.01267  Uiso   1.00
H49    H     0.20050   0.83520   0.23520   0.01267  Uiso   1.00
H50    H     0.32490   0.72100   0.35400   0.01267  Uiso   1.00
H51    H     0.15160   0.90610   0.41150   0.01267  Uiso   1.00
H52    H     0.12980   0.85970   0.51350   0.01267  Uiso   1.00
H53    H     0.14600   0.83440   0.61480   0.01267  Uiso   1.00
H54    H     0.39790   0.72840   0.52200   0.01267  Uiso   1.00
H55    H     0.37970   0.74570   0.42210   0.01267  Uiso   1.00
H56    H     0.46300   0.89370   0.68130   0.01267  Uiso   1.00
H57    H     0.48180   0.99420   0.65560   0.01267  Uiso   1.00
H58    H     0.21980   0.09270   0.73410   0.01267  Uiso   1.00
H59    H     0.20430   0.99080   0.75840   0.01267  Uiso   1.00
H60    H     0.27090   0.16480   0.76480   0.01267  Uiso   1.00
H61    H     0.39990   0.27900   0.64600   0.01267  Uiso   1.00
H62    H     0.46920   0.09390   0.58850   0.01267  Uiso   1.00
H63    H     0.50300   0.14030   0.48650   0.01267  Uiso   1.00
H64    H     0.59520   0.16560   0.38520   0.01267  Uiso   1.00
H65    H     0.64830   0.27160   0.47800   0.01267  Uiso   1.00
H66    H     0.54750   0.25430   0.57790   0.01267  Uiso   1.00
H67    H     0.46300   0.68130   0.89370   0.01267  Uiso   1.00
H68    H     0.48180   0.65560   0.99420   0.01267  Uiso   1.00
H69    H     0.21980   0.73410   0.09270   0.01267  Uiso   1.00
H70    H     0.20430   0.75840   0.99080   0.01267  Uiso   1.00
H71    H     0.27090   0.76480   0.16480   0.01267  Uiso   1.00
H72    H     0.39990   0.64600   0.27900   0.01267  Uiso   1.00
H73    H     0.46920   0.58850   0.09390   0.01267  Uiso   1.00
H74    H     0.50300   0.48650   0.14030   0.01267  Uiso   1.00
H75    H     0.59520   0.38520   0.16560   0.01267  Uiso   1.00
H76    H     0.64830   0.47800   0.27160   0.01267  Uiso   1.00
H77    H     0.54750   0.57790   0.25430   0.01267  Uiso   1.00
H78    H     0.03800   0.31870   0.10630   0.01267  Uiso   1.00
H79    H     0.13160   0.34440   0.00580   0.01267  Uiso   1.00
H80    H     0.04660   0.26590   0.90730   0.01267  Uiso   1.00
H81    H     0.95350   0.24160   0.00920   0.01267  Uiso   1.00
H82    H     0.20050   0.23520   0.83520   0.01267  Uiso   1.00
H83    H     0.32490   0.35400   0.72100   0.01267  Uiso   1.00
H84    H     0.15160   0.41150   0.90610   0.01267  Uiso   1.00
H85    H     0.12980   0.51350   0.85970   0.01267  Uiso   1.00
H86    H     0.14600   0.61480   0.83440   0.01267  Uiso   1.00
H87    H     0.39790   0.52200   0.72840   0.01267  Uiso   1.00
H88    H     0.37970   0.42210   0.74570   0.01267  Uiso   1.00
C81    C     0.92205   0.13351   0.26359   0.01267  Uiso   1.00
C82    C     0.98520   0.06739   0.27881   0.01267  Uiso   1.00
C83    C     0.03954   0.06623   0.30849   0.01267  Uiso   1.00
C84    C     0.09627   0.00590   0.32336   0.01267  Uiso   1.00
C85    C     0.10102   0.94577   0.30719   0.01267  Uiso   1.00
C86    C     0.04550   0.94705   0.27655   0.01267  Uiso   1.00
C87    C     0.98931   0.00824   0.26254   0.01267  Uiso   1.00
C88    C     0.16332   0.87905   0.32211   0.01267  Uiso   1.00
C89    C     0.21060   0.82841   0.27459   0.01267  Uiso   1.00
C90    C     0.27285   0.76763   0.28387   0.01267  Uiso   1.00
C91    C     0.28442   0.76096   0.34560   0.01267  Uiso   1.00
C92    C     0.23913   0.81027   0.39267   0.01267  Uiso   1.00
C93    C     0.17994   0.87111   0.38101   0.01267  Uiso   1.00
C94    C     0.25238   0.80200   0.45724   0.01267  Uiso   1.00
C95    C     0.18387   0.83093   0.51493   0.01267  Uiso   1.00
C96    C     0.19469   0.81771   0.57551   0.01267  Uiso   1.00
C97    C     0.27332   0.78147   0.57929   0.01267  Uiso   1.00
C98    C     0.34282   0.75416   0.52100   0.01267  Uiso   1.00
C99    C     0.33172   0.76468   0.46108   0.01267  Uiso   1.00
C100   C     0.28418   0.77195   0.64589   0.01267  Uiso   1.00
C101   C     0.31915   0.86649   0.73641   0.01267  Uiso   1.00
C102   C     0.33140   0.93261   0.72119   0.01267  Uiso   1.00
C103   C     0.41426   0.93377   0.69151   0.01267  Uiso   1.00
C104   C     0.42553   0.99410   0.67664   0.01267  Uiso   1.00
C105   C     0.35398   0.05423   0.69281   0.01267  Uiso   1.00
C106   C     0.26910   0.05295   0.72345   0.01267  Uiso   1.00
C107   C     0.26009   0.99176   0.73746   0.01267  Uiso   1.00
C108   C     0.36448   0.12095   0.67789   0.01267  Uiso   1.00
C109   C     0.31360   0.17159   0.72541   0.01267  Uiso   1.00
C110   C     0.32435   0.23237   0.71613   0.01267  Uiso   1.00
C111   C     0.39098   0.23904   0.65440   0.01267  Uiso   1.00
C112   C     0.44207   0.18973   0.60733   0.01267  Uiso   1.00
C113   C     0.43206   0.12889   0.61899   0.01267  Uiso   1.00
C114   C     0.51162   0.19800   0.54276   0.01267  Uiso   1.00
C115   C     0.52973   0.16907   0.48507   0.01267  Uiso   1.00
C116   C     0.58791   0.18229   0.42449   0.01267  Uiso   1.00
C117   C     0.63408   0.21853   0.42071   0.01267  Uiso   1.00
C118   C     0.61798   0.24584   0.47900   0.01267  Uiso   1.00
C119   C     0.55748   0.23532   0.53892   0.01267  Uiso   1.00
C120   C     0.70202   0.22805   0.35411   0.01267  Uiso   1.00
C121   C     0.31915   0.73641   0.86649   0.01267  Uiso   1.00
C122   C     0.33140   0.72119   0.93261   0.01267  Uiso   1.00
C123   C     0.41426   0.69151   0.93377   0.01267  Uiso   1.00
C124   C     0.42553   0.67664   0.99410   0.01267  Uiso   1.00
C125   C     0.35398   0.69281   0.05423   0.01267  Uiso   1.00
C126   C     0.26910   0.72345   0.05295   0.01267  Uiso   1.00
C127   C     0.26009   0.73746   0.99176   0.01267  Uiso   1.00
C128   C     0.36448   0.67789   0.12095   0.01267  Uiso   1.00
C129   C     0.31360   0.72541   0.17159   0.01267  Uiso   1.00
C130   C     0.32435   0.71613   0.23237   0.01267  Uiso   1.00
C131   C     0.39098   0.65440   0.23904   0.01267  Uiso   1.00
C132   C     0.44207   0.60733   0.18973   0.01267  Uiso   1.00
C133   C     0.43206   0.61899   0.12889   0.01267  Uiso   1.00
C134   C     0.51162   0.54276   0.19800   0.01267  Uiso   1.00
C135   C     0.52973   0.48507   0.16907   0.01267  Uiso   1.00
C136   C     0.58791   0.42449   0.18229   0.01267  Uiso   1.00
C137   C     0.63408   0.42071   0.21853   0.01267  Uiso   1.00
C138   C     0.61798   0.47900   0.24584   0.01267  Uiso   1.00
C139   C     0.55748   0.53892   0.23532   0.01267  Uiso   1.00
C140   C     0.70202   0.35411   0.22805   0.01267  Uiso   1.00
C141   C     0.92205   0.26359   0.13351   0.01267  Uiso   1.00
C142   C     0.98520   0.27881   0.06739   0.01267  Uiso   1.00
C143   C     0.03954   0.30849   0.06623   0.01267  Uiso   1.00
C144   C     0.09627   0.32336   0.00590   0.01267  Uiso   1.00
C145   C     0.10102   0.30719   0.94577   0.01267  Uiso   1.00
C146   C     0.04550   0.27655   0.94705   0.01267  Uiso   1.00
C147   C     0.98931   0.26254   0.00824   0.01267  Uiso   1.00
C148   C     0.16332   0.32211   0.87905   0.01267  Uiso   1.00
C149   C     0.21060   0.27459   0.82841   0.01267  Uiso   1.00
C150   C     0.27285   0.28387   0.76763   0.01267  Uiso   1.00
C151   C     0.28442   0.34560   0.76096   0.01267  Uiso   1.00
C152   C     0.23913   0.39267   0.81027   0.01267  Uiso   1.00
C153   C     0.17994   0.38101   0.87111   0.01267  Uiso   1.00
C154   C     0.25238   0.45724   0.80200   0.01267  Uiso   1.00
C155   C     0.18387   0.51493   0.83093   0.01267  Uiso   1.00
C156   C     0.19469   0.57551   0.81771   0.01267  Uiso   1.00
C157   C     0.27332   0.57929   0.78147   0.01267  Uiso   1.00
C158   C     0.34282   0.52100   0.75416   0.01267  Uiso   1.00
C159   C     0.33172   0.46108   0.76468   0.01267  Uiso   1.00
C160   C     0.28418   0.64589   0.77195   0.01267  Uiso   1.00
O17    O     0.87991   0.13189   0.23171   0.01267  Uiso   1.00
O18    O     0.91951   0.18597   0.28479   0.01267  Uiso   1.00
O19    O     0.21683   0.79550   0.69686   0.01267  Uiso   1.00
O20    O     0.36172   0.74040   0.64378   0.01267  Uiso   1.00
O21    O     0.24351   0.86811   0.76829   0.01267  Uiso   1.00
O22    O     0.39027   0.81403   0.71521   0.01267  Uiso   1.00
O23    O     0.70919   0.20450   0.30314   0.01267  Uiso   1.00
O24    O     0.74590   0.25960   0.35622   0.01267  Uiso   1.00
O25    O     0.24351   0.76829   0.86811   0.01267  Uiso   1.00
O26    O     0.39027   0.71521   0.81403   0.01267  Uiso   1.00
O27    O     0.70919   0.30314   0.20450   0.01267  Uiso   1.00
O28    O     0.74590   0.35622   0.25960   0.01267  Uiso   1.00
O29    O     0.87991   0.23171   0.13189   0.01267  Uiso   1.00
O30    O     0.91951   0.28479   0.18597   0.01267  Uiso   1.00
O31    O     0.21683   0.69686   0.79550   0.01267  Uiso   1.00
O32    O     0.36172   0.64378   0.74040   0.01267  Uiso   1.00
