data_image0
_cell_length_a       25.791
_cell_length_b       25.791
_cell_length_c       11.1284
_cell_angle_alpha    90
_cell_angle_beta     90
_cell_angle_gamma    120

_symmetry_space_group_name_H-M    "P 1"
_symmetry_int_tables_number       1

loop_
  _symmetry_equiv_pos_as_xyz
  'x, y, z'

loop_
  _atom_site_label
  _atom_site_occupancy
  _atom_site_fract_x
  _atom_site_fract_y
  _atom_site_fract_z
  _atom_site_thermal_displace_type
  _atom_site_B_iso_or_equiv
  _atom_site_type_symbol
  S1       1.0000 0.67350  0.19479  0.87524  Biso   1.000  S
  N1       1.0000 0.56540  0.09032  0.92212  Biso   1.000  N
  C1       1.0000 0.61063  0.13373  0.90310  Biso   1.000  C
  N2       1.0000 0.26868  0.87751  0.42433  Biso   1.000  N
  N3       1.0000 0.30851  0.86040  0.38979  Biso   1.000  N
  H1       1.0000 0.30317  0.83753  0.32813  Biso   1.000  H
  N4       1.0000 0.45172  0.98120  0.80919  Biso   1.000  N
  N5       1.0000 0.45123  0.02882  0.75805  Biso   1.000  N
  H2       1.0000 0.47107  0.06513  0.78613  Biso   1.000  H
  C2       1.0000 0.29347  0.91128  0.52233  Biso   1.000  C
  C3       1.0000 0.34940  0.91618  0.54873  Biso   1.000  C
  C4       1.0000 0.35738  0.88274  0.46133  Biso   1.000  C
  C5       1.0000 0.40816  0.87250  0.43693  Biso   1.000  C
  H3       1.0000 0.40117  0.83613  0.47683  Biso   1.000  H
  H4       1.0000 0.44497  0.90613  0.46693  Biso   1.000  H
  H5       1.0000 0.41157  0.86853  0.35103  Biso   1.000  H
  C6       1.0000 0.26165  0.93695  0.58993  Biso   1.000  C
  H6       1.0000 0.25697  0.96483  0.53883  Biso   1.000  H
  H7       1.0000 0.28477  0.95783  0.66053  Biso   1.000  H
  H8       1.0000 0.22247  0.90493  0.61443  Biso   1.000  H
  C7       1.0000 0.41673  0.01369  0.65933  Biso   1.000  C
  C8       1.0000 0.39208  0.95262  0.64403  Biso   1.000  C
  C9       1.0000 0.41583  0.93433  0.73963  Biso   1.000  C
  C10      1.0000 0.40473  0.87303  0.76543  Biso   1.000  C
  H9       1.0000 0.43907  0.86993  0.74003  Biso   1.000  H
  H10      1.0000 0.36937  0.84393  0.72193  Biso   1.000  H
  H11      1.0000 0.39847  0.86523  0.85093  Biso   1.000  H
  C11      1.0000 0.41101  0.05907  0.58703  Biso   1.000  C
  H12      1.0000 0.38717  0.07223  0.63093  Biso   1.000  H
  H13      1.0000 0.39157  0.04143  0.51123  Biso   1.000  H
  H14      1.0000 0.45047  0.09303  0.57183  Biso   1.000  H
  S2       1.0000 0.32650  0.80521  0.12476  Biso   1.000  S
  N6       1.0000 0.43460  0.90968  0.07788  Biso   1.000  N
  C12      1.0000 0.38937  0.86627  0.09690  Biso   1.000  C
  N7       1.0000 0.73132  0.12249  0.57567  Biso   1.000  N
  N8       1.0000 0.69149  0.13960  0.61021  Biso   1.000  N
  H15      1.0000 0.69683  0.16247  0.67187  Biso   1.000  H
  N9       1.0000 0.54828  0.01880  0.19081  Biso   1.000  N
  N10      1.0000 0.54877  0.97118  0.24195  Biso   1.000  N
  H16      1.0000 0.52893  0.93487  0.21387  Biso   1.000  H
  C13      1.0000 0.70653  0.08872  0.47767  Biso   1.000  C
  C14      1.0000 0.65060  0.08382  0.45127  Biso   1.000  C
  C15      1.0000 0.64262  0.11726  0.53867  Biso   1.000  C
  C16      1.0000 0.59184  0.12750  0.56307  Biso   1.000  C
  H17      1.0000 0.59883  0.16387  0.52317  Biso   1.000  H
  H18      1.0000 0.55503  0.09387  0.53307  Biso   1.000  H
  H19      1.0000 0.58843  0.13147  0.64897  Biso   1.000  H
  C17      1.0000 0.73835  0.06305  0.41007  Biso   1.000  C
  H20      1.0000 0.74303  0.03517  0.46117  Biso   1.000  H
  H21      1.0000 0.71523  0.04217  0.33947  Biso   1.000  H
  H22      1.0000 0.77753  0.09507  0.38557  Biso   1.000  H
  C18      1.0000 0.58327  0.98631  0.34067  Biso   1.000  C
  C19      1.0000 0.60792  0.04738  0.35597  Biso   1.000  C
  C20      1.0000 0.58417  0.06567  0.26037  Biso   1.000  C
  C21      1.0000 0.59527  0.12697  0.23457  Biso   1.000  C
  H23      1.0000 0.56093  0.13007  0.25997  Biso   1.000  H
  H24      1.0000 0.63063  0.15607  0.27807  Biso   1.000  H
  H25      1.0000 0.60153  0.13477  0.14907  Biso   1.000  H
  C22      1.0000 0.58899  0.94093  0.41297  Biso   1.000  C
  H26      1.0000 0.61283  0.92777  0.36907  Biso   1.000  H
  H27      1.0000 0.60843  0.95857  0.48877  Biso   1.000  H
  H28      1.0000 0.54953  0.90697  0.42817  Biso   1.000  H
  Cd1      1.0000 0.50000  0.00000  0.00000  Biso   1.000  Cd
  N11      1.0000 0.45582  0.05783  0.09100  Biso   1.000  N
  N12      1.0000 0.47293  0.11477  0.05646  Biso   1.000  N
  H29      1.0000 0.49580  0.13230  0.99480  Biso   1.000  H
  N13      1.0000 0.35213  0.13718  0.47586  Biso   1.000  N
  N14      1.0000 0.30451  0.08907  0.42472  Biso   1.000  N
  H30      1.0000 0.26820  0.07260  0.45280  Biso   1.000  H
  C23      1.0000 0.42205  0.04885  0.18900  Biso   1.000  C
  C24      1.0000 0.41715  0.09988  0.21540  Biso   1.000  C
  C25      1.0000 0.45059  0.14130  0.12800  Biso   1.000  C
  C26      1.0000 0.46083  0.20232  0.10360  Biso   1.000  C
  H31      1.0000 0.49720  0.23170  0.14350  Biso   1.000  H
  H32      1.0000 0.42720  0.20550  0.13360  Biso   1.000  H
  H33      1.0000 0.46480  0.20970  0.01770  Biso   1.000  H
  C27      1.0000 0.39638  0.99136  0.25660  Biso   1.000  C
  H34      1.0000 0.36850  0.95880  0.20550  Biso   1.000  H
  H35      1.0000 0.37550  0.99360  0.32720  Biso   1.000  H
  H36      1.0000 0.42840  0.98420  0.28110  Biso   1.000  H
  C28      1.0000 0.31964  0.06970  0.32600  Biso   1.000  C
  C29      1.0000 0.38071  0.10612  0.31070  Biso   1.000  C
  C30      1.0000 0.39900  0.14816  0.40630  Biso   1.000  C
  C31      1.0000 0.46030  0.19836  0.43210  Biso   1.000  C
  H37      1.0000 0.46340  0.23580  0.40670  Biso   1.000  H
  H38      1.0000 0.48940  0.19210  0.38860  Biso   1.000  H
  H39      1.0000 0.46810  0.19990  0.51760  Biso   1.000  H
  C32      1.0000 0.27426  0.01860  0.25370  Biso   1.000  C
  H40      1.0000 0.26110  0.98160  0.29760  Biso   1.000  H
  H41      1.0000 0.29190  0.01680  0.17790  Biso   1.000  H
  H42      1.0000 0.24030  0.02410  0.23850  Biso   1.000  H
  S3       1.0000 0.13854  0.14538  0.54191  Biso   1.000  S
  N15      1.0000 0.24301  0.14175  0.58879  Biso   1.000  N
  C33      1.0000 0.19960  0.14357  0.56977  Biso   1.000  C
  N16      1.0000 0.21085  0.27550  0.24233  Biso   1.000  N
  N17      1.0000 0.19374  0.21856  0.27687  Biso   1.000  N
  H43      1.0000 0.17087  0.20103  0.33853  Biso   1.000  H
  N18      1.0000 0.31454  0.19615  0.85747  Biso   1.000  N
  N19      1.0000 0.36216  0.24426  0.90861  Biso   1.000  N
  H44      1.0000 0.39847  0.26073  0.88053  Biso   1.000  H
  C34      1.0000 0.24462  0.28448  0.14433  Biso   1.000  C
  C35      1.0000 0.24952  0.23345  0.11793  Biso   1.000  C
  C36      1.0000 0.21608  0.19203  0.20533  Biso   1.000  C
  C37      1.0000 0.20584  0.13101  0.22973  Biso   1.000  C
  H45      1.0000 0.16947  0.10163  0.18983  Biso   1.000  H
  H46      1.0000 0.23947  0.12783  0.19973  Biso   1.000  H
  H47      1.0000 0.20187  0.12363  0.31563  Biso   1.000  H
  C38      1.0000 0.27029  0.34197  0.07673  Biso   1.000  C
  H48      1.0000 0.29817  0.37453  0.12783  Biso   1.000  H
  H49      1.0000 0.29117  0.33973  0.00613  Biso   1.000  H
  H50      1.0000 0.23827  0.34913  0.05223  Biso   1.000  H
  C39      1.0000 0.34703  0.26363  0.00733  Biso   1.000  C
  C40      1.0000 0.28596  0.22721  0.02263  Biso   1.000  C
  C41      1.0000 0.26767  0.18517  0.92703  Biso   1.000  C
  C42      1.0000 0.20637  0.13497  0.90123  Biso   1.000  C
  H51      1.0000 0.20327  0.09753  0.92663  Biso   1.000  H
  H52      1.0000 0.17727  0.14123  0.94473  Biso   1.000  H
  H53      1.0000 0.19857  0.13343  0.81573  Biso   1.000  H
  C43      1.0000 0.39241  0.31473  0.07963  Biso   1.000  C
  H54      1.0000 0.40557  0.35173  0.03573  Biso   1.000  H
  H55      1.0000 0.37477  0.31653  0.15543  Biso   1.000  H
  H56      1.0000 0.42637  0.30923  0.09483  Biso   1.000  H
  S4       1.0000 0.52812  0.18796  0.79143  Biso   1.000  S
  N20      1.0000 0.42365  0.19159  0.74455  Biso   1.000  N
  C44      1.0000 0.46706  0.18977  0.76357  Biso   1.000  C
  Cd2      1.0000 0.33333  0.16667  0.66667  Biso   1.000  Cd
  S5       1.0000 0.34017  0.52812  0.20857  Biso   1.000  S
  N21      1.0000 0.23207  0.42365  0.25545  Biso   1.000  N
  C45      1.0000 0.27730  0.46706  0.23643  Biso   1.000  C
  N22      1.0000 0.93534  0.21085  0.75767  Biso   1.000  N
  N23      1.0000 0.97517  0.19374  0.72313  Biso   1.000  N
  H57      1.0000 0.96983  0.17087  0.66147  Biso   1.000  H
  N24      1.0000 0.11838  0.31454  0.14253  Biso   1.000  N
  N25      1.0000 0.11789  0.36216  0.09139  Biso   1.000  N
  H58      1.0000 0.13773  0.39847  0.11947  Biso   1.000  H
  C46      1.0000 0.96013  0.24462  0.85567  Biso   1.000  C
  C47      1.0000 0.01606  0.24952  0.88207  Biso   1.000  C
  C48      1.0000 0.02404  0.21608  0.79467  Biso   1.000  C
  C49      1.0000 0.07482  0.20584  0.77027  Biso   1.000  C
  H59      1.0000 0.06783  0.16947  0.81017  Biso   1.000  H
  H60      1.0000 0.11163  0.23947  0.80027  Biso   1.000  H
  H61      1.0000 0.07823  0.20187  0.68437  Biso   1.000  H
  C50      1.0000 0.92831  0.27029  0.92327  Biso   1.000  C
  H62      1.0000 0.92363  0.29817  0.87217  Biso   1.000  H
  H63      1.0000 0.95143  0.29117  0.99387  Biso   1.000  H
  H64      1.0000 0.88913  0.23827  0.94777  Biso   1.000  H
  C51      1.0000 0.08339  0.34703  0.99267  Biso   1.000  C
  C52      1.0000 0.05874  0.28596  0.97737  Biso   1.000  C
  C53      1.0000 0.08249  0.26767  0.07297  Biso   1.000  C
  C54      1.0000 0.07139  0.20637  0.09877  Biso   1.000  C
  H65      1.0000 0.10573  0.20327  0.07337  Biso   1.000  H
  H66      1.0000 0.03603  0.17727  0.05527  Biso   1.000  H
  H67      1.0000 0.06513  0.19857  0.18427  Biso   1.000  H
  C55      1.0000 0.07767  0.39241  0.92037  Biso   1.000  C
  H68      1.0000 0.05383  0.40557  0.96427  Biso   1.000  H
  H69      1.0000 0.05823  0.37477  0.84457  Biso   1.000  H
  H70      1.0000 0.11713  0.42637  0.90517  Biso   1.000  H
  S6       1.0000 0.99317  0.13854  0.45809  Biso   1.000  S
  N26      1.0000 0.10127  0.24301  0.41121  Biso   1.000  N
  C56      1.0000 0.05604  0.19960  0.43023  Biso   1.000  C
  N27      1.0000 0.39799  0.45582  0.90900  Biso   1.000  N
  N28      1.0000 0.35816  0.47293  0.94354  Biso   1.000  N
  H71      1.0000 0.36350  0.49580  0.00520  Biso   1.000  H
  N29      1.0000 0.21495  0.35213  0.52414  Biso   1.000  N
  N30      1.0000 0.21544  0.30451  0.57528  Biso   1.000  N
  H72      1.0000 0.19560  0.26820  0.54720  Biso   1.000  H
  C57      1.0000 0.37320  0.42205  0.81100  Biso   1.000  C
  C58      1.0000 0.31727  0.41715  0.78460  Biso   1.000  C
  C59      1.0000 0.30929  0.45059  0.87200  Biso   1.000  C
  C60      1.0000 0.25851  0.46083  0.89640  Biso   1.000  C
  H73      1.0000 0.26550  0.49720  0.85650  Biso   1.000  H
  H74      1.0000 0.22170  0.42720  0.86640  Biso   1.000  H
  H75      1.0000 0.25510  0.46480  0.98230  Biso   1.000  H
  C61      1.0000 0.40502  0.39638  0.74340  Biso   1.000  C
  H76      1.0000 0.40970  0.36850  0.79450  Biso   1.000  H
  H77      1.0000 0.38190  0.37550  0.67280  Biso   1.000  H
  H78      1.0000 0.44420  0.42840  0.71890  Biso   1.000  H
  C62      1.0000 0.24994  0.31964  0.67400  Biso   1.000  C
  C63      1.0000 0.27459  0.38071  0.68930  Biso   1.000  C
  C64      1.0000 0.25084  0.39900  0.59370  Biso   1.000  C
  C65      1.0000 0.26194  0.46030  0.56790  Biso   1.000  C
  H79      1.0000 0.22760  0.46340  0.59330  Biso   1.000  H
  H80      1.0000 0.29730  0.48940  0.61140  Biso   1.000  H
  H81      1.0000 0.26820  0.46810  0.48240  Biso   1.000  H
  C66      1.0000 0.25566  0.27426  0.74630  Biso   1.000  C
  H82      1.0000 0.27950  0.26110  0.70240  Biso   1.000  H
  H83      1.0000 0.27510  0.29190  0.82210  Biso   1.000  H
  H84      1.0000 0.21620  0.24030  0.76150  Biso   1.000  H
  Cd3      1.0000 0.16667  0.33333  0.33333  Biso   1.000  Cd
  N31      1.0000 0.12249  0.39116  0.42433  Biso   1.000  N
  N32      1.0000 0.13960  0.44810  0.38979  Biso   1.000  N
  H85      1.0000 0.16247  0.46563  0.32813  Biso   1.000  H
  N33      1.0000 0.01880  0.47051  0.80919  Biso   1.000  N
  N34      1.0000 0.97118  0.42240  0.75805  Biso   1.000  N
  H86      1.0000 0.93487  0.40593  0.78613  Biso   1.000  H
  C67      1.0000 0.08872  0.38218  0.52233  Biso   1.000  C
  C68      1.0000 0.08382  0.43321  0.54873  Biso   1.000  C
  C69      1.0000 0.11726  0.47463  0.46133  Biso   1.000  C
  C70      1.0000 0.12750  0.53565  0.43693  Biso   1.000  C
  H87      1.0000 0.16387  0.56503  0.47683  Biso   1.000  H
  H88      1.0000 0.09387  0.53883  0.46693  Biso   1.000  H
  H89      1.0000 0.13147  0.54303  0.35103  Biso   1.000  H
  C71      1.0000 0.06305  0.32469  0.58993  Biso   1.000  C
  H90      1.0000 0.03517  0.29213  0.53883  Biso   1.000  H
  H91      1.0000 0.04217  0.32693  0.66053  Biso   1.000  H
  H92      1.0000 0.09507  0.31753  0.61443  Biso   1.000  H
  C72      1.0000 0.98631  0.40303  0.65933  Biso   1.000  C
  C73      1.0000 0.04738  0.43945  0.64403  Biso   1.000  C
  C74      1.0000 0.06567  0.48149  0.73963  Biso   1.000  C
  C75      1.0000 0.12697  0.53169  0.76543  Biso   1.000  C
  H93      1.0000 0.13007  0.56913  0.74003  Biso   1.000  H
  H94      1.0000 0.15607  0.52543  0.72193  Biso   1.000  H
  H95      1.0000 0.13477  0.53323  0.85093  Biso   1.000  H
  C76      1.0000 0.94093  0.35193  0.58703  Biso   1.000  C
  H96      1.0000 0.92777  0.31493  0.63093  Biso   1.000  H
  H97      1.0000 0.95857  0.35013  0.51123  Biso   1.000  H
  H98      1.0000 0.90697  0.35743  0.57183  Biso   1.000  H
  S7       1.0000 0.80521  0.47871  0.87524  Biso   1.000  S
  N35      1.0000 0.90968  0.47508  0.92212  Biso   1.000  N
  C77      1.0000 0.86627  0.47690  0.90310  Biso   1.000  C
  N36      1.0000 0.87751  0.60884  0.57567  Biso   1.000  N
  N37      1.0000 0.86040  0.55190  0.61021  Biso   1.000  N
  H99      1.0000 0.83753  0.53437  0.67187  Biso   1.000  H
  N38      1.0000 0.98120  0.52949  0.19081  Biso   1.000  N
  N39      1.0000 0.02882  0.57760  0.24195  Biso   1.000  N
  H100     1.0000 0.06513  0.59407  0.21387  Biso   1.000  H
  C78      1.0000 0.91128  0.61782  0.47767  Biso   1.000  C
  C79      1.0000 0.91618  0.56679  0.45127  Biso   1.000  C
  C80      1.0000 0.88274  0.52537  0.53867  Biso   1.000  C
  C81      1.0000 0.87250  0.46435  0.56307  Biso   1.000  C
  H101     1.0000 0.83613  0.43497  0.52317  Biso   1.000  H
  H102     1.0000 0.90613  0.46117  0.53307  Biso   1.000  H
  H103     1.0000 0.86853  0.45697  0.64897  Biso   1.000  H
  C82      1.0000 0.93695  0.67531  0.41007  Biso   1.000  C
  H104     1.0000 0.96483  0.70787  0.46117  Biso   1.000  H
  H105     1.0000 0.95783  0.67307  0.33947  Biso   1.000  H
  H106     1.0000 0.90493  0.68247  0.38557  Biso   1.000  H
  C83      1.0000 0.01369  0.59697  0.34067  Biso   1.000  C
  C84      1.0000 0.95262  0.56055  0.35597  Biso   1.000  C
  C85      1.0000 0.93433  0.51851  0.26037  Biso   1.000  C
  C86      1.0000 0.87303  0.46831  0.23457  Biso   1.000  C
  H107     1.0000 0.86993  0.43087  0.25997  Biso   1.000  H
  H108     1.0000 0.84393  0.47457  0.27807  Biso   1.000  H
  H109     1.0000 0.86523  0.46677  0.14907  Biso   1.000  H
  C87      1.0000 0.05907  0.64807  0.41297  Biso   1.000  C
  H110     1.0000 0.07223  0.68507  0.36907  Biso   1.000  H
  H111     1.0000 0.04143  0.64987  0.48877  Biso   1.000  H
  H112     1.0000 0.09303  0.64257  0.42817  Biso   1.000  H
  S8       1.0000 0.19479  0.52129  0.12476  Biso   1.000  S
  N40      1.0000 0.09032  0.52492  0.07788  Biso   1.000  N
  C88      1.0000 0.13373  0.52310  0.09690  Biso   1.000  C
  Cd4      1.0000 0.00000  0.50000  0.00000  Biso   1.000  Cd
  S9       1.0000 0.00683  0.86146  0.54191  Biso   1.000  S
  N41      1.0000 0.89873  0.75699  0.58879  Biso   1.000  N
  C89      1.0000 0.94396  0.80040  0.56977  Biso   1.000  C
  N42      1.0000 0.60201  0.54418  0.09100  Biso   1.000  N
  N43      1.0000 0.64184  0.52707  0.05646  Biso   1.000  N
  H113     1.0000 0.63650  0.50420  0.99480  Biso   1.000  H
  N44      1.0000 0.78505  0.64787  0.47586  Biso   1.000  N
  N45      1.0000 0.78456  0.69549  0.42472  Biso   1.000  N
  H114     1.0000 0.80440  0.73180  0.45280  Biso   1.000  H
  C90      1.0000 0.62680  0.57795  0.18900  Biso   1.000  C
  C91      1.0000 0.68273  0.58285  0.21540  Biso   1.000  C
  C92      1.0000 0.69071  0.54941  0.12800  Biso   1.000  C
  C93      1.0000 0.74149  0.53917  0.10360  Biso   1.000  C
  H115     1.0000 0.73450  0.50280  0.14350  Biso   1.000  H
  H116     1.0000 0.77830  0.57280  0.13360  Biso   1.000  H
  H117     1.0000 0.74490  0.53520  0.01770  Biso   1.000  H
  C94      1.0000 0.59498  0.60362  0.25660  Biso   1.000  C
  H118     1.0000 0.59030  0.63150  0.20550  Biso   1.000  H
  H119     1.0000 0.61810  0.62450  0.32720  Biso   1.000  H
  H120     1.0000 0.55580  0.57160  0.28110  Biso   1.000  H
  C95      1.0000 0.75006  0.68036  0.32600  Biso   1.000  C
  C96      1.0000 0.72541  0.61929  0.31070  Biso   1.000  C
  C97      1.0000 0.74916  0.60100  0.40630  Biso   1.000  C
  C98      1.0000 0.73806  0.53970  0.43210  Biso   1.000  C
  H121     1.0000 0.77240  0.53660  0.40670  Biso   1.000  H
  H122     1.0000 0.70270  0.51060  0.38860  Biso   1.000  H
  H123     1.0000 0.73180  0.53190  0.51760  Biso   1.000  H
  C99      1.0000 0.74434  0.72574  0.25370  Biso   1.000  C
  H124     1.0000 0.72050  0.73890  0.29760  Biso   1.000  H
  H125     1.0000 0.72490  0.70810  0.17790  Biso   1.000  H
  H126     1.0000 0.78380  0.75970  0.23850  Biso   1.000  H
  S10      1.0000 0.65983  0.47188  0.79143  Biso   1.000  S
  N46      1.0000 0.76793  0.57635  0.74455  Biso   1.000  N
  C100     1.0000 0.72270  0.53294  0.76357  Biso   1.000  C
  N47      1.0000 0.06466  0.78915  0.24233  Biso   1.000  N
  N48      1.0000 0.02483  0.80626  0.27687  Biso   1.000  N
  H127     1.0000 0.03017  0.82913  0.33853  Biso   1.000  H
  N49      1.0000 0.88162  0.68546  0.85747  Biso   1.000  N
  N50      1.0000 0.88211  0.63784  0.90861  Biso   1.000  N
  H128     1.0000 0.86227  0.60153  0.88053  Biso   1.000  H
  C101     1.0000 0.03987  0.75538  0.14433  Biso   1.000  C
  C102     1.0000 0.98394  0.75048  0.11793  Biso   1.000  C
  C103     1.0000 0.97596  0.78392  0.20533  Biso   1.000  C
  C104     1.0000 0.92518  0.79416  0.22973  Biso   1.000  C
  H129     1.0000 0.93217  0.83053  0.18983  Biso   1.000  H
  H130     1.0000 0.88837  0.76053  0.19973  Biso   1.000  H
  H131     1.0000 0.92177  0.79813  0.31563  Biso   1.000  H
  C105     1.0000 0.07169  0.72971  0.07673  Biso   1.000  C
  H132     1.0000 0.07637  0.70183  0.12783  Biso   1.000  H
  H133     1.0000 0.04857  0.70883  0.00613  Biso   1.000  H
  H134     1.0000 0.11087  0.76173  0.05223  Biso   1.000  H
  C106     1.0000 0.91661  0.65297  0.00733  Biso   1.000  C
  C107     1.0000 0.94126  0.71404  0.02263  Biso   1.000  C
  C108     1.0000 0.91751  0.73233  0.92703  Biso   1.000  C
  C109     1.0000 0.92861  0.79363  0.90123  Biso   1.000  C
  H135     1.0000 0.89427  0.79673  0.92663  Biso   1.000  H
  H136     1.0000 0.96397  0.82273  0.94473  Biso   1.000  H
  H137     1.0000 0.93487  0.80143  0.81573  Biso   1.000  H
  C110     1.0000 0.92233  0.60759  0.07963  Biso   1.000  C
  H138     1.0000 0.94617  0.59443  0.03573  Biso   1.000  H
  H139     1.0000 0.94177  0.62523  0.15543  Biso   1.000  H
  H140     1.0000 0.88287  0.57363  0.09483  Biso   1.000  H
  Cd5      1.0000 0.83333  0.66667  0.66667  Biso   1.000  Cd
  N51      1.0000 0.78915  0.72450  0.75767  Biso   1.000  N
  N52      1.0000 0.80626  0.78144  0.72313  Biso   1.000  N
  H141     1.0000 0.82913  0.79897  0.66147  Biso   1.000  H
  N53      1.0000 0.68546  0.80385  0.14253  Biso   1.000  N
  N54      1.0000 0.63784  0.75574  0.09139  Biso   1.000  N
  H142     1.0000 0.60153  0.73927  0.11947  Biso   1.000  H
  C111     1.0000 0.75538  0.71552  0.85567  Biso   1.000  C
  C112     1.0000 0.75048  0.76655  0.88207  Biso   1.000  C
  C113     1.0000 0.78392  0.80797  0.79467  Biso   1.000  C
  C114     1.0000 0.79416  0.86899  0.77027  Biso   1.000  C
  H143     1.0000 0.83053  0.89837  0.81017  Biso   1.000  H
  H144     1.0000 0.76053  0.87217  0.80027  Biso   1.000  H
  H145     1.0000 0.79813  0.87637  0.68437  Biso   1.000  H
  C115     1.0000 0.72971  0.65803  0.92327  Biso   1.000  C
  H146     1.0000 0.70183  0.62547  0.87217  Biso   1.000  H
  H147     1.0000 0.70883  0.66027  0.99387  Biso   1.000  H
  H148     1.0000 0.76173  0.65087  0.94777  Biso   1.000  H
  C116     1.0000 0.65297  0.73637  0.99267  Biso   1.000  C
  C117     1.0000 0.71404  0.77279  0.97737  Biso   1.000  C
  C118     1.0000 0.73233  0.81483  0.07297  Biso   1.000  C
  C119     1.0000 0.79363  0.86503  0.09877  Biso   1.000  C
  H149     1.0000 0.79673  0.90247  0.07337  Biso   1.000  H
  H150     1.0000 0.82273  0.85877  0.05527  Biso   1.000  H
  H151     1.0000 0.80143  0.86657  0.18427  Biso   1.000  H
  C120     1.0000 0.60759  0.68527  0.92037  Biso   1.000  C
  H152     1.0000 0.59443  0.64827  0.96427  Biso   1.000  H
  H153     1.0000 0.62523  0.68347  0.84457  Biso   1.000  H
  H154     1.0000 0.57363  0.69077  0.90517  Biso   1.000  H
  S11      1.0000 0.47188  0.81204  0.20857  Biso   1.000  S
  N55      1.0000 0.57635  0.80841  0.25545  Biso   1.000  N
  C121     1.0000 0.53294  0.81023  0.23643  Biso   1.000  C
  N56      1.0000 0.54418  0.94217  0.90900  Biso   1.000  N
  N57      1.0000 0.52707  0.88523  0.94354  Biso   1.000  N
  H155     1.0000 0.50420  0.86770  0.00520  Biso   1.000  H
  N58      1.0000 0.64787  0.86282  0.52414  Biso   1.000  N
  N59      1.0000 0.69549  0.91093  0.57528  Biso   1.000  N
  H156     1.0000 0.73180  0.92740  0.54720  Biso   1.000  H
  C122     1.0000 0.57795  0.95115  0.81100  Biso   1.000  C
  C123     1.0000 0.58285  0.90012  0.78460  Biso   1.000  C
  C124     1.0000 0.54941  0.85870  0.87200  Biso   1.000  C
  C125     1.0000 0.53917  0.79768  0.89640  Biso   1.000  C
  H157     1.0000 0.50280  0.76830  0.85650  Biso   1.000  H
  H158     1.0000 0.57280  0.79450  0.86640  Biso   1.000  H
  H159     1.0000 0.53520  0.79030  0.98230  Biso   1.000  H
  C126     1.0000 0.60362  0.00864  0.74340  Biso   1.000  C
  H160     1.0000 0.63150  0.04120  0.79450  Biso   1.000  H
  H161     1.0000 0.62450  0.00640  0.67280  Biso   1.000  H
  H162     1.0000 0.57160  0.01580  0.71890  Biso   1.000  H
  C127     1.0000 0.68036  0.93030  0.67400  Biso   1.000  C
  C128     1.0000 0.61929  0.89388  0.68930  Biso   1.000  C
  C129     1.0000 0.60100  0.85184  0.59370  Biso   1.000  C
  C130     1.0000 0.53970  0.80164  0.56790  Biso   1.000  C
  H163     1.0000 0.53660  0.76420  0.59330  Biso   1.000  H
  H164     1.0000 0.51060  0.80790  0.61140  Biso   1.000  H
  H165     1.0000 0.53190  0.80010  0.48240  Biso   1.000  H
  C131     1.0000 0.72574  0.98140  0.74630  Biso   1.000  C
  H166     1.0000 0.73890  0.01840  0.70240  Biso   1.000  H
  H167     1.0000 0.70810  0.98320  0.82210  Biso   1.000  H
  H168     1.0000 0.75970  0.97590  0.76150  Biso   1.000  H
  S12      1.0000 0.86146  0.85462  0.45809  Biso   1.000  S
  N60      1.0000 0.75699  0.85825  0.41121  Biso   1.000  N
  C132     1.0000 0.80040  0.85643  0.43023  Biso   1.000  C
  Cd6      1.0000 0.66667  0.83333  0.33333  Biso   1.000  Cd
  N61      1.0000 0.94217  0.39799  0.09100  Biso   1.000  N
  N62      1.0000 0.88523  0.35816  0.05646  Biso   1.000  N
  H169     1.0000 0.86770  0.36350  0.99480  Biso   1.000  H
  N63      1.0000 0.86282  0.21495  0.47586  Biso   1.000  N
  N64      1.0000 0.91093  0.21544  0.42472  Biso   1.000  N
  H170     1.0000 0.92740  0.19560  0.45280  Biso   1.000  H
  C133     1.0000 0.95115  0.37320  0.18900  Biso   1.000  C
  C134     1.0000 0.90012  0.31727  0.21540  Biso   1.000  C
  C135     1.0000 0.85870  0.30929  0.12800  Biso   1.000  C
  C136     1.0000 0.79768  0.25851  0.10360  Biso   1.000  C
  H171     1.0000 0.76830  0.26550  0.14350  Biso   1.000  H
  H172     1.0000 0.79450  0.22170  0.13360  Biso   1.000  H
  H173     1.0000 0.79030  0.25510  0.01770  Biso   1.000  H
  C137     1.0000 0.00864  0.40502  0.25660  Biso   1.000  C
  H174     1.0000 0.04120  0.40970  0.20550  Biso   1.000  H
  H175     1.0000 0.00640  0.38190  0.32720  Biso   1.000  H
  H176     1.0000 0.01580  0.44420  0.28110  Biso   1.000  H
  C138     1.0000 0.93030  0.24994  0.32600  Biso   1.000  C
  C139     1.0000 0.89388  0.27459  0.31070  Biso   1.000  C
  C140     1.0000 0.85184  0.25084  0.40630  Biso   1.000  C
  C141     1.0000 0.80164  0.26194  0.43210  Biso   1.000  C
  H177     1.0000 0.76420  0.22760  0.40670  Biso   1.000  H
  H178     1.0000 0.80790  0.29730  0.38860  Biso   1.000  H
  H179     1.0000 0.80010  0.26820  0.51760  Biso   1.000  H
  C142     1.0000 0.98140  0.25566  0.25370  Biso   1.000  C
  H180     1.0000 0.01840  0.27950  0.29760  Biso   1.000  H
  H181     1.0000 0.98320  0.27510  0.17790  Biso   1.000  H
  H182     1.0000 0.97590  0.21620  0.23850  Biso   1.000  H
  S13      1.0000 0.85462  0.99317  0.54191  Biso   1.000  S
  N65      1.0000 0.85825  0.10127  0.58879  Biso   1.000  N
  C143     1.0000 0.85643  0.05604  0.56977  Biso   1.000  C
  N66      1.0000 0.72450  0.93534  0.24233  Biso   1.000  N
  N67      1.0000 0.78144  0.97517  0.27687  Biso   1.000  N
  H183     1.0000 0.79897  0.96983  0.33853  Biso   1.000  H
  N68      1.0000 0.80385  0.11838  0.85747  Biso   1.000  N
  N69      1.0000 0.75574  0.11789  0.90861  Biso   1.000  N
  H184     1.0000 0.73927  0.13773  0.88053  Biso   1.000  H
  C144     1.0000 0.71552  0.96013  0.14433  Biso   1.000  C
  C145     1.0000 0.76655  0.01606  0.11793  Biso   1.000  C
  C146     1.0000 0.80797  0.02404  0.20533  Biso   1.000  C
  C147     1.0000 0.86899  0.07482  0.22973  Biso   1.000  C
  H185     1.0000 0.89837  0.06783  0.18983  Biso   1.000  H
  H186     1.0000 0.87217  0.11163  0.19973  Biso   1.000  H
  H187     1.0000 0.87637  0.07823  0.31563  Biso   1.000  H
  C148     1.0000 0.65803  0.92831  0.07673  Biso   1.000  C
  H188     1.0000 0.62547  0.92363  0.12783  Biso   1.000  H
  H189     1.0000 0.66027  0.95143  0.00613  Biso   1.000  H
  H190     1.0000 0.65087  0.88913  0.05223  Biso   1.000  H
  C149     1.0000 0.73637  0.08339  0.00733  Biso   1.000  C
  C150     1.0000 0.77279  0.05874  0.02263  Biso   1.000  C
  C151     1.0000 0.81483  0.08249  0.92703  Biso   1.000  C
  C152     1.0000 0.86503  0.07139  0.90123  Biso   1.000  C
  H191     1.0000 0.90247  0.10573  0.92663  Biso   1.000  H
  H192     1.0000 0.85877  0.03603  0.94473  Biso   1.000  H
  H193     1.0000 0.86657  0.06513  0.81573  Biso   1.000  H
  C153     1.0000 0.68527  0.07767  0.07963  Biso   1.000  C
  H194     1.0000 0.64827  0.05383  0.03573  Biso   1.000  H
  H195     1.0000 0.68347  0.05823  0.15543  Biso   1.000  H
  H196     1.0000 0.69077  0.11713  0.09483  Biso   1.000  H
  S14      1.0000 0.81204  0.34017  0.79143  Biso   1.000  S
  N70      1.0000 0.80841  0.23207  0.74455  Biso   1.000  N
  C154     1.0000 0.81023  0.27730  0.76357  Biso   1.000  C
  Cd7      1.0000 0.83333  0.16667  0.66667  Biso   1.000  Cd
  N71      1.0000 0.60884  0.73132  0.42433  Biso   1.000  N
  N72      1.0000 0.55190  0.69149  0.38979  Biso   1.000  N
  H197     1.0000 0.53437  0.69683  0.32813  Biso   1.000  H
  N73      1.0000 0.52949  0.54828  0.80919  Biso   1.000  N
  N74      1.0000 0.57760  0.54877  0.75805  Biso   1.000  N
  H198     1.0000 0.59407  0.52893  0.78613  Biso   1.000  H
  C155     1.0000 0.61782  0.70653  0.52233  Biso   1.000  C
  C156     1.0000 0.56679  0.65060  0.54873  Biso   1.000  C
  C157     1.0000 0.52537  0.64262  0.46133  Biso   1.000  C
  C158     1.0000 0.46435  0.59184  0.43693  Biso   1.000  C
  H199     1.0000 0.43497  0.59883  0.47683  Biso   1.000  H
  H200     1.0000 0.46117  0.55503  0.46693  Biso   1.000  H
  H201     1.0000 0.45697  0.58843  0.35103  Biso   1.000  H
  C159     1.0000 0.67531  0.73835  0.58993  Biso   1.000  C
  H202     1.0000 0.70787  0.74303  0.53883  Biso   1.000  H
  H203     1.0000 0.67307  0.71523  0.66053  Biso   1.000  H
  H204     1.0000 0.68247  0.77753  0.61443  Biso   1.000  H
  C160     1.0000 0.59697  0.58327  0.65933  Biso   1.000  C
  C161     1.0000 0.56055  0.60792  0.64403  Biso   1.000  C
  C162     1.0000 0.51851  0.58417  0.73963  Biso   1.000  C
  C163     1.0000 0.46831  0.59527  0.76543  Biso   1.000  C
  H205     1.0000 0.43087  0.56093  0.74003  Biso   1.000  H
  H206     1.0000 0.47457  0.63063  0.72193  Biso   1.000  H
  H207     1.0000 0.46677  0.60153  0.85093  Biso   1.000  H
  C164     1.0000 0.64807  0.58899  0.58703  Biso   1.000  C
  H208     1.0000 0.68507  0.61283  0.63093  Biso   1.000  H
  H209     1.0000 0.64987  0.60843  0.51123  Biso   1.000  H
  H210     1.0000 0.64257  0.54953  0.57183  Biso   1.000  H
  S15      1.0000 0.52129  0.32650  0.87524  Biso   1.000  S
  N75      1.0000 0.52492  0.43460  0.92212  Biso   1.000  N
  C165     1.0000 0.52310  0.38937  0.90310  Biso   1.000  C
  N76      1.0000 0.39116  0.26868  0.57567  Biso   1.000  N
  N77      1.0000 0.44810  0.30851  0.61021  Biso   1.000  N
  H211     1.0000 0.46563  0.30317  0.67187  Biso   1.000  H
  N78      1.0000 0.47051  0.45172  0.19081  Biso   1.000  N
  N79      1.0000 0.42240  0.45123  0.24195  Biso   1.000  N
  H212     1.0000 0.40593  0.47107  0.21387  Biso   1.000  H
  C166     1.0000 0.38218  0.29347  0.47767  Biso   1.000  C
  C167     1.0000 0.43321  0.34940  0.45127  Biso   1.000  C
  C168     1.0000 0.47463  0.35738  0.53867  Biso   1.000  C
  C169     1.0000 0.53565  0.40816  0.56307  Biso   1.000  C
  H213     1.0000 0.56503  0.40117  0.52317  Biso   1.000  H
  H214     1.0000 0.53883  0.44497  0.53307  Biso   1.000  H
  H215     1.0000 0.54303  0.41157  0.64897  Biso   1.000  H
  C170     1.0000 0.32469  0.26165  0.41007  Biso   1.000  C
  H216     1.0000 0.29213  0.25697  0.46117  Biso   1.000  H
  H217     1.0000 0.32693  0.28477  0.33947  Biso   1.000  H
  H218     1.0000 0.31753  0.22247  0.38557  Biso   1.000  H
  C171     1.0000 0.40303  0.41673  0.34067  Biso   1.000  C
  C172     1.0000 0.43945  0.39208  0.35597  Biso   1.000  C
  C173     1.0000 0.48149  0.41583  0.26037  Biso   1.000  C
  C174     1.0000 0.53169  0.40473  0.23457  Biso   1.000  C
  H219     1.0000 0.56913  0.43907  0.25997  Biso   1.000  H
  H220     1.0000 0.52543  0.36937  0.27807  Biso   1.000  H
  H221     1.0000 0.53323  0.39847  0.14907  Biso   1.000  H
  C175     1.0000 0.35193  0.41101  0.41297  Biso   1.000  C
  H222     1.0000 0.31493  0.38717  0.36907  Biso   1.000  H
  H223     1.0000 0.35013  0.39157  0.48877  Biso   1.000  H
  H224     1.0000 0.35743  0.45047  0.42817  Biso   1.000  H
  S16      1.0000 0.47871  0.67350  0.12476  Biso   1.000  S
  N80      1.0000 0.47508  0.56540  0.07788  Biso   1.000  N
  C176     1.0000 0.47690  0.61063  0.09690  Biso   1.000  C
  Cd8      1.0000 0.50000  0.50000  0.00000  Biso   1.000  Cd
  N81      1.0000 0.27550  0.06466  0.75767  Biso   1.000  N
  N82      1.0000 0.21856  0.02483  0.72313  Biso   1.000  N
  H225     1.0000 0.20103  0.03017  0.66147  Biso   1.000  H
  N83      1.0000 0.19615  0.88162  0.14253  Biso   1.000  N
  N84      1.0000 0.24426  0.88211  0.09139  Biso   1.000  N
  H226     1.0000 0.26073  0.86227  0.11947  Biso   1.000  H
  C177     1.0000 0.28448  0.03987  0.85567  Biso   1.000  C
  C178     1.0000 0.23345  0.98394  0.88207  Biso   1.000  C
  C179     1.0000 0.19203  0.97596  0.79467  Biso   1.000  C
  C180     1.0000 0.13101  0.92518  0.77027  Biso   1.000  C
  H227     1.0000 0.10163  0.93217  0.81017  Biso   1.000  H
  H228     1.0000 0.12783  0.88837  0.80027  Biso   1.000  H
  H229     1.0000 0.12363  0.92177  0.68437  Biso   1.000  H
  C181     1.0000 0.34197  0.07169  0.92327  Biso   1.000  C
  H230     1.0000 0.37453  0.07637  0.87217  Biso   1.000  H
  H231     1.0000 0.33973  0.04857  0.99387  Biso   1.000  H
  H232     1.0000 0.34913  0.11087  0.94777  Biso   1.000  H
  C182     1.0000 0.26363  0.91661  0.99267  Biso   1.000  C
  C183     1.0000 0.22721  0.94126  0.97737  Biso   1.000  C
  C184     1.0000 0.18517  0.91751  0.07297  Biso   1.000  C
  C185     1.0000 0.13497  0.92861  0.09877  Biso   1.000  C
  H233     1.0000 0.09753  0.89427  0.07337  Biso   1.000  H
  H234     1.0000 0.14123  0.96397  0.05527  Biso   1.000  H
  H235     1.0000 0.13343  0.93487  0.18427  Biso   1.000  H
  C186     1.0000 0.31473  0.92233  0.92037  Biso   1.000  C
  H236     1.0000 0.35173  0.94617  0.96427  Biso   1.000  H
  H237     1.0000 0.31653  0.94177  0.84457  Biso   1.000  H
  H238     1.0000 0.30923  0.88287  0.90517  Biso   1.000  H
  S17      1.0000 0.18796  0.65983  0.20857  Biso   1.000  S
  N85      1.0000 0.19159  0.76793  0.25545  Biso   1.000  N
  C187     1.0000 0.18977  0.72270  0.23643  Biso   1.000  C
  N86      1.0000 0.05783  0.60201  0.90900  Biso   1.000  N
  N87      1.0000 0.11477  0.64184  0.94354  Biso   1.000  N
  H239     1.0000 0.13230  0.63650  0.00520  Biso   1.000  H
  N88      1.0000 0.13718  0.78505  0.52414  Biso   1.000  N
  N89      1.0000 0.08907  0.78456  0.57528  Biso   1.000  N
  H240     1.0000 0.07260  0.80440  0.54720  Biso   1.000  H
  C188     1.0000 0.04885  0.62680  0.81100  Biso   1.000  C
  C189     1.0000 0.09988  0.68273  0.78460  Biso   1.000  C
  C190     1.0000 0.14130  0.69071  0.87200  Biso   1.000  C
  C191     1.0000 0.20232  0.74149  0.89640  Biso   1.000  C
  H241     1.0000 0.23170  0.73450  0.85650  Biso   1.000  H
  H242     1.0000 0.20550  0.77830  0.86640  Biso   1.000  H
  H243     1.0000 0.20970  0.74490  0.98230  Biso   1.000  H
  C192     1.0000 0.99136  0.59498  0.74340  Biso   1.000  C
  H244     1.0000 0.95880  0.59030  0.79450  Biso   1.000  H
  H245     1.0000 0.99360  0.61810  0.67280  Biso   1.000  H
  H246     1.0000 0.98420  0.55580  0.71890  Biso   1.000  H
  C193     1.0000 0.06970  0.75006  0.67400  Biso   1.000  C
  C194     1.0000 0.10612  0.72541  0.68930  Biso   1.000  C
  C195     1.0000 0.14816  0.74916  0.59370  Biso   1.000  C
  C196     1.0000 0.19836  0.73806  0.56790  Biso   1.000  C
  H247     1.0000 0.23580  0.77240  0.59330  Biso   1.000  H
  H248     1.0000 0.19210  0.70270  0.61140  Biso   1.000  H
  H249     1.0000 0.19990  0.73180  0.48240  Biso   1.000  H
  C197     1.0000 0.01860  0.74434  0.74630  Biso   1.000  C
  H250     1.0000 0.98160  0.72050  0.70240  Biso   1.000  H
  H251     1.0000 0.01680  0.72490  0.82210  Biso   1.000  H
  H252     1.0000 0.02410  0.78380  0.76150  Biso   1.000  H
  S18      1.0000 0.14538  0.00683  0.45809  Biso   1.000  S
  N90      1.0000 0.14175  0.89873  0.41121  Biso   1.000  N
  C198     1.0000 0.14357  0.94396  0.43023  Biso   1.000  C
  Cd9      1.0000 0.16667  0.83333  0.33333  Biso   1.000  Cd
