data_KILJEV_clean
_audit_creation_date              2014-07-02
_audit_creation_method            'Materials Studio'
_symmetry_space_group_name_H-M    'P1'
_symmetry_Int_Tables_number       1
_symmetry_cell_setting            triclinic
loop_
_symmetry_equiv_pos_as_xyz
  x,y,z
_cell_length_a                    7.4564
_cell_length_b                    9.1845
_cell_length_c                    11.5820
_cell_angle_alpha                 100.8420
_cell_angle_beta                  104.3030
_cell_angle_gamma                 94.7740
loop_
_atom_site_label
_atom_site_type_symbol
_atom_site_fract_x
_atom_site_fract_y
_atom_site_fract_z
_atom_site_U_iso_or_equiv
_atom_site_adp_type
_atom_site_occupancy
Cu1    Cu    0.16072   0.12101   0.01208   0.01267  Uiso   1.00
Cu2    Cu    0.36183   0.91960   0.77591   0.01267  Uiso   1.00
Cu3    Cu    0.83928   0.87899   0.98792   0.01267  Uiso   1.00
Cu4    Cu    0.63817   0.08040   0.22409   0.01267  Uiso   1.00
P1     P     0.35230   0.83722   0.02408   0.01267  Uiso   1.00
P2     P     0.03370   0.08259   0.24017   0.01267  Uiso   1.00
P3     P     0.64770   0.16278   0.97592   0.01267  Uiso   1.00
P4     P     0.96630   0.91741   0.75983   0.01267  Uiso   1.00
H1     H     0.15920   0.41500   0.17410   0.01267  Uiso   1.00
H2     H     0.22580   0.66430   0.17890   0.01267  Uiso   1.00
H3     H     0.31650   0.55670   0.84870   0.01267  Uiso   1.00
H4     H     0.24930   0.30780   0.85050   0.01267  Uiso   1.00
H5     H     0.19990   0.76600   0.52330   0.01267  Uiso   1.00
H6     H     0.07450   0.81710   0.33620   0.01267  Uiso   1.00
H7     H     0.28500   0.24800   0.47510   0.01267  Uiso   1.00
H8     H     0.40750   0.18630   0.66030   0.01267  Uiso   1.00
H9     H     0.84080   0.58500   0.82590   0.01267  Uiso   1.00
H10    H     0.77420   0.33570   0.82110   0.01267  Uiso   1.00
H11    H     0.68350   0.44330   0.15130   0.01267  Uiso   1.00
H12    H     0.75070   0.69220   0.14950   0.01267  Uiso   1.00
H13    H     0.80010   0.23400   0.47670   0.01267  Uiso   1.00
H14    H     0.92550   0.18290   0.66380   0.01267  Uiso   1.00
H15    H     0.71500   0.75200   0.52490   0.01267  Uiso   1.00
H16    H     0.59250   0.81370   0.33970   0.01267  Uiso   1.00
C1     C     0.19210   0.44370   0.10840   0.01267  Uiso   1.00
C2     C     0.23250   0.59370   0.11160   0.01267  Uiso   1.00
C3     C     0.28310   0.64080   0.01560   0.01267  Uiso   1.00
C4     C     0.28650   0.53020   0.91590   0.01267  Uiso   1.00
C5     C     0.24510   0.38050   0.91720   0.01267  Uiso   1.00
C6     C     0.21460   0.86440   0.51400   0.01267  Uiso   1.00
C7     C     0.13830   0.89470   0.40110   0.01267  Uiso   1.00
C8     C     0.15630   0.04040   0.38390   0.01267  Uiso   1.00
C9     C     0.26310   0.14980   0.48330   0.01267  Uiso   1.00
C10    C     0.33690   0.11200   0.59490   0.01267  Uiso   1.00
C11    C     0.80790   0.55630   0.89160   0.01267  Uiso   1.00
C12    C     0.76750   0.40630   0.88840   0.01267  Uiso   1.00
C13    C     0.71690   0.35920   0.98440   0.01267  Uiso   1.00
C14    C     0.71350   0.46980   0.08410   0.01267  Uiso   1.00
C15    C     0.75490   0.61950   0.08280   0.01267  Uiso   1.00
C16    C     0.78540   0.13560   0.48600   0.01267  Uiso   1.00
C17    C     0.86170   0.10530   0.59890   0.01267  Uiso   1.00
C18    C     0.84370   0.95960   0.61610   0.01267  Uiso   1.00
C19    C     0.73690   0.85020   0.51670   0.01267  Uiso   1.00
C20    C     0.66310   0.88800   0.40510   0.01267  Uiso   1.00
N1     N     0.19900   0.33730   0.01240   0.01267  Uiso   1.00
N2     N     0.30930   0.97140   0.61110   0.01267  Uiso   1.00
N3     N     0.80100   0.66270   0.98760   0.01267  Uiso   1.00
N4     N     0.69070   0.02860   0.38890   0.01267  Uiso   1.00
O1     O     0.18220   0.15330   0.18970   0.01267  Uiso   1.00
O2     O     0.17420   0.90740   0.00560   0.01267  Uiso   1.00
O3     O     0.92720   0.93180   0.16670   0.01267  Uiso   1.00
O4     O     0.48380   0.89040   0.15150   0.01267  Uiso   1.00
O5     O     0.45020   0.84500   0.92450   0.01267  Uiso   1.00
O6     O     0.89920   0.19200   0.27050   0.01267  Uiso   1.00
O7     O     0.81780   0.84670   0.81030   0.01267  Uiso   1.00
O8     O     0.82580   0.09260   0.99440   0.01267  Uiso   1.00
O9     O     0.07280   0.06820   0.83330   0.01267  Uiso   1.00
O10    O     0.51620   0.10960   0.84850   0.01267  Uiso   1.00
O11    O     0.54980   0.15500   0.07550   0.01267  Uiso   1.00
O12    O     0.10080   0.80800   0.72950   0.01267  Uiso   1.00
