data_KINDIW_clean
_audit_creation_date              2014-07-02
_audit_creation_method            'Materials Studio'
_symmetry_space_group_name_H-M    'P1'
_symmetry_Int_Tables_number       1
_symmetry_cell_setting            triclinic
loop_
_symmetry_equiv_pos_as_xyz
  x,y,z
_cell_length_a                    10.0691
_cell_length_b                    10.9491
_cell_length_c                    13.2211
_cell_angle_alpha                 99.7550
_cell_angle_beta                  110.2450
_cell_angle_gamma                 107.7930
loop_
_atom_site_label
_atom_site_type_symbol
_atom_site_fract_x
_atom_site_fract_y
_atom_site_fract_z
_atom_site_U_iso_or_equiv
_atom_site_adp_type
_atom_site_occupancy
Er1    Er    0.84506   0.29349   0.80419   0.01267  Uiso   1.00
Er2    Er    0.15494   0.70651   0.19581   0.01267  Uiso   1.00
H1     H     0.27570   0.38100   0.83700   0.01267  Uiso   1.00
H2     H     0.49610   0.63220   0.15450   0.01267  Uiso   1.00
H3     H     0.16290   0.08460   0.68940   0.01267  Uiso   1.00
H4     H     0.77490   0.03230   0.43600   0.01267  Uiso   1.00
H5     H     0.76640   0.59020   0.57410   0.01267  Uiso   1.00
H6     H     0.37340   0.33020   0.55770   0.01267  Uiso   1.00
H7     H     0.03650   0.35850   0.08680   0.01267  Uiso   1.00
H8     H     0.09800   0.26610   0.23010   0.01267  Uiso   1.00
H9     H     0.97680   0.03450   0.19130   0.01267  Uiso   1.00
H10    H     0.79650   0.80960   0.04370   0.01267  Uiso   1.00
H11    H     0.61090   0.68850   0.86400   0.01267  Uiso   1.00
H12    H     0.45860   0.68460   0.66460   0.01267  Uiso   1.00
H13    H     0.39950   0.80570   0.54160   0.01267  Uiso   1.00
H14    H     0.53510   0.03480   0.59980   0.01267  Uiso   1.00
H15    H     0.72430   0.61900   0.16300   0.01267  Uiso   1.00
H16    H     0.50390   0.36780   0.84550   0.01267  Uiso   1.00
H17    H     0.83710   0.91540   0.31060   0.01267  Uiso   1.00
H18    H     0.22510   0.96770   0.56400   0.01267  Uiso   1.00
H19    H     0.23360   0.40980   0.42590   0.01267  Uiso   1.00
H20    H     0.62660   0.66980   0.44230   0.01267  Uiso   1.00
H21    H     0.96350   0.64150   0.91320   0.01267  Uiso   1.00
H22    H     0.90200   0.73390   0.76990   0.01267  Uiso   1.00
H23    H     0.02320   0.96550   0.80870   0.01267  Uiso   1.00
H24    H     0.20350   0.19040   0.95630   0.01267  Uiso   1.00
H25    H     0.38910   0.31150   0.13600   0.01267  Uiso   1.00
H26    H     0.54140   0.31540   0.33540   0.01267  Uiso   1.00
H27    H     0.60050   0.19430   0.45840   0.01267  Uiso   1.00
H28    H     0.46490   0.96520   0.40020   0.01267  Uiso   1.00
C1     C     0.21270   0.51440   0.98910   0.01267  Uiso   1.00
C2     C     0.36260   0.50800   0.99480   0.01267  Uiso   1.00
C3     C     0.36600   0.42910   0.90280   0.01267  Uiso   1.00
C4     C     0.49720   0.57900   0.09230   0.01267  Uiso   1.00
C5     C     0.92310   0.14870   0.65740   0.01267  Uiso   1.00
C6     C     0.96130   0.07020   0.57580   0.01267  Uiso   1.00
C7     C     0.09620   0.05040   0.61270   0.01267  Uiso   1.00
C8     C     0.86650   0.01940   0.46270   0.01267  Uiso   1.00
C9     C     0.67430   0.39930   0.66370   0.01267  Uiso   1.00
C10    C     0.58420   0.45240   0.57920   0.01267  Uiso   1.00
C11    C     0.65950   0.55400   0.54430   0.01267  Uiso   1.00
C12    C     0.42410   0.39840   0.53450   0.01267  Uiso   1.00
C13    C     0.98910   0.26550   0.06960   0.01267  Uiso   1.00
C14    C     0.02660   0.21140   0.15730   0.01267  Uiso   1.00
C15    C     0.95540   0.07440   0.13420   0.01267  Uiso   1.00
C16    C     0.84990   0.99610   0.02240   0.01267  Uiso   1.00
C17    C     0.77230   0.85420   0.99040   0.01267  Uiso   1.00
C18    C     0.66220   0.78110   0.88210   0.01267  Uiso   1.00
C19    C     0.62590   0.84530   0.79750   0.01267  Uiso   1.00
C20    C     0.51120   0.77770   0.68780   0.01267  Uiso   1.00
C21    C     0.47680   0.84910   0.61480   0.01267  Uiso   1.00
C22    C     0.55890   0.98770   0.65110   0.01267  Uiso   1.00
C23    C     0.70430   0.98730   0.82680   0.01267  Uiso   1.00
C24    C     0.82210   0.06230   0.94200   0.01267  Uiso   1.00
C25    C     0.78730   0.48560   0.01090   0.01267  Uiso   1.00
C26    C     0.63740   0.49200   0.00520   0.01267  Uiso   1.00
C27    C     0.63400   0.57090   0.09720   0.01267  Uiso   1.00
C28    C     0.50280   0.42100   0.90770   0.01267  Uiso   1.00
C29    C     0.07690   0.85130   0.34260   0.01267  Uiso   1.00
C30    C     0.03870   0.92980   0.42420   0.01267  Uiso   1.00
C31    C     0.90380   0.94960   0.38730   0.01267  Uiso   1.00
C32    C     0.13350   0.98060   0.53730   0.01267  Uiso   1.00
C33    C     0.32570   0.60070   0.33630   0.01267  Uiso   1.00
C34    C     0.41580   0.54760   0.42080   0.01267  Uiso   1.00
C35    C     0.34050   0.44600   0.45570   0.01267  Uiso   1.00
C36    C     0.57590   0.60160   0.46550   0.01267  Uiso   1.00
C37    C     0.01090   0.73450   0.93040   0.01267  Uiso   1.00
C38    C     0.97340   0.78860   0.84270   0.01267  Uiso   1.00
C39    C     0.04460   0.92560   0.86580   0.01267  Uiso   1.00
C40    C     0.15010   0.00390   0.97760   0.01267  Uiso   1.00
C41    C     0.22770   0.14580   0.00960   0.01267  Uiso   1.00
C42    C     0.33780   0.21890   0.11790   0.01267  Uiso   1.00
C43    C     0.37410   0.15470   0.20250   0.01267  Uiso   1.00
C44    C     0.48880   0.22230   0.31220   0.01267  Uiso   1.00
C45    C     0.52320   0.15090   0.38520   0.01267  Uiso   1.00
C46    C     0.44110   0.01230   0.34890   0.01267  Uiso   1.00
C47    C     0.29570   0.01270   0.17320   0.01267  Uiso   1.00
C48    C     0.17790   0.93770   0.05800   0.01267  Uiso   1.00
N1     N     0.89120   0.19600   0.96290   0.01267  Uiso   1.00
N2     N     0.66860   0.05700   0.75400   0.01267  Uiso   1.00
N3     N     0.10880   0.80400   0.03710   0.01267  Uiso   1.00
N4     N     0.33140   0.94300   0.24600   0.01267  Uiso   1.00
O1     O     0.09120   0.44030   0.90410   0.01267  Uiso   1.00
O2     O     0.21930   0.59310   0.07360   0.01267  Uiso   1.00
O3     O     0.98820   0.16590   0.76180   0.01267  Uiso   1.00
O4     O     0.82390   0.19890   0.61960   0.01267  Uiso   1.00
O5     O     0.81900   0.46230   0.71730   0.01267  Uiso   1.00
O6     O     0.60600   0.29110   0.67940   0.01267  Uiso   1.00
O7     O     0.90880   0.55970   0.09590   0.01267  Uiso   1.00
O8     O     0.78070   0.40690   0.92640   0.01267  Uiso   1.00
O9     O     0.01180   0.83410   0.23820   0.01267  Uiso   1.00
O10    O     0.17610   0.80110   0.38040   0.01267  Uiso   1.00
O11    O     0.18100   0.53770   0.28270   0.01267  Uiso   1.00
O12    O     0.39400   0.70890   0.32060   0.01267  Uiso   1.00
