data_KINFEU_clean
_audit_creation_date              2014-07-02
_audit_creation_method            'Materials Studio'
_symmetry_space_group_name_H-M    'P1'
_symmetry_Int_Tables_number       1
_symmetry_cell_setting            triclinic
loop_
_symmetry_equiv_pos_as_xyz
  x,y,z
_cell_length_a                    10.8639
_cell_length_b                    18.6670
_cell_length_c                    19.8400
_cell_angle_alpha                 98.0350
_cell_angle_beta                  96.5350
_cell_angle_gamma                 106.1850
loop_
_atom_site_label
_atom_site_type_symbol
_atom_site_fract_x
_atom_site_fract_y
_atom_site_fract_z
_atom_site_U_iso_or_equiv
_atom_site_adp_type
_atom_site_occupancy
Tm1    Tm    0.17663   0.89198   0.79485   0.01267  Uiso   1.00
Tm2    Tm    0.17254   0.59916   0.79775   0.01267  Uiso   1.00
Tm3    Tm    0.23634   0.38973   0.72845   0.01267  Uiso   1.00
Tm4    Tm    0.24913   0.10152   0.72591   0.01267  Uiso   1.00
Tm5    Tm    0.82337   0.10802   0.20515   0.01267  Uiso   1.00
Tm6    Tm    0.82746   0.40084   0.20225   0.01267  Uiso   1.00
Tm7    Tm    0.76366   0.61027   0.27155   0.01267  Uiso   1.00
Tm8    Tm    0.75087   0.89848   0.27409   0.01267  Uiso   1.00
H1     H     0.55620   0.90440   0.79300   0.01267  Uiso   1.00
H2     H     0.76390   0.89870   0.80430   0.01267  Uiso   1.00
H3     H     0.86860   0.09120   0.72820   0.01267  Uiso   1.00
H4     H     0.66500   0.09830   0.72450   0.01267  Uiso   1.00
H5     H     0.05310   0.77980   0.57110   0.01267  Uiso   1.00
H6     H     0.97220   0.72730   0.45640   0.01267  Uiso   1.00
H7     H     0.04010   0.93650   0.41180   0.01267  Uiso   1.00
H8     H     0.11720   0.98610   0.52300   0.01267  Uiso   1.00
H9     H     0.43330   0.72770   0.96840   0.01267  Uiso   1.00
H10    H     0.56220   0.78530   0.07350   0.01267  Uiso   1.00
H11    H     0.62000   0.98390   0.01090   0.01267  Uiso   1.00
H12    H     0.47860   0.92680   0.90980   0.01267  Uiso   1.00
H13    H     0.83620   0.56940   0.70260   0.01267  Uiso   1.00
H14    H     0.61710   0.51490   0.69870   0.01267  Uiso   1.00
H15    H     0.58420   0.70870   0.79590   0.01267  Uiso   1.00
H16    H     0.80180   0.76360   0.80220   0.01267  Uiso   1.00
H17    H     0.83980   0.27360   0.78370   0.01267  Uiso   1.00
H18    H     0.62140   0.22370   0.78950   0.01267  Uiso   1.00
H19    H     0.57700   0.42980   0.79900   0.01267  Uiso   1.00
H20    H     0.79960   0.48170   0.80370   0.01267  Uiso   1.00
H21    H     0.43220   0.40350   0.90580   0.01267  Uiso   1.00
H22    H     0.42440   0.60400   0.00340   0.01267  Uiso   1.00
H23    H     0.09260   0.40780   0.52070   0.01267  Uiso   1.00
H24    H     0.99660   0.59020   0.59190   0.01267  Uiso   1.00
H25    H     0.44380   0.09560   0.20700   0.01267  Uiso   1.00
H26    H     0.23610   0.10130   0.19570   0.01267  Uiso   1.00
H27    H     0.13140   0.90880   0.27180   0.01267  Uiso   1.00
H28    H     0.33500   0.90170   0.27550   0.01267  Uiso   1.00
H29    H     0.94690   0.22020   0.42890   0.01267  Uiso   1.00
H30    H     0.02780   0.27270   0.54360   0.01267  Uiso   1.00
H31    H     0.95990   0.06350   0.58820   0.01267  Uiso   1.00
H32    H     0.88280   0.01390   0.47700   0.01267  Uiso   1.00
H33    H     0.56670   0.27230   0.03160   0.01267  Uiso   1.00
H34    H     0.43780   0.21470   0.92650   0.01267  Uiso   1.00
H35    H     0.38000   0.01610   0.98910   0.01267  Uiso   1.00
H36    H     0.52140   0.07320   0.09020   0.01267  Uiso   1.00
H37    H     0.16380   0.43060   0.29740   0.01267  Uiso   1.00
H38    H     0.38290   0.48510   0.30130   0.01267  Uiso   1.00
H39    H     0.41580   0.29130   0.20410   0.01267  Uiso   1.00
H40    H     0.19820   0.23640   0.19780   0.01267  Uiso   1.00
H41    H     0.16020   0.72640   0.21630   0.01267  Uiso   1.00
H42    H     0.37860   0.77630   0.21050   0.01267  Uiso   1.00
H43    H     0.42300   0.57020   0.20100   0.01267  Uiso   1.00
H44    H     0.20040   0.51830   0.19630   0.01267  Uiso   1.00
H45    H     0.56780   0.59650   0.09420   0.01267  Uiso   1.00
H46    H     0.57560   0.39600   0.99660   0.01267  Uiso   1.00
H47    H     0.90740   0.59220   0.47930   0.01267  Uiso   1.00
H48    H     0.00340   0.40980   0.40810   0.01267  Uiso   1.00
C1     C     0.44850   0.00340   0.75090   0.01267  Uiso   1.00
C2     C     0.58780   0.00010   0.75620   0.01267  Uiso   1.00
C3     C     0.62040   0.94240   0.78040   0.01267  Uiso   1.00
C4     C     0.74370   0.93850   0.78680   0.01267  Uiso   1.00
C5     C     0.84080   0.99490   0.76680   0.01267  Uiso   1.00
C6     C     0.97630   0.99030   0.77060   0.01267  Uiso   1.00
C7     C     0.80620   0.05350   0.74240   0.01267  Uiso   1.00
C8     C     0.68490   0.05700   0.73890   0.01267  Uiso   1.00
C9     C     0.13610   0.92180   0.63470   0.01267  Uiso   1.00
C10    C     0.09100   0.88880   0.55950   0.01267  Uiso   1.00
C11    C     0.04800   0.81110   0.53890   0.01267  Uiso   1.00
C12    C     0.99750   0.77960   0.47080   0.01267  Uiso   1.00
C13    C     0.98490   0.82710   0.42410   0.01267  Uiso   1.00
C14    C     0.91370   0.79380   0.35060   0.01267  Uiso   1.00
C15    C     0.03800   0.90480   0.44420   0.01267  Uiso   1.00
C16    C     0.08580   0.93360   0.50970   0.01267  Uiso   1.00
C17    C     0.33820   0.78400   0.86540   0.01267  Uiso   1.00
C18    C     0.43580   0.82100   0.92900   0.01267  Uiso   1.00
C19    C     0.46790   0.78030   0.97780   0.01267  Uiso   1.00
C20    C     0.54920   0.81400   0.04020   0.01267  Uiso   1.00
C21    C     0.60900   0.88930   0.05120   0.01267  Uiso   1.00
C22    C     0.68940   0.92960   0.11620   0.01267  Uiso   1.00
C23    C     0.58080   0.93170   0.00250   0.01267  Uiso   1.00
C24    C     0.49550   0.89750   0.94200   0.01267  Uiso   1.00
C25    C     0.98570   0.70900   0.75840   0.01267  Uiso   1.00
C26    C     0.84300   0.67230   0.75300   0.01267  Uiso   1.00
C27    C     0.78650   0.59760   0.72200   0.01267  Uiso   1.00
C28    C     0.65560   0.56520   0.72000   0.01267  Uiso   1.00
C29    C     0.57980   0.60560   0.74910   0.01267  Uiso   1.00
C30    C     0.43390   0.56290   0.74400   0.01267  Uiso   1.00
C31    C     0.63510   0.68040   0.77820   0.01267  Uiso   1.00
C32    C     0.76450   0.71310   0.78110   0.01267  Uiso   1.00
C33    C     0.98070   0.41640   0.78300   0.01267  Uiso   1.00
C34    C     0.84320   0.38490   0.79350   0.01267  Uiso   1.00
C35    C     0.78770   0.30540   0.78800   0.01267  Uiso   1.00
C36    C     0.65600   0.27510   0.78890   0.01267  Uiso   1.00
C37    C     0.57690   0.32080   0.78900   0.01267  Uiso   1.00
C38    C     0.43190   0.28740   0.77780   0.01267  Uiso   1.00
C39    C     0.62990   0.39830   0.79600   0.01267  Uiso   1.00
C40    C     0.76420   0.42940   0.79850   0.01267  Uiso   1.00
C41    C     0.31560   0.50900   0.88550   0.01267  Uiso   1.00
C42    C     0.41010   0.50480   0.94560   0.01267  Uiso   1.00
C43    C     0.45910   0.44240   0.94400   0.01267  Uiso   1.00
C44    C     0.45400   0.56170   0.00180   0.01267  Uiso   1.00
C45    C     0.11010   0.49630   0.63870   0.01267  Uiso   1.00
C46    C     0.05370   0.49830   0.56570   0.01267  Uiso   1.00
C47    C     0.05520   0.44560   0.51250   0.01267  Uiso   1.00
C48    C     0.99860   0.55380   0.55530   0.01267  Uiso   1.00
C49    C     0.55150   0.99660   0.24910   0.01267  Uiso   1.00
C50    C     0.41220   0.99990   0.24380   0.01267  Uiso   1.00
C51    C     0.37960   0.05760   0.21960   0.01267  Uiso   1.00
C52    C     0.25630   0.06150   0.21320   0.01267  Uiso   1.00
C53    C     0.15920   0.00510   0.23320   0.01267  Uiso   1.00
C54    C     0.02370   0.00970   0.22940   0.01267  Uiso   1.00
C55    C     0.19380   0.94650   0.25760   0.01267  Uiso   1.00
C56    C     0.31510   0.94300   0.26110   0.01267  Uiso   1.00
C57    C     0.86390   0.07820   0.36530   0.01267  Uiso   1.00
C58    C     0.90900   0.11120   0.44050   0.01267  Uiso   1.00
C59    C     0.95200   0.18890   0.46110   0.01267  Uiso   1.00
C60    C     0.00250   0.22040   0.52920   0.01267  Uiso   1.00
C61    C     0.01510   0.17290   0.57590   0.01267  Uiso   1.00
C62    C     0.08630   0.20620   0.64940   0.01267  Uiso   1.00
C63    C     0.96200   0.09520   0.55580   0.01267  Uiso   1.00
C64    C     0.91420   0.06640   0.49030   0.01267  Uiso   1.00
C65    C     0.66180   0.21600   0.13460   0.01267  Uiso   1.00
C66    C     0.56420   0.17900   0.07100   0.01267  Uiso   1.00
C67    C     0.53210   0.21970   0.02220   0.01267  Uiso   1.00
C68    C     0.45080   0.18600   0.95980   0.01267  Uiso   1.00
C69    C     0.39100   0.11070   0.94880   0.01267  Uiso   1.00
C70    C     0.31060   0.07040   0.88380   0.01267  Uiso   1.00
C71    C     0.41920   0.06830   0.99750   0.01267  Uiso   1.00
C72    C     0.50450   0.10250   0.05800   0.01267  Uiso   1.00
C73    C     0.01430   0.29100   0.24160   0.01267  Uiso   1.00
C74    C     0.15700   0.32770   0.24700   0.01267  Uiso   1.00
C75    C     0.21350   0.40240   0.27800   0.01267  Uiso   1.00
C76    C     0.34440   0.43480   0.28000   0.01267  Uiso   1.00
C77    C     0.42020   0.39440   0.25090   0.01267  Uiso   1.00
C78    C     0.56610   0.43710   0.25600   0.01267  Uiso   1.00
C79    C     0.36490   0.31960   0.22180   0.01267  Uiso   1.00
C80    C     0.23550   0.28690   0.21890   0.01267  Uiso   1.00
C81    C     0.01930   0.58360   0.21700   0.01267  Uiso   1.00
C82    C     0.15680   0.61510   0.20650   0.01267  Uiso   1.00
C83    C     0.21230   0.69460   0.21200   0.01267  Uiso   1.00
C84    C     0.34400   0.72490   0.21110   0.01267  Uiso   1.00
C85    C     0.42310   0.67920   0.21100   0.01267  Uiso   1.00
C86    C     0.56810   0.71260   0.22220   0.01267  Uiso   1.00
C87    C     0.37010   0.60170   0.20400   0.01267  Uiso   1.00
C88    C     0.23580   0.57060   0.20150   0.01267  Uiso   1.00
C89    C     0.68440   0.49100   0.11450   0.01267  Uiso   1.00
C90    C     0.58990   0.49520   0.05440   0.01267  Uiso   1.00
C91    C     0.54090   0.55760   0.05600   0.01267  Uiso   1.00
C92    C     0.54600   0.43830   0.99820   0.01267  Uiso   1.00
C93    C     0.88990   0.50370   0.36130   0.01267  Uiso   1.00
C94    C     0.94630   0.50170   0.43430   0.01267  Uiso   1.00
C95    C     0.94480   0.55440   0.48750   0.01267  Uiso   1.00
C96    C     0.00140   0.44620   0.44470   0.01267  Uiso   1.00
O1     O     0.36810   0.94750   0.76060   0.01267  Uiso   1.00
O2     O     0.43000   0.06250   0.73780   0.01267  Uiso   1.00
O3     O     0.00080   0.93460   0.79110   0.01267  Uiso   1.00
O4     O     0.05840   0.04300   0.75380   0.01267  Uiso   1.00
O5     O     0.12850   0.87870   0.67840   0.01267  Uiso   1.00
O6     O     0.18320   0.99280   0.65090   0.01267  Uiso   1.00
O7     O     0.89130   0.72440   0.33300   0.01267  Uiso   1.00
O8     O     0.88350   0.83810   0.31470   0.01267  Uiso   1.00
O9     O     0.30640   0.82490   0.82830   0.01267  Uiso   1.00
O10    O     0.29690   0.71300   0.85340   0.01267  Uiso   1.00
O11    O     0.71390   0.88970   0.15900   0.01267  Uiso   1.00
O12    O     0.73400   0.99950   0.12750   0.01267  Uiso   1.00
O13    O     0.02280   0.77890   0.76490   0.01267  Uiso   1.00
O14    O     0.05720   0.66710   0.75270   0.01267  Uiso   1.00
O15    O     0.39830   0.49460   0.72410   0.01267  Uiso   1.00
O16    O     0.37030   0.60390   0.76860   0.01267  Uiso   1.00
O17    O     0.02620   0.48480   0.79100   0.01267  Uiso   1.00
O18    O     0.04170   0.37010   0.76850   0.01267  Uiso   1.00
O19    O     0.38880   0.21950   0.76860   0.01267  Uiso   1.00
O20    O     0.36370   0.33080   0.77960   0.01267  Uiso   1.00
O21    O     0.27080   0.56370   0.89100   0.01267  Uiso   1.00
O22    O     0.28580   0.45690   0.83670   0.01267  Uiso   1.00
O23    O     0.12740   0.55460   0.68310   0.01267  Uiso   1.00
O24    O     0.13090   0.43550   0.64810   0.01267  Uiso   1.00
O25    O     0.63190   0.05250   0.23940   0.01267  Uiso   1.00
O26    O     0.57000   0.93750   0.26220   0.01267  Uiso   1.00
O27    O     0.99920   0.06540   0.20890   0.01267  Uiso   1.00
O28    O     0.94160   0.95700   0.24620   0.01267  Uiso   1.00
O29    O     0.87150   0.12130   0.32160   0.01267  Uiso   1.00
O30    O     0.81680   0.00720   0.34910   0.01267  Uiso   1.00
O31    O     0.10870   0.27560   0.66700   0.01267  Uiso   1.00
O32    O     0.11650   0.16190   0.68530   0.01267  Uiso   1.00
O33    O     0.69360   0.17510   0.17170   0.01267  Uiso   1.00
O34    O     0.70310   0.28700   0.14660   0.01267  Uiso   1.00
O35    O     0.28610   0.11030   0.84100   0.01267  Uiso   1.00
O36    O     0.26600   0.00050   0.87250   0.01267  Uiso   1.00
O37    O     0.97720   0.22110   0.23510   0.01267  Uiso   1.00
O38    O     0.94280   0.33290   0.24730   0.01267  Uiso   1.00
O39    O     0.60170   0.50540   0.27590   0.01267  Uiso   1.00
O40    O     0.62970   0.39610   0.23140   0.01267  Uiso   1.00
O41    O     0.97380   0.51520   0.20900   0.01267  Uiso   1.00
O42    O     0.95830   0.62990   0.23150   0.01267  Uiso   1.00
O43    O     0.61120   0.78050   0.23140   0.01267  Uiso   1.00
O44    O     0.63630   0.66920   0.22040   0.01267  Uiso   1.00
O45    O     0.72920   0.43630   0.10900   0.01267  Uiso   1.00
O46    O     0.71420   0.54310   0.16330   0.01267  Uiso   1.00
O47    O     0.87260   0.44540   0.31690   0.01267  Uiso   1.00
O48    O     0.86910   0.56450   0.35190   0.01267  Uiso   1.00
