data_KINNUS_charged
_audit_creation_date              2014-07-02
_audit_creation_method            'Materials Studio'
_symmetry_space_group_name_H-M    'P1'
_symmetry_Int_Tables_number       1
_symmetry_cell_setting            triclinic
loop_
_symmetry_equiv_pos_as_xyz
  x,y,z
_cell_length_a                    7.5735
_cell_length_b                    11.7547
_cell_length_c                    17.0842
_cell_angle_alpha                 82.1900
_cell_angle_beta                  86.2850
_cell_angle_gamma                 88.2180
loop_
_atom_site_label
_atom_site_type_symbol
_atom_site_fract_x
_atom_site_fract_y
_atom_site_fract_z
_atom_site_U_iso_or_equiv
_atom_site_adp_type
_atom_site_occupancy
Cu1    Cu    0.41627   0.05273   0.80586   0.01267  Uiso   1.00
Cu2    Cu    0.58373   0.94727   0.19413   0.01267  Uiso   1.00
C1     C     0.12410   0.05552   0.53280   0.01267  Uiso   1.00
C2     C     0.55620   0.55175   0.05929   0.01267  Uiso   1.00
C3     C     0.49410   0.62605   0.99526   0.01267  Uiso   1.00
C4     C     0.94090   0.05547   0.66146   0.01267  Uiso   1.00
C5     C     0.96990   0.02877   0.58026   0.01267  Uiso   1.00
C6     C     0.44660   0.82483   0.92335   0.01267  Uiso   1.00
C7     C     0.52460   0.80638   0.05580   0.01267  Uiso   1.00
C8     C     0.43940   0.56611   0.93612   0.01267  Uiso   1.00
C9     C     0.48750   0.75016   0.99157   0.01267  Uiso   1.00
C10    C     0.08440   0.06831   0.70738   0.01267  Uiso   1.00
C11    C     0.77230   0.06101   0.69924   0.01267  Uiso   1.00
C12    C     0.84730   0.97210   0.54263   0.01267  Uiso   1.00
C13    C     0.87590   0.94448   0.46720   0.01267  Uiso   1.00
C14    C     0.44380   0.44825   0.94071   0.01267  Uiso   1.00
C15    C     0.50590   0.37395   0.00474   0.01267  Uiso   1.00
C16    C     0.05910   0.94453   0.33854   0.01267  Uiso   1.00
C17    C     0.03010   0.97123   0.41974   0.01267  Uiso   1.00
C18    C     0.55340   0.17517   0.07665   0.01267  Uiso   1.00
C19    C     0.47540   0.19362   0.94420   0.01267  Uiso   1.00
C20    C     0.56060   0.43389   0.06388   0.01267  Uiso   1.00
C21    C     0.51250   0.24984   0.00843   0.01267  Uiso   1.00
C22    C     0.91560   0.93169   0.29262   0.01267  Uiso   1.00
C23    C     0.22770   0.93899   0.30076   0.01267  Uiso   1.00
C24    C     0.15270   0.02790   0.45737   0.01267  Uiso   1.00
N1     N     0.20220   0.07696   0.74577   0.01267  Uiso   1.00
N2     N     0.55460   0.85515   0.10775   0.01267  Uiso   1.00
N3     N     0.41740   0.89237   0.86936   0.01267  Uiso   1.00
N4     N     0.63510   0.06480   0.73324   0.01267  Uiso   1.00
N5     N     0.79780   0.92304   0.25423   0.01267  Uiso   1.00
N6     N     0.44540   0.14485   0.89225   0.01267  Uiso   1.00
N7     N     0.58260   0.10763   0.13064   0.01267  Uiso   1.00
N8     N     0.36490   0.93520   0.26676   0.01267  Uiso   1.00
F1     F     0.69240   0.94025   0.58212   0.01267  Uiso   1.00
F2     F     0.37798   0.62565   0.86908   0.01267  Uiso   1.00
F3     F     0.61820   0.59632   0.12093   0.01267  Uiso   1.00
F4     F     0.25381   0.11221   0.56129   0.01267  Uiso   1.00
F5     F     0.30760   0.05975   0.41788   0.01267  Uiso   1.00
F6     F     0.62202   0.37435   0.13092   0.01267  Uiso   1.00
F7     F     0.38180   0.40368   0.87907   0.01267  Uiso   1.00
F8     F     0.74619   0.88779   0.43871   0.01267  Uiso   1.00
P1     P     0.89521   0.67614   0.76548   0.01267  Uiso   1.00
H1     H     0.19760   0.82160   0.76430   0.01267  Uiso   1.00
H2     H     0.62730   0.50700   0.77170   0.01267  Uiso   1.00
H3     H     0.01320   0.57620   0.91800   0.01267  Uiso   1.00
H4     H     0.83620   0.89160   0.82200   0.01267  Uiso   1.00
H5     H     0.05200   0.64830   0.03610   0.01267  Uiso   1.00
H6     H     0.98080   0.84020   0.04780   0.01267  Uiso   1.00
H7     H     0.89540   0.20330   0.80570   0.01267  Uiso   1.00
H8     H     0.62980   0.30560   0.78840   0.01267  Uiso   1.00
H9     H     0.98450   0.64160   0.60780   0.01267  Uiso   1.00
H10    H     0.67310   0.70290   0.67780   0.01267  Uiso   1.00
H11    H     0.59290   0.70940   0.76610   0.01267  Uiso   1.00
H12    H     0.69470   0.81670   0.71780   0.01267  Uiso   1.00
H13    H     0.16080   0.50050   0.78370   0.01267  Uiso   1.00
H14    H     0.41180   0.89210   0.66590   0.01267  Uiso   1.00
H15    H     0.87030   0.96010   0.94180   0.01267  Uiso   1.00
H16    H     0.16200   0.29920   0.80340   0.01267  Uiso   1.00
H17    H     0.20350   0.70940   0.51110   0.01267  Uiso   1.00
H18    H     0.41760   0.83380   0.54060   0.01267  Uiso   1.00
C25    C     0.19840   0.79927   0.71286   0.01267  Uiso   1.00
C26    C     0.73570   0.46480   0.77795   0.01267  Uiso   1.00
C27    C     0.89420   0.52234   0.77689   0.01267  Uiso   1.00
C28    C     0.07170   0.72500   0.69499   0.01267  Uiso   1.00
C29    C     0.92160   0.72650   0.85835   0.01267  Uiso   1.00
C30    C     0.98520   0.65450   0.92242   0.01267  Uiso   1.00
C31    C     0.87920   0.84180   0.86550   0.01267  Uiso   1.00
C32    C     0.00750   0.69720   0.99256   0.01267  Uiso   1.00
C33    C     0.96520   0.81120   0.99947   0.01267  Uiso   1.00
C34    C     0.89520   0.28490   0.79798   0.01267  Uiso   1.00
C35    C     0.73710   0.34540   0.78817   0.01267  Uiso   1.00
C36    C     0.07210   0.69170   0.61972   0.01267  Uiso   1.00
C37    C     0.69080   0.73270   0.72751   0.01267  Uiso   1.00
C38    C     0.05290   0.46090   0.78546   0.01267  Uiso   1.00
C39    C     0.32600   0.84040   0.65452   0.01267  Uiso   1.00
C40    C     0.90050   0.88240   0.93642   0.01267  Uiso   1.00
C41    C     0.05390   0.34160   0.79667   0.01267  Uiso   1.00
C42    C     0.20170   0.73230   0.56239   0.01267  Uiso   1.00
C43    C     0.32880   0.80650   0.57984   0.01267  Uiso   1.00
P2     P     0.10479   0.32386   0.23452   0.01267  Uiso   1.00
H19    H     0.80240   0.17840   0.23570   0.01267  Uiso   1.00
H20    H     0.37270   0.49300   0.22830   0.01267  Uiso   1.00
H21    H     0.98680   0.42380   0.08200   0.01267  Uiso   1.00
H22    H     0.16380   0.10840   0.17800   0.01267  Uiso   1.00
H23    H     0.94800   0.35170   0.96390   0.01267  Uiso   1.00
H24    H     0.01920   0.15980   0.95220   0.01267  Uiso   1.00
H25    H     0.10460   0.79670   0.19430   0.01267  Uiso   1.00
H26    H     0.37020   0.69440   0.21160   0.01267  Uiso   1.00
H27    H     0.01550   0.35840   0.39220   0.01267  Uiso   1.00
H28    H     0.32690   0.29710   0.32220   0.01267  Uiso   1.00
H29    H     0.40710   0.29060   0.23390   0.01267  Uiso   1.00
H30    H     0.30530   0.18330   0.28220   0.01267  Uiso   1.00
H31    H     0.83920   0.49950   0.21630   0.01267  Uiso   1.00
H32    H     0.58820   0.10790   0.33410   0.01267  Uiso   1.00
H33    H     0.12970   0.03990   0.05820   0.01267  Uiso   1.00
H34    H     0.83800   0.70080   0.19660   0.01267  Uiso   1.00
H35    H     0.79650   0.29060   0.48890   0.01267  Uiso   1.00
H36    H     0.58240   0.16620   0.45940   0.01267  Uiso   1.00
C44    C     0.80160   0.20073   0.28714   0.01267  Uiso   1.00
C45    C     0.26430   0.53520   0.22205   0.01267  Uiso   1.00
C46    C     0.10580   0.47766   0.22311   0.01267  Uiso   1.00
C47    C     0.92830   0.27500   0.30501   0.01267  Uiso   1.00
C48    C     0.07840   0.27350   0.14165   0.01267  Uiso   1.00
C49    C     0.01480   0.34550   0.07758   0.01267  Uiso   1.00
C50    C     0.12080   0.15820   0.13450   0.01267  Uiso   1.00
C51    C     0.99250   0.30280   0.00744   0.01267  Uiso   1.00
C52    C     0.03480   0.18880   0.00053   0.01267  Uiso   1.00
C53    C     0.10480   0.71510   0.20202   0.01267  Uiso   1.00
C54    C     0.26290   0.65460   0.21183   0.01267  Uiso   1.00
C55    C     0.92790   0.30830   0.38028   0.01267  Uiso   1.00
C56    C     0.30920   0.26730   0.27249   0.01267  Uiso   1.00
C57    C     0.94710   0.53910   0.21454   0.01267  Uiso   1.00
C58    C     0.67400   0.15960   0.34548   0.01267  Uiso   1.00
C59    C     0.09950   0.11760   0.06358   0.01267  Uiso   1.00
C60    C     0.94610   0.65840   0.20333   0.01267  Uiso   1.00
C61    C     0.79830   0.26770   0.43761   0.01267  Uiso   1.00
C62    C     0.67120   0.19350   0.42016   0.01267  Uiso   1.00
