data_image0
_cell_length_a       22.176
_cell_length_b       9.636
_cell_length_c       11.2931
_cell_angle_alpha    90
_cell_angle_beta     90
_cell_angle_gamma    90

_symmetry_space_group_name_H-M    "P 1"
_symmetry_int_tables_number       1

loop_
  _symmetry_equiv_pos_as_xyz
  'x, y, z'

loop_
  _atom_site_label
  _atom_site_occupancy
  _atom_site_fract_x
  _atom_site_fract_y
  _atom_site_fract_z
  _atom_site_thermal_displace_type
  _atom_site_B_iso_or_equiv
  _atom_site_type_symbol
  F1       1.0000 0.56251  0.35390  0.56017  Biso   1.000  F
  F2       1.0000 0.44515  0.36117  0.56326  Biso   1.000  F
  N1       1.0000 0.70031  0.11800  0.90020  Biso   1.000  N
  N2       1.0000 0.30517  0.10980  0.89020  Biso   1.000  N
  C1       1.0000 0.53495  0.30220  0.65670  Biso   1.000  C
  C2       1.0000 0.47272  0.30430  0.65780  Biso   1.000  C
  C3       1.0000 0.33719  0.17160  0.82910  Biso   1.000  C
  C4       1.0000 0.66994  0.17750  0.83430  Biso   1.000  C
  F3       1.0000 0.93749  0.64610  0.56017  Biso   1.000  F
  F4       1.0000 0.05485  0.63883  0.56326  Biso   1.000  F
  N3       1.0000 0.79969  0.88200  0.90020  Biso   1.000  N
  N4       1.0000 0.19483  0.89020  0.89020  Biso   1.000  N
  C5       1.0000 0.96505  0.69780  0.65670  Biso   1.000  C
  C6       1.0000 0.02728  0.69570  0.65780  Biso   1.000  C
  C7       1.0000 0.16281  0.82840  0.82910  Biso   1.000  C
  C8       1.0000 0.83006  0.82250  0.83430  Biso   1.000  C
  F5       1.0000 0.93749  0.85390  0.93983  Biso   1.000  F
  F6       1.0000 0.05485  0.86117  0.93674  Biso   1.000  F
  N5       1.0000 0.79969  0.61800  0.59980  Biso   1.000  N
  N6       1.0000 0.19483  0.60980  0.60980  Biso   1.000  N
  C9       1.0000 0.96505  0.80220  0.84330  Biso   1.000  C
  C10      1.0000 0.02728  0.80430  0.84220  Biso   1.000  C
  C11      1.0000 0.16281  0.67160  0.67090  Biso   1.000  C
  C12      1.0000 0.83006  0.67750  0.66570  Biso   1.000  C
  F7       1.0000 0.56251  0.14610  0.93983  Biso   1.000  F
  F8       1.0000 0.44515  0.13883  0.93674  Biso   1.000  F
  N7       1.0000 0.70031  0.38200  0.59980  Biso   1.000  N
  N8       1.0000 0.30517  0.39020  0.60980  Biso   1.000  N
  C13      1.0000 0.53495  0.19780  0.84330  Biso   1.000  C
  C14      1.0000 0.47272  0.19570  0.84220  Biso   1.000  C
  C15      1.0000 0.33719  0.32840  0.67090  Biso   1.000  C
  C16      1.0000 0.66994  0.32250  0.66570  Biso   1.000  C
  F9       1.0000 0.43749  0.64610  0.43983  Biso   1.000  F
  F10      1.0000 0.55485  0.63883  0.43674  Biso   1.000  F
  N9       1.0000 0.29969  0.88200  0.09980  Biso   1.000  N
  N10      1.0000 0.69483  0.89020  0.10980  Biso   1.000  N
  C17      1.0000 0.46505  0.69780  0.34330  Biso   1.000  C
  C18      1.0000 0.52728  0.69570  0.34220  Biso   1.000  C
  C19      1.0000 0.66281  0.82840  0.17090  Biso   1.000  C
  C20      1.0000 0.33006  0.82250  0.16570  Biso   1.000  C
  F11      1.0000 0.06251  0.35390  0.43983  Biso   1.000  F
  F12      1.0000 0.94515  0.36117  0.43674  Biso   1.000  F
  N11      1.0000 0.20031  0.11800  0.09980  Biso   1.000  N
  N12      1.0000 0.80517  0.10980  0.10980  Biso   1.000  N
  C21      1.0000 0.03495  0.30220  0.34330  Biso   1.000  C
  C22      1.0000 0.97272  0.30430  0.34220  Biso   1.000  C
  C23      1.0000 0.83719  0.17160  0.17090  Biso   1.000  C
  C24      1.0000 0.16994  0.17750  0.16570  Biso   1.000  C
  F13      1.0000 0.06251  0.14610  0.06017  Biso   1.000  F
  F14      1.0000 0.94515  0.13883  0.06326  Biso   1.000  F
  N13      1.0000 0.20031  0.38200  0.40020  Biso   1.000  N
  N14      1.0000 0.80517  0.39020  0.39020  Biso   1.000  N
  C25      1.0000 0.03495  0.19780  0.15670  Biso   1.000  C
  C26      1.0000 0.97272  0.19570  0.15780  Biso   1.000  C
  C27      1.0000 0.83719  0.32840  0.32910  Biso   1.000  C
  C28      1.0000 0.16994  0.32250  0.33430  Biso   1.000  C
  F15      1.0000 0.43749  0.85390  0.06017  Biso   1.000  F
  F16      1.0000 0.55485  0.86117  0.06326  Biso   1.000  F
  N15      1.0000 0.29969  0.61800  0.40020  Biso   1.000  N
  N16      1.0000 0.69483  0.60980  0.39020  Biso   1.000  N
  C29      1.0000 0.46505  0.80220  0.15670  Biso   1.000  C
  C30      1.0000 0.52728  0.80430  0.15780  Biso   1.000  C
  C31      1.0000 0.66281  0.67160  0.32910  Biso   1.000  C
  C32      1.0000 0.33006  0.67750  0.33430  Biso   1.000  C
  Cu1      1.0000 0.25000  0.00000  0.99140  Biso   1.000  Cu
  Cu2      1.0000 0.25000  0.50000  0.50860  Biso   1.000  Cu
  Cu3      1.0000 0.75000  0.00000  0.00860  Biso   1.000  Cu
  Cu4      1.0000 0.75000  0.50000  0.49140  Biso   1.000  Cu
  C33      1.0000 0.63583  0.25000  0.75000  Biso   1.000  C
  C34      1.0000 0.43775  0.25000  0.75000  Biso   1.000  C
  C35      1.0000 0.37190  0.25000  0.75000  Biso   1.000  C
  C36      1.0000 0.56982  0.25000  0.75000  Biso   1.000  C
  C37      1.0000 0.86417  0.75000  0.75000  Biso   1.000  C
  C38      1.0000 0.06225  0.75000  0.75000  Biso   1.000  C
  C39      1.0000 0.12810  0.75000  0.75000  Biso   1.000  C
  C40      1.0000 0.93018  0.75000  0.75000  Biso   1.000  C
  C41      1.0000 0.36417  0.75000  0.25000  Biso   1.000  C
  C42      1.0000 0.56225  0.75000  0.25000  Biso   1.000  C
  C43      1.0000 0.62810  0.75000  0.25000  Biso   1.000  C
  C44      1.0000 0.43018  0.75000  0.25000  Biso   1.000  C
  C45      1.0000 0.13583  0.25000  0.25000  Biso   1.000  C
  C46      1.0000 0.93775  0.25000  0.25000  Biso   1.000  C
  C47      1.0000 0.87190  0.25000  0.25000  Biso   1.000  C
  C48      1.0000 0.06982  0.25000  0.25000  Biso   1.000  C
