data_KINPUU_clean
_audit_creation_date              2014-07-02
_audit_creation_method            'Materials Studio'
_symmetry_space_group_name_H-M    'P1'
_symmetry_Int_Tables_number       1
_symmetry_cell_setting            triclinic
loop_
_symmetry_equiv_pos_as_xyz
  x,y,z
_cell_length_a                    9.0264
_cell_length_b                    15.1030
_cell_length_c                    15.5353
_cell_angle_alpha                 119.0840
_cell_angle_beta                  104.8440
_cell_angle_gamma                 90.0000
loop_
_atom_site_label
_atom_site_type_symbol
_atom_site_fract_x
_atom_site_fract_y
_atom_site_fract_z
_atom_site_U_iso_or_equiv
_atom_site_adp_type
_atom_site_occupancy
Co1    Co    0.51539   0.66716   0.41800   0.01267  Uiso   1.00
H1     H     0.35550   0.57310   0.52980   0.01267  Uiso   1.00
H2     H     0.39610   0.65280   0.71380   0.01267  Uiso   1.00
H3     H     0.68140   0.80200   0.65940   0.01267  Uiso   1.00
H4     H     0.24520   0.78180   0.53940   0.01267  Uiso   1.00
H5     H     0.06800   0.87780   0.48800   0.01267  Uiso   1.00
H6     H     0.35690   0.79900   0.32120   0.01267  Uiso   1.00
H7     H     0.59030   0.44060   0.35360   0.01267  Uiso   1.00
H8     H     0.00090   0.50550   0.33500   0.01267  Uiso   1.00
H9     H     0.87900   0.66280   0.40400   0.01267  Uiso   1.00
H10    H     0.69180   0.94570   0.82160   0.01267  Uiso   1.00
H11    H     0.82050   0.05200   0.99560   0.01267  Uiso   1.00
H12    H     0.70680   0.83540   0.05500   0.01267  Uiso   1.00
H13    H     0.59200   0.72500   0.88000   0.01267  Uiso   1.00
H14    H     0.61200   0.10330   0.15460   0.01267  Uiso   1.00
H15    H     0.58640   0.27570   0.23140   0.01267  Uiso   1.00
H16    H     0.04960   0.34990   0.32640   0.01267  Uiso   1.00
H17    H     0.07530   0.17750   0.24960   0.01267  Uiso   1.00
H18    H     0.90760   0.07950   0.34200   0.01267  Uiso   1.00
H19    H     0.04270   0.01480   0.43660   0.01267  Uiso   1.00
H20    H     0.15790   0.80330   0.19360   0.01267  Uiso   1.00
H21    H     0.03060   0.87260   0.09860   0.01267  Uiso   1.00
C1     C     0.42640   0.63120   0.57980   0.01267  Uiso   1.00
C2     C     0.44870   0.67400   0.68120   0.01267  Uiso   1.00
C3     C     0.60290   0.75509   0.64938   0.01267  Uiso   1.00
C4     C     0.24530   0.79650   0.48780   0.01267  Uiso   1.00
C5     C     0.14740   0.84930   0.46000   0.01267  Uiso   1.00
C6     C     0.30620   0.80530   0.36860   0.01267  Uiso   1.00
C7     C     0.67730   0.47710   0.35780   0.01267  Uiso   1.00
C8     C     0.90450   0.51100   0.34680   0.01267  Uiso   1.00
C9     C     0.83520   0.59780   0.38500   0.01267  Uiso   1.00
C10    C     0.63140   0.82225   0.83450   0.01267  Uiso   1.00
C11    C     0.69840   0.92282   0.86804   0.01267  Uiso   1.00
C12    C     0.77430   0.98635   0.97250   0.01267  Uiso   1.00
C13    C     0.78220   0.95366   0.04192   0.01267  Uiso   1.00
C14    C     0.70830   0.85637   0.00794   0.01267  Uiso   1.00
C15    C     0.63670   0.79106   0.90312   0.01267  Uiso   1.00
C16    C     0.84620   0.12331   0.19442   0.01267  Uiso   1.00
C17    C     0.69980   0.15270   0.18900   0.01267  Uiso   1.00
C18    C     0.68440   0.25600   0.23500   0.01267  Uiso   1.00
C19    C     0.81550   0.32999   0.28658   0.01267  Uiso   1.00
C20    C     0.96190   0.30050   0.29200   0.01267  Uiso   1.00
C21    C     0.97730   0.19720   0.24600   0.01267  Uiso   1.00
C22    C     0.94600   0.97949   0.20638   0.01267  Uiso   1.00
C23    C     0.95630   0.02290   0.31100   0.01267  Uiso   1.00
C24    C     0.03570   0.98350   0.36700   0.01267  Uiso   1.00
C25    C     0.10720   0.89810   0.32420   0.01267  Uiso   1.00
C26    C     0.10570   0.85846   0.22332   0.01267  Uiso   1.00
C27    C     0.02800   0.89943   0.16606   0.01267  Uiso   1.00
N1     N     0.52100   0.68366   0.55912   0.01267  Uiso   1.00
N2     N     0.56380   0.75490   0.72720   0.01267  Uiso   1.00
N3     N     0.34720   0.76635   0.43030   0.01267  Uiso   1.00
N4     N     0.18440   0.85424   0.38248   0.01267  Uiso   1.00
N5     N     0.69360   0.57520   0.39120   0.01267  Uiso   1.00
N6     N     0.79960   0.43452   0.32984   0.01267  Uiso   1.00
N7     N     0.86190   0.01931   0.14702   0.01267  Uiso   1.00
Co2    Co    0.48461   0.24916   0.58200   0.01267  Uiso   1.00
H22    H     0.64450   0.04330   0.47020   0.01267  Uiso   1.00
H23    H     0.60390   0.93900   0.28620   0.01267  Uiso   1.00
H24    H     0.31860   0.14260   0.34060   0.01267  Uiso   1.00
H25    H     0.75480   0.24240   0.46060   0.01267  Uiso   1.00
H26    H     0.93200   0.38980   0.51200   0.01267  Uiso   1.00
H27    H     0.64310   0.47780   0.67880   0.01267  Uiso   1.00
H28    H     0.40970   0.08700   0.64640   0.01267  Uiso   1.00
H29    H     0.99910   0.17050   0.66500   0.01267  Uiso   1.00
H30    H     0.12100   0.25880   0.59600   0.01267  Uiso   1.00
H31    H     0.30820   0.12410   0.17840   0.01267  Uiso   1.00
H32    H     0.17950   0.05640   0.00440   0.01267  Uiso   1.00
H33    H     0.29320   0.78040   0.94500   0.01267  Uiso   1.00
H34    H     0.40800   0.84500   0.12000   0.01267  Uiso   1.00
H35    H     0.38800   0.94870   0.84540   0.01267  Uiso   1.00
H36    H     0.41360   0.04430   0.76860   0.01267  Uiso   1.00
H37    H     0.95040   0.02350   0.67360   0.01267  Uiso   1.00
H38    H     0.92470   0.92790   0.75040   0.01267  Uiso   1.00
H39    H     0.09240   0.73750   0.65800   0.01267  Uiso   1.00
H40    H     0.95730   0.57820   0.56340   0.01267  Uiso   1.00
H41    H     0.84210   0.60970   0.80640   0.01267  Uiso   1.00
H42    H     0.96940   0.77400   0.90140   0.01267  Uiso   1.00
C28    C     0.57360   0.05140   0.42020   0.01267  Uiso   1.00
C29    C     0.55130   0.99280   0.31880   0.01267  Uiso   1.00
C30    C     0.39710   0.10571   0.35062   0.01267  Uiso   1.00
C31    C     0.75470   0.30870   0.51220   0.01267  Uiso   1.00
C32    C     0.85260   0.38930   0.54000   0.01267  Uiso   1.00
C33    C     0.69380   0.43670   0.63140   0.01267  Uiso   1.00
C34    C     0.32270   0.11930   0.64220   0.01267  Uiso   1.00
C35    C     0.09550   0.16420   0.65320   0.01267  Uiso   1.00
C36    C     0.16480   0.21280   0.61500   0.01267  Uiso   1.00
C37    C     0.36860   0.98775   0.16550   0.01267  Uiso   1.00
C38    C     0.30160   0.05478   0.13196   0.01267  Uiso   1.00
C39    C     0.22570   0.01385   0.02750   0.01267  Uiso   1.00
C40    C     0.21780   0.91174   0.95808   0.01267  Uiso   1.00
C41    C     0.29170   0.84843   0.99206   0.01267  Uiso   1.00
C42    C     0.36330   0.88794   0.09688   0.01267  Uiso   1.00
C43    C     0.15380   0.92889   0.80558   0.01267  Uiso   1.00
C44    C     0.30020   0.96370   0.81100   0.01267  Uiso   1.00
C45    C     0.31560   0.02100   0.76500   0.01267  Uiso   1.00
C46    C     0.18450   0.04341   0.71342   0.01267  Uiso   1.00
C47    C     0.03810   0.00850   0.70800   0.01267  Uiso   1.00
C48    C     0.02270   0.95120   0.75400   0.01267  Uiso   1.00
C49    C     0.05400   0.77311   0.79362   0.01267  Uiso   1.00
C50    C     0.04370   0.71190   0.68900   0.01267  Uiso   1.00
C51    C     0.96430   0.61650   0.63300   0.01267  Uiso   1.00
C52    C     0.89280   0.57390   0.67580   0.01267  Uiso   1.00
C53    C     0.89430   0.63514   0.77668   0.01267  Uiso   1.00
C54    C     0.97200   0.73337   0.83394   0.01267  Uiso   1.00
N8     N     0.47900   0.12454   0.44088   0.01267  Uiso   1.00
N9     N     0.43620   0.02770   0.27280   0.01267  Uiso   1.00
N10    N     0.65280   0.33605   0.56970   0.01267  Uiso   1.00
N11    N     0.81560   0.47176   0.61752   0.01267  Uiso   1.00
N12    N     0.30640   0.18400   0.60880   0.01267  Uiso   1.00
N13    N     0.20040   0.10468   0.67016   0.01267  Uiso   1.00
N14    N     0.13810   0.87229   0.85298   0.01267  Uiso   1.00
H43    H     0.85250   0.23120   0.82700   0.01267  Uiso   1.00
H44    H     0.87810   0.34400   0.85220   0.01267  Uiso   1.00
H45    H     0.84900   0.34000   0.98960   0.01267  Uiso   1.00
H46    H     0.70920   0.38600   0.94960   0.01267  Uiso   1.00
H47    H     0.56070   0.21500   0.85160   0.01267  Uiso   1.00
H48    H     0.69700   0.18050   0.90980   0.01267  Uiso   1.00
H49    H     0.61860   0.36240   0.05700   0.01267  Uiso   1.00
H50    H     0.61860   0.25870   0.05780   0.01267  Uiso   1.00
H51    H     0.14750   0.40420   0.17300   0.01267  Uiso   1.00
H52    H     0.12190   0.49180   0.14780   0.01267  Uiso   1.00
H53    H     0.15100   0.35040   0.01040   0.01267  Uiso   1.00
H54    H     0.29080   0.43640   0.05040   0.01267  Uiso   1.00
H55    H     0.43930   0.36340   0.14840   0.01267  Uiso   1.00
H56    H     0.30300   0.27070   0.09020   0.01267  Uiso   1.00
H57    H     0.38140   0.30540   0.94300   0.01267  Uiso   1.00
H58    H     0.38140   0.20090   0.94220   0.01267  Uiso   1.00
C55    C     0.69620   0.26380   0.74320   0.01267  Uiso   1.00
C56    C     0.80000   0.28980   0.83760   0.01267  Uiso   1.00
C57    C     0.75760   0.32460   0.93280   0.01267  Uiso   1.00
C58    C     0.64500   0.23810   0.91440   0.01267  Uiso   1.00
C59    C     0.58070   0.28950   0.01580   0.01267  Uiso   1.00
C60    C     0.30380   0.52060   0.25680   0.01267  Uiso   1.00
C61    C     0.20000   0.45220   0.16240   0.01267  Uiso   1.00
C62    C     0.24240   0.39180   0.06720   0.01267  Uiso   1.00
C63    C     0.35500   0.32370   0.08560   0.01267  Uiso   1.00
C64    C     0.41930   0.27370   0.98420   0.01267  Uiso   1.00
O1     O     0.60620   0.32706   0.74212   0.01267  Uiso   1.00
O2     O     0.68180   0.18019   0.66338   0.01267  Uiso   1.00
O3     O     0.39380   0.58494   0.25788   0.01267  Uiso   1.00
O4     O     0.31820   0.51681   0.33662   0.01267  Uiso   1.00
