data_image0
_cell_length_a       8.0722
_cell_length_b       21.2247
_cell_length_c       22.7899
_cell_angle_alpha    82.622
_cell_angle_beta     82.404
_cell_angle_gamma    80.079

_symmetry_space_group_name_H-M    "P 1"
_symmetry_int_tables_number       1

loop_
  _symmetry_equiv_pos_as_xyz
  'x, y, z'

loop_
  _atom_site_label
  _atom_site_occupancy
  _atom_site_fract_x
  _atom_site_fract_y
  _atom_site_fract_z
  _atom_site_thermal_displace_type
  _atom_site_B_iso_or_equiv
  _atom_site_type_symbol
  Er1      1.0000 0.19764  0.57546  0.71577  Biso   1.000  Er
  Er2      1.0000 0.61348  0.52890  0.56690  Biso   1.000  Er
  Er3      1.0000 0.53561  0.75095  0.90428  Biso   1.000  Er
  Er4      1.0000 0.76040  0.90639  0.96361  Biso   1.000  Er
  O1       1.0000 0.20410  0.46564  0.70424  Biso   1.000  O
  O2       1.0000 0.43080  0.49892  0.65658  Biso   1.000  O
  O3       1.0000 0.43580  0.46230  0.54172  Biso   1.000  O
  O4       1.0000 0.30720  0.39153  0.51070  Biso   1.000  O
  O5       1.0000 0.35020  0.19276  0.02302  Biso   1.000  O
  O6       1.0000 0.52280  0.26200  0.98832  Biso   1.000  O
  O7       1.0000 0.05570  0.16899  0.98635  Biso   1.000  O
  O8       1.0000 0.95300  0.27321  0.97838  Biso   1.000  O
  O9       1.0000 0.38800  0.64430  0.68610  Biso   1.000  O
  O10      1.0000 0.62140  0.60291  0.63073  Biso   1.000  O
  O11      1.0000 0.50100  0.73011  0.81297  Biso   1.000  O
  O12      1.0000 0.62730  0.63928  0.77604  Biso   1.000  O
  O13      1.0000 0.14240  0.60690  0.62102  Biso   1.000  O
  O14      1.0000 0.37120  0.60337  0.55293  Biso   1.000  O
  O15      1.0000 0.25120  0.57880  0.39781  Biso   1.000  O
  O16      1.0000 0.17450  0.53923  0.48985  Biso   1.000  O
  O17      1.0000 0.44100  0.85763  0.87908  Biso   1.000  O
  O18      1.0000 0.49040  0.93187  0.93352  Biso   1.000  O
  O19      1.0000 0.38900  0.07858  0.93963  Biso   1.000  O
  O20      1.0000 0.16510  0.03021  0.96514  Biso   1.000  O
  O21      1.0000 0.76350  0.78449  0.84353  Biso   1.000  O
  O22      1.0000 0.83980  0.86907  0.87606  Biso   1.000  O
  O23      1.0000 0.06770  0.66702  0.75321  Biso   1.000  O
  O24      1.0000 0.08020  0.69832  0.84209  Biso   1.000  O
  F1       1.0000 0.84330  0.24906  0.71340  Biso   1.000  F
  F2       1.0000 0.82660  0.19868  0.80164  Biso   1.000  F
  F3       1.0000 0.73230  0.30013  0.78794  Biso   1.000  F
  F4       1.0000 0.71430  0.14247  0.70456  Biso   1.000  F
  F5       1.0000 0.44470  0.14690  0.72759  Biso   1.000  F
  F6       1.0000 0.61120  0.12007  0.79566  Biso   1.000  F
  F7       1.0000 0.56660  0.80407  0.48986  Biso   1.000  F
  F8       1.0000 0.53740  0.89067  0.53174  Biso   1.000  F
  F9       1.0000 0.69530  0.88135  0.44852  Biso   1.000  F
  F10      1.0000 0.99060  0.88823  0.48298  Biso   1.000  F
  F11      1.0000 0.81900  0.92843  0.55392  Biso   1.000  F
  F12      1.0000 0.02850  0.85472  0.57399  Biso   1.000  F
  F13      1.0000 0.37630  0.03543  0.64858  Biso   1.000  F
  F14      1.0000 0.46340  0.93498  0.66857  Biso   1.000  F
  F15      1.0000 0.30280  0.96761  0.59861  Biso   1.000  F
  F16      1.0000 0.04310  0.07288  0.65079  Biso   1.000  F
  F17      1.0000 0.88640  0.02047  0.71647  Biso   1.000  F
  F18      1.0000 0.96980  0.98618  0.63096  Biso   1.000  F
  C1       1.0000 0.56600  0.23151  0.75622  Biso   1.000  C
  C2       1.0000 0.50880  0.27654  0.70212  Biso   1.000  C
  C3       1.0000 0.44960  0.34139  0.70915  Biso   1.000  C
  H1       1.0000 0.43850  0.35510  0.74680  Biso   1.000  H
  C4       1.0000 0.40730  0.38567  0.66114  Biso   1.000  C
  C5       1.0000 0.41510  0.36441  0.60470  Biso   1.000  C
  C6       1.0000 0.46780  0.29986  0.59860  Biso   1.000  C
  H2       1.0000 0.47010  0.28550  0.56160  Biso   1.000  H
  C7       1.0000 0.51720  0.25617  0.64552  Biso   1.000  C
  H3       1.0000 0.55590  0.21330  0.63970  Biso   1.000  H
  C8       1.0000 0.34550  0.45443  0.67317  Biso   1.000  C
  C9       1.0000 0.37980  0.40847  0.54995  Biso   1.000  C
  C10      1.0000 0.43780  0.23933  0.81179  Biso   1.000  C
  C11      1.0000 0.48480  0.23308  0.86961  Biso   1.000  C
  H4       1.0000 0.59830  0.22980  0.87500  Biso   1.000  H
  C12      1.0000 0.36350  0.23167  0.91890  Biso   1.000  C
  C13      1.0000 0.19370  0.23568  0.91196  Biso   1.000  C
  C14      1.0000 0.14470  0.24634  0.85454  Biso   1.000  C
  H5       1.0000 0.03040  0.25250  0.84930  Biso   1.000  H
  C15      1.0000 0.26550  0.24775  0.80513  Biso   1.000  C
  H6       1.0000 0.23130  0.25440  0.76710  Biso   1.000  H
  C16      1.0000 0.41730  0.22762  0.97917  Biso   1.000  C
  C17      1.0000 0.05860  0.22660  0.96336  Biso   1.000  C
  C18      1.0000 0.74210  0.24550  0.76497  Biso   1.000  C
  C19      1.0000 0.58500  0.15923  0.74581  Biso   1.000  C
  C20      1.0000 0.80220  0.82088  0.53631  Biso   1.000  C
  C21      1.0000 0.72730  0.79477  0.59886  Biso   1.000  C
  C22      1.0000 0.66390  0.73733  0.60349  Biso   1.000  C
  H7       1.0000 0.66160  0.71850  0.56900  Biso   1.000  H
  C23      1.0000 0.60370  0.70698  0.65819  Biso   1.000  C
  C24      1.0000 0.60890  0.73563  0.71042  Biso   1.000  C
  C25      1.0000 0.66480  0.79352  0.70529  Biso   1.000  C
  H8       1.0000 0.66220  0.81330  0.73960  Biso   1.000  H
  C26      1.0000 0.72580  0.82432  0.65073  Biso   1.000  C
  H9       1.0000 0.76450  0.86340  0.64880  Biso   1.000  H
  C27      1.0000 0.53220  0.64601  0.65878  Biso   1.000  C
  C28      1.0000 0.57530  0.69898  0.77100  Biso   1.000  C
  C29      1.0000 0.91690  0.76442  0.50818  Biso   1.000  C
  C30      1.0000 0.01780  0.72129  0.54571  Biso   1.000  C
  H10      1.0000 0.02140  0.73020  0.58440  Biso   1.000  H
  C31      1.0000 0.11280  0.66539  0.52601  Biso   1.000  C
  C32      1.0000 0.10680  0.65149  0.46817  Biso   1.000  C
  C33      1.0000 0.01670  0.69635  0.42941  Biso   1.000  C
  H11      1.0000 0.01920  0.68850  0.39010  Biso   1.000  H
  C34      1.0000 0.92300  0.75280  0.44844  Biso   1.000  C
  H12      1.0000 0.86470  0.78270  0.42190  Biso   1.000  H
  C35      1.0000 0.21820  0.62124  0.56961  Biso   1.000  C
  C36      1.0000 0.18120  0.58682  0.45026  Biso   1.000  C
  C37      1.0000 0.64900  0.85012  0.50080  Biso   1.000  C
  C38      1.0000 0.90970  0.87396  0.53711  Biso   1.000  C
  C39      1.0000 0.17400  0.97220  0.69920  Biso   1.000  C
  C40      1.0000 0.21530  0.99573  0.75665  Biso   1.000  C
  C41      1.0000 0.31040  0.95129  0.79444  Biso   1.000  C
  H13      1.0000 0.35150  0.91040  0.78310  Biso   1.000  H
  C42      1.0000 0.34560  0.96615  0.84859  Biso   1.000  C
  C43      1.0000 0.28390  0.02854  0.86485  Biso   1.000  C
  C44      1.0000 0.19340  0.07386  0.82636  Biso   1.000  C
  H14      1.0000 0.15490  0.11520  0.83680  Biso   1.000  H
  C45      1.0000 0.16020  0.05761  0.77232  Biso   1.000  C
  H15      1.0000 0.10090  0.08830  0.74660  Biso   1.000  H
  C46      1.0000 0.43360  0.91464  0.88964  Biso   1.000  C
  C47      1.0000 0.28410  0.04590  0.92683  Biso   1.000  C
  C48      1.0000 0.13550  0.90297  0.71528  Biso   1.000  C
  C49      1.0000 0.02100  0.89257  0.76539  Biso   1.000  C
  H16      1.0000 0.96530  0.92770  0.78460  Biso   1.000  H
  C50      1.0000 0.98690  0.83159  0.78768  Biso   1.000  C
  C51      1.0000 0.07120  0.77801  0.75888  Biso   1.000  C
  C52      1.0000 0.17680  0.78863  0.70647  Biso   1.000  C
  H17      1.0000 0.22640  0.75400  0.68560  Biso   1.000  H
  C53      1.0000 0.21020  0.85021  0.68440  Biso   1.000  C
  H18      1.0000 0.28160  0.85620  0.64930  Biso   1.000  H
  C54      1.0000 0.85570  0.82641  0.83989  Biso   1.000  C
  C55      1.0000 0.07030  0.70918  0.78657  Biso   1.000  C
  C56      1.0000 0.32990  0.97761  0.65293  Biso   1.000  C
  C57      1.0000 0.01840  0.01360  0.67392  Biso   1.000  C
  Er5      1.0000 0.80236  0.42454  0.28423  Biso   1.000  Er
  Er6      1.0000 0.38652  0.47110  0.43310  Biso   1.000  Er
  Er7      1.0000 0.46439  0.24905  0.09572  Biso   1.000  Er
  Er8      1.0000 0.23960  0.09361  0.03639  Biso   1.000  Er
  O25      1.0000 0.79590  0.53436  0.29576  Biso   1.000  O
  O26      1.0000 0.56920  0.50108  0.34342  Biso   1.000  O
  O27      1.0000 0.56420  0.53770  0.45828  Biso   1.000  O
  O28      1.0000 0.69280  0.60847  0.48930  Biso   1.000  O
  O29      1.0000 0.64980  0.80724  0.97698  Biso   1.000  O
  O30      1.0000 0.47720  0.73800  0.01168  Biso   1.000  O
  O31      1.0000 0.94430  0.83101  0.01365  Biso   1.000  O
  O32      1.0000 0.04700  0.72679  0.02162  Biso   1.000  O
  O33      1.0000 0.61200  0.35570  0.31390  Biso   1.000  O
  O34      1.0000 0.37860  0.39709  0.36927  Biso   1.000  O
  O35      1.0000 0.49900  0.26989  0.18703  Biso   1.000  O
  O36      1.0000 0.37270  0.36072  0.22396  Biso   1.000  O
  O37      1.0000 0.85760  0.39310  0.37898  Biso   1.000  O
  O38      1.0000 0.62880  0.39663  0.44707  Biso   1.000  O
  O39      1.0000 0.74880  0.42120  0.60219  Biso   1.000  O
  O40      1.0000 0.82550  0.46077  0.51015  Biso   1.000  O
  O41      1.0000 0.55900  0.14237  0.12092  Biso   1.000  O
  O42      1.0000 0.50960  0.06813  0.06648  Biso   1.000  O
  O43      1.0000 0.61100  0.92142  0.06037  Biso   1.000  O
  O44      1.0000 0.83490  0.96979  0.03486  Biso   1.000  O
  O45      1.0000 0.23650  0.21551  0.15647  Biso   1.000  O
  O46      1.0000 0.16020  0.13093  0.12394  Biso   1.000  O
  O47      1.0000 0.93230  0.33298  0.24679  Biso   1.000  O
  O48      1.0000 0.91980  0.30168  0.15791  Biso   1.000  O
  F19      1.0000 0.15670  0.75094  0.28660  Biso   1.000  F
  F20      1.0000 0.17340  0.80132  0.19836  Biso   1.000  F
  F21      1.0000 0.26770  0.69987  0.21206  Biso   1.000  F
  F22      1.0000 0.28570  0.85753  0.29544  Biso   1.000  F
  F23      1.0000 0.55530  0.85310  0.27241  Biso   1.000  F
  F24      1.0000 0.38880  0.87993  0.20434  Biso   1.000  F
  F25      1.0000 0.43340  0.19593  0.51014  Biso   1.000  F
  F26      1.0000 0.46260  0.10933  0.46826  Biso   1.000  F
  F27      1.0000 0.30470  0.11865  0.55148  Biso   1.000  F
  F28      1.0000 0.00940  0.11177  0.51702  Biso   1.000  F
  F29      1.0000 0.18100  0.07157  0.44608  Biso   1.000  F
  F30      1.0000 0.97150  0.14528  0.42601  Biso   1.000  F
  F31      1.0000 0.62370  0.96457  0.35142  Biso   1.000  F
  F32      1.0000 0.53660  0.06502  0.33143  Biso   1.000  F
  F33      1.0000 0.69720  0.03239  0.40139  Biso   1.000  F
  F34      1.0000 0.95690  0.92712  0.34921  Biso   1.000  F
  F35      1.0000 0.11360  0.97953  0.28353  Biso   1.000  F
  F36      1.0000 0.03020  0.01382  0.36904  Biso   1.000  F
  C58      1.0000 0.43400  0.76849  0.24378  Biso   1.000  C
  C59      1.0000 0.49120  0.72346  0.29788  Biso   1.000  C
  C60      1.0000 0.55040  0.65861  0.29085  Biso   1.000  C
  H19      1.0000 0.56150  0.64490  0.25320  Biso   1.000  H
  C61      1.0000 0.59270  0.61433  0.33886  Biso   1.000  C
  C62      1.0000 0.58490  0.63559  0.39530  Biso   1.000  C
  C63      1.0000 0.53220  0.70014  0.40140  Biso   1.000  C
  H20      1.0000 0.52990  0.71450  0.43840  Biso   1.000  H
  C64      1.0000 0.48280  0.74383  0.35448  Biso   1.000  C
  H21      1.0000 0.44410  0.78670  0.36030  Biso   1.000  H
  C65      1.0000 0.65450  0.54557  0.32683  Biso   1.000  C
  C66      1.0000 0.62020  0.59153  0.45005  Biso   1.000  C
  C67      1.0000 0.56220  0.76067  0.18821  Biso   1.000  C
  C68      1.0000 0.51520  0.76692  0.13039  Biso   1.000  C
  H22      1.0000 0.40170  0.77020  0.12500  Biso   1.000  H
  C69      1.0000 0.63650  0.76833  0.08110  Biso   1.000  C
  C70      1.0000 0.80630  0.76432  0.08804  Biso   1.000  C
  C71      1.0000 0.85530  0.75366  0.14546  Biso   1.000  C
  H23      1.0000 0.96960  0.74750  0.15070  Biso   1.000  H
  C72      1.0000 0.73450  0.75225  0.19487  Biso   1.000  C
  H24      1.0000 0.76870  0.74560  0.23290  Biso   1.000  H
  C73      1.0000 0.58270  0.77238  0.02083  Biso   1.000  C
  C74      1.0000 0.94140  0.77340  0.03664  Biso   1.000  C
  C75      1.0000 0.25790  0.75450  0.23503  Biso   1.000  C
  C76      1.0000 0.41500  0.84077  0.25419  Biso   1.000  C
  C77      1.0000 0.19780  0.17912  0.46369  Biso   1.000  C
  C78      1.0000 0.27270  0.20523  0.40114  Biso   1.000  C
  C79      1.0000 0.33610  0.26267  0.39651  Biso   1.000  C
  H25      1.0000 0.33840  0.28150  0.43100  Biso   1.000  H
  C80      1.0000 0.39630  0.29302  0.34181  Biso   1.000  C
  C81      1.0000 0.39110  0.26437  0.28958  Biso   1.000  C
  C82      1.0000 0.33520  0.20648  0.29471  Biso   1.000  C
  H26      1.0000 0.33780  0.18670  0.26040  Biso   1.000  H
  C83      1.0000 0.27420  0.17568  0.34927  Biso   1.000  C
  H27      1.0000 0.23550  0.13660  0.35120  Biso   1.000  H
  C84      1.0000 0.46780  0.35399  0.34122  Biso   1.000  C
  C85      1.0000 0.42470  0.30102  0.22900  Biso   1.000  C
  C86      1.0000 0.08310  0.23558  0.49182  Biso   1.000  C
  C87      1.0000 0.98220  0.27871  0.45429  Biso   1.000  C
  H28      1.0000 0.97860  0.26980  0.41560  Biso   1.000  H
  C88      1.0000 0.88720  0.33461  0.47399  Biso   1.000  C
  C89      1.0000 0.89320  0.34851  0.53183  Biso   1.000  C
  C90      1.0000 0.98330  0.30365  0.57059  Biso   1.000  C
  H29      1.0000 0.98080  0.31150  0.60990  Biso   1.000  H
  C91      1.0000 0.07700  0.24720  0.55156  Biso   1.000  C
  H30      1.0000 0.13530  0.21730  0.57810  Biso   1.000  H
  C92      1.0000 0.78180  0.37876  0.43039  Biso   1.000  C
  C93      1.0000 0.81880  0.41318  0.54974  Biso   1.000  C
  C94      1.0000 0.35100  0.14988  0.49920  Biso   1.000  C
  C95      1.0000 0.09030  0.12604  0.46289  Biso   1.000  C
  C96      1.0000 0.82600  0.02780  0.30080  Biso   1.000  C
  C97      1.0000 0.78470  0.00427  0.24335  Biso   1.000  C
  C98      1.0000 0.68960  0.04871  0.20556  Biso   1.000  C
  H31      1.0000 0.64850  0.08960  0.21690  Biso   1.000  H
  C99      1.0000 0.65440  0.03385  0.15141  Biso   1.000  C
  C100     1.0000 0.71610  0.97146  0.13515  Biso   1.000  C
  C101     1.0000 0.80660  0.92614  0.17364  Biso   1.000  C
  H32      1.0000 0.84510  0.88480  0.16320  Biso   1.000  H
  C102     1.0000 0.83980  0.94239  0.22768  Biso   1.000  C
  H33      1.0000 0.89910  0.91170  0.25340  Biso   1.000  H
  C103     1.0000 0.56640  0.08536  0.11036  Biso   1.000  C
  C104     1.0000 0.71590  0.95410  0.07317  Biso   1.000  C
  C105     1.0000 0.86450  0.09703  0.28472  Biso   1.000  C
  C106     1.0000 0.97900  0.10743  0.23461  Biso   1.000  C
  H34      1.0000 0.03470  0.07230  0.21540  Biso   1.000  H
  C107     1.0000 0.01310  0.16841  0.21232  Biso   1.000  C
  C108     1.0000 0.92880  0.22199  0.24112  Biso   1.000  C
  C109     1.0000 0.82320  0.21137  0.29353  Biso   1.000  C
  H35      1.0000 0.77360  0.24600  0.31440  Biso   1.000  H
  C110     1.0000 0.78980  0.14979  0.31560  Biso   1.000  C
  H36      1.0000 0.71840  0.14380  0.35070  Biso   1.000  H
  C111     1.0000 0.14430  0.17359  0.16011  Biso   1.000  C
  C112     1.0000 0.92970  0.29082  0.21343  Biso   1.000  C
  C113     1.0000 0.67010  0.02239  0.34707  Biso   1.000  C
  C114     1.0000 0.98160  0.98640  0.32608  Biso   1.000  C
