data_KIPKEB_clean
_audit_creation_date              2014-07-02
_audit_creation_method            'Materials Studio'
_symmetry_space_group_name_H-M    'P1'
_symmetry_Int_Tables_number       1
_symmetry_cell_setting            triclinic
loop_
_symmetry_equiv_pos_as_xyz
  x,y,z
_cell_length_a                    8.0954
_cell_length_b                    21.2590
_cell_length_c                    22.8149
_cell_angle_alpha                 82.5200
_cell_angle_beta                  82.3940
_cell_angle_gamma                 79.9720
loop_
_atom_site_label
_atom_site_type_symbol
_atom_site_fract_x
_atom_site_fract_y
_atom_site_fract_z
_atom_site_U_iso_or_equiv
_atom_site_adp_type
_atom_site_occupancy
Y1     Y     0.80207   0.42460   0.28400   0.01267  Uiso   1.00
Y2     Y     0.38643   0.47118   0.43309   0.01267  Uiso   1.00
Y3     Y     0.46433   0.24909   0.09561   0.01267  Uiso   1.00
Y4     Y     0.23957   0.09340   0.03635   0.01267  Uiso   1.00
Y5     Y     0.19793   0.57540   0.71600   0.01267  Uiso   1.00
Y6     Y     0.61357   0.52882   0.56691   0.01267  Uiso   1.00
Y7     Y     0.53567   0.75091   0.90439   0.01267  Uiso   1.00
Y8     Y     0.76043   0.90660   0.96365   0.01267  Uiso   1.00
H1     H     0.55920   0.64590   0.25340   0.01267  Uiso   1.00
H2     H     0.53340   0.71450   0.43790   0.01267  Uiso   1.00
H3     H     0.44310   0.78580   0.36060   0.01267  Uiso   1.00
H4     H     0.40260   0.76940   0.12550   0.01267  Uiso   1.00
H5     H     0.96840   0.74790   0.15130   0.01267  Uiso   1.00
H6     H     0.76770   0.74630   0.23300   0.01267  Uiso   1.00
H7     H     0.33880   0.28230   0.43070   0.01267  Uiso   1.00
H8     H     0.33660   0.18640   0.26030   0.01267  Uiso   1.00
H9     H     0.23690   0.13730   0.35150   0.01267  Uiso   1.00
H10    H     0.97980   0.27060   0.41590   0.01267  Uiso   1.00
H11    H     0.98190   0.31090   0.60970   0.01267  Uiso   1.00
H12    H     0.13750   0.21720   0.57740   0.01267  Uiso   1.00
H13    H     0.64920   0.08970   0.21680   0.01267  Uiso   1.00
H14    H     0.84440   0.88560   0.16370   0.01267  Uiso   1.00
H15    H     0.89880   0.91210   0.25320   0.01267  Uiso   1.00
H16    H     0.03260   0.07290   0.21490   0.01267  Uiso   1.00
H17    H     0.77410   0.24560   0.31410   0.01267  Uiso   1.00
H18    H     0.71860   0.14400   0.35050   0.01267  Uiso   1.00
H19    H     0.44080   0.35410   0.74660   0.01267  Uiso   1.00
H20    H     0.46660   0.28550   0.56210   0.01267  Uiso   1.00
H21    H     0.55690   0.21420   0.63940   0.01267  Uiso   1.00
H22    H     0.59740   0.23060   0.87450   0.01267  Uiso   1.00
H23    H     0.03160   0.25210   0.84870   0.01267  Uiso   1.00
H24    H     0.23230   0.25370   0.76700   0.01267  Uiso   1.00
H25    H     0.66120   0.71770   0.56930   0.01267  Uiso   1.00
H26    H     0.66340   0.81360   0.73970   0.01267  Uiso   1.00
H27    H     0.76310   0.86270   0.64850   0.01267  Uiso   1.00
H28    H     0.02020   0.72940   0.58410   0.01267  Uiso   1.00
H29    H     0.01810   0.68910   0.39030   0.01267  Uiso   1.00
H30    H     0.86250   0.78280   0.42260   0.01267  Uiso   1.00
H31    H     0.35080   0.91030   0.78320   0.01267  Uiso   1.00
H32    H     0.15560   0.11440   0.83630   0.01267  Uiso   1.00
H33    H     0.10120   0.08790   0.74680   0.01267  Uiso   1.00
H34    H     0.96740   0.92710   0.78510   0.01267  Uiso   1.00
H35    H     0.22590   0.75440   0.68590   0.01267  Uiso   1.00
H36    H     0.28140   0.85600   0.64950   0.01267  Uiso   1.00
C1     C     0.43380   0.76889   0.24398   0.01267  Uiso   1.00
C2     C     0.49120   0.72384   0.29796   0.01267  Uiso   1.00
C3     C     0.54910   0.65931   0.29105   0.01267  Uiso   1.00
C4     C     0.59240   0.61438   0.33877   0.01267  Uiso   1.00
C5     C     0.58440   0.63558   0.39496   0.01267  Uiso   1.00
C6     C     0.53340   0.70010   0.40117   0.01267  Uiso   1.00
C7     C     0.48320   0.74318   0.35456   0.01267  Uiso   1.00
C8     C     0.65400   0.54608   0.32638   0.01267  Uiso   1.00
C9     C     0.62000   0.59130   0.44975   0.01267  Uiso   1.00
C10    C     0.56300   0.76097   0.18803   0.01267  Uiso   1.00
C11    C     0.51560   0.76678   0.13079   0.01267  Uiso   1.00
C12    C     0.63730   0.76859   0.08142   0.01267  Uiso   1.00
C13    C     0.80630   0.76440   0.08852   0.01267  Uiso   1.00
C14    C     0.85450   0.75400   0.14598   0.01267  Uiso   1.00
C15    C     0.73400   0.75275   0.19500   0.01267  Uiso   1.00
C16    C     0.58300   0.77226   0.02079   0.01267  Uiso   1.00
C17    C     0.94140   0.77349   0.03703   0.01267  Uiso   1.00
C18    C     0.25760   0.75557   0.23478   0.01267  Uiso   1.00
C19    C     0.41570   0.84134   0.25399   0.01267  Uiso   1.00
C20    C     0.19860   0.17963   0.46351   0.01267  Uiso   1.00
C21    C     0.27240   0.20541   0.40102   0.01267  Uiso   1.00
C22    C     0.33630   0.26337   0.39636   0.01267  Uiso   1.00
C23    C     0.39530   0.29278   0.34206   0.01267  Uiso   1.00
C24    C     0.39050   0.26496   0.28947   0.01267  Uiso   1.00
C25    C     0.33450   0.20635   0.29442   0.01267  Uiso   1.00
C26    C     0.27490   0.17648   0.34933   0.01267  Uiso   1.00
C27    C     0.46680   0.35392   0.34109   0.01267  Uiso   1.00
C28    C     0.42460   0.30184   0.22914   0.01267  Uiso   1.00
C29    C     0.08340   0.23576   0.49174   0.01267  Uiso   1.00
C30    C     0.98270   0.27924   0.45465   0.01267  Uiso   1.00
C31    C     0.88730   0.33464   0.47402   0.01267  Uiso   1.00
C32    C     0.89330   0.34820   0.53210   0.01267  Uiso   1.00
C33    C     0.98400   0.30329   0.57036   0.01267  Uiso   1.00
C34    C     0.07830   0.24705   0.55103   0.01267  Uiso   1.00
C35    C     0.78170   0.37841   0.43079   0.01267  Uiso   1.00
C36    C     0.81950   0.41271   0.54991   0.01267  Uiso   1.00
C37    C     0.34960   0.15049   0.49878   0.01267  Uiso   1.00
C38    C     0.09160   0.12664   0.46294   0.01267  Uiso   1.00
C39    C     0.82590   0.02835   0.30055   0.01267  Uiso   1.00
C40    C     0.78540   0.00474   0.24372   0.01267  Uiso   1.00
C41    C     0.69060   0.04877   0.20576   0.01267  Uiso   1.00
C42    C     0.65550   0.03340   0.15132   0.01267  Uiso   1.00
C43    C     0.71660   0.97138   0.13536   0.01267  Uiso   1.00
C44    C     0.80590   0.92704   0.17396   0.01267  Uiso   1.00
C45    C     0.83950   0.94296   0.22768   0.01267  Uiso   1.00
C46    C     0.56790   0.08525   0.11053   0.01267  Uiso   1.00
C47    C     0.71670   0.95410   0.07354   0.01267  Uiso   1.00
C48    C     0.86440   0.09714   0.28499   0.01267  Uiso   1.00
C49    C     0.97830   0.10778   0.23445   0.01267  Uiso   1.00
C50    C     0.01300   0.16835   0.21258   0.01267  Uiso   1.00
C51    C     0.92850   0.22195   0.24101   0.01267  Uiso   1.00
C52    C     0.82360   0.21098   0.29332   0.01267  Uiso   1.00
C53    C     0.79010   0.14982   0.31553   0.01267  Uiso   1.00
C54    C     0.14520   0.17311   0.15982   0.01267  Uiso   1.00
C55    C     0.93010   0.28994   0.21300   0.01267  Uiso   1.00
C56    C     0.67100   0.02264   0.34703   0.01267  Uiso   1.00
C57    C     0.98210   0.98676   0.32643   0.01267  Uiso   1.00
C58    C     0.56620   0.23111   0.75602   0.01267  Uiso   1.00
C59    C     0.50880   0.27616   0.70204   0.01267  Uiso   1.00
C60    C     0.45090   0.34069   0.70895   0.01267  Uiso   1.00
C61    C     0.40760   0.38562   0.66123   0.01267  Uiso   1.00
C62    C     0.41560   0.36442   0.60504   0.01267  Uiso   1.00
C63    C     0.46660   0.29990   0.59883   0.01267  Uiso   1.00
C64    C     0.51680   0.25682   0.64544   0.01267  Uiso   1.00
C65    C     0.34600   0.45392   0.67362   0.01267  Uiso   1.00
C66    C     0.38000   0.40870   0.55025   0.01267  Uiso   1.00
C67    C     0.43700   0.23903   0.81197   0.01267  Uiso   1.00
C68    C     0.48440   0.23322   0.86921   0.01267  Uiso   1.00
C69    C     0.36270   0.23141   0.91858   0.01267  Uiso   1.00
C70    C     0.19370   0.23560   0.91148   0.01267  Uiso   1.00
C71    C     0.14550   0.24600   0.85402   0.01267  Uiso   1.00
C72    C     0.26600   0.24725   0.80500   0.01267  Uiso   1.00
C73    C     0.41700   0.22774   0.97921   0.01267  Uiso   1.00
C74    C     0.05860   0.22651   0.96297   0.01267  Uiso   1.00
C75    C     0.74240   0.24443   0.76522   0.01267  Uiso   1.00
C76    C     0.58430   0.15866   0.74601   0.01267  Uiso   1.00
C77    C     0.80140   0.82037   0.53649   0.01267  Uiso   1.00
C78    C     0.72760   0.79459   0.59898   0.01267  Uiso   1.00
C79    C     0.66370   0.73663   0.60364   0.01267  Uiso   1.00
C80    C     0.60470   0.70722   0.65794   0.01267  Uiso   1.00
C81    C     0.60950   0.73504   0.71053   0.01267  Uiso   1.00
C82    C     0.66550   0.79365   0.70558   0.01267  Uiso   1.00
C83    C     0.72510   0.82352   0.65067   0.01267  Uiso   1.00
C84    C     0.53320   0.64608   0.65891   0.01267  Uiso   1.00
C85    C     0.57540   0.69816   0.77086   0.01267  Uiso   1.00
C86    C     0.91660   0.76424   0.50826   0.01267  Uiso   1.00
C87    C     0.01730   0.72076   0.54535   0.01267  Uiso   1.00
C88    C     0.11270   0.66536   0.52598   0.01267  Uiso   1.00
C89    C     0.10670   0.65180   0.46790   0.01267  Uiso   1.00
C90    C     0.01600   0.69671   0.42964   0.01267  Uiso   1.00
C91    C     0.92170   0.75295   0.44897   0.01267  Uiso   1.00
C92    C     0.21830   0.62159   0.56921   0.01267  Uiso   1.00
C93    C     0.18050   0.58729   0.45009   0.01267  Uiso   1.00
C94    C     0.65040   0.84951   0.50122   0.01267  Uiso   1.00
C95    C     0.90840   0.87336   0.53706   0.01267  Uiso   1.00
C96    C     0.17410   0.97165   0.69945   0.01267  Uiso   1.00
C97    C     0.21460   0.99526   0.75628   0.01267  Uiso   1.00
C98    C     0.30940   0.95123   0.79424   0.01267  Uiso   1.00
C99    C     0.34450   0.96660   0.84868   0.01267  Uiso   1.00
C100   C     0.28340   0.02862   0.86464   0.01267  Uiso   1.00
C101   C     0.19410   0.07296   0.82604   0.01267  Uiso   1.00
C102   C     0.16050   0.05704   0.77232   0.01267  Uiso   1.00
C103   C     0.43210   0.91475   0.88947   0.01267  Uiso   1.00
C104   C     0.28330   0.04590   0.92646   0.01267  Uiso   1.00
C105   C     0.13560   0.90286   0.71501   0.01267  Uiso   1.00
C106   C     0.02170   0.89222   0.76555   0.01267  Uiso   1.00
C107   C     0.98700   0.83165   0.78742   0.01267  Uiso   1.00
C108   C     0.07150   0.77805   0.75899   0.01267  Uiso   1.00
C109   C     0.17640   0.78902   0.70668   0.01267  Uiso   1.00
C110   C     0.20990   0.85018   0.68447   0.01267  Uiso   1.00
C111   C     0.85480   0.82689   0.84018   0.01267  Uiso   1.00
C112   C     0.06990   0.71006   0.78700   0.01267  Uiso   1.00
C113   C     0.32900   0.97736   0.65297   0.01267  Uiso   1.00
C114   C     0.01790   0.01324   0.67357   0.01267  Uiso   1.00
O1     O     0.79480   0.53492   0.29527   0.01267  Uiso   1.00
O2     O     0.56930   0.50121   0.34328   0.01267  Uiso   1.00
O3     O     0.56410   0.53809   0.45804   0.01267  Uiso   1.00
O4     O     0.69270   0.60869   0.48866   0.01267  Uiso   1.00
O5     O     0.64930   0.80696   0.97741   0.01267  Uiso   1.00
O6     O     0.47810   0.73791   0.01180   0.01267  Uiso   1.00
O7     O     0.94370   0.83099   0.01364   0.01267  Uiso   1.00
O8     O     0.04650   0.72685   0.02234   0.01267  Uiso   1.00
O9     O     0.61170   0.35561   0.31380   0.01267  Uiso   1.00
O10    O     0.37910   0.39708   0.36930   0.01267  Uiso   1.00
O11    O     0.49780   0.27081   0.18704   0.01267  Uiso   1.00
O12    O     0.37160   0.36114   0.22423   0.01267  Uiso   1.00
O13    O     0.85720   0.39305   0.37919   0.01267  Uiso   1.00
O14    O     0.63010   0.39627   0.44702   0.01267  Uiso   1.00
O15    O     0.74950   0.42058   0.60213   0.01267  Uiso   1.00
O16    O     0.82610   0.46054   0.51004   0.01267  Uiso   1.00
O17    O     0.55980   0.14208   0.12065   0.01267  Uiso   1.00
O18    O     0.50940   0.06772   0.06669   0.01267  Uiso   1.00
O19    O     0.61250   0.92123   0.06125   0.01267  Uiso   1.00
O20    O     0.83440   0.96965   0.03539   0.01267  Uiso   1.00
O21    O     0.23610   0.21498   0.15628   0.01267  Uiso   1.00
O22    O     0.15970   0.13119   0.12429   0.01267  Uiso   1.00
O23    O     0.93140   0.33255   0.24645   0.01267  Uiso   1.00
O24    O     0.92070   0.30079   0.15755   0.01267  Uiso   1.00
O25    O     0.20520   0.46508   0.70473   0.01267  Uiso   1.00
O26    O     0.43070   0.49879   0.65672   0.01267  Uiso   1.00
O27    O     0.43590   0.46191   0.54196   0.01267  Uiso   1.00
O28    O     0.30730   0.39131   0.51134   0.01267  Uiso   1.00
O29    O     0.35070   0.19304   0.02259   0.01267  Uiso   1.00
O30    O     0.52190   0.26209   0.98820   0.01267  Uiso   1.00
O31    O     0.05630   0.16901   0.98636   0.01267  Uiso   1.00
O32    O     0.95350   0.27315   0.97766   0.01267  Uiso   1.00
O33    O     0.38830   0.64439   0.68620   0.01267  Uiso   1.00
O34    O     0.62090   0.60292   0.63070   0.01267  Uiso   1.00
O35    O     0.50220   0.72919   0.81296   0.01267  Uiso   1.00
O36    O     0.62840   0.63886   0.77577   0.01267  Uiso   1.00
O37    O     0.14280   0.60695   0.62081   0.01267  Uiso   1.00
O38    O     0.36990   0.60373   0.55298   0.01267  Uiso   1.00
O39    O     0.25050   0.57942   0.39787   0.01267  Uiso   1.00
O40    O     0.17390   0.53946   0.48996   0.01267  Uiso   1.00
O41    O     0.44020   0.85792   0.87935   0.01267  Uiso   1.00
O42    O     0.49060   0.93228   0.93331   0.01267  Uiso   1.00
O43    O     0.38750   0.07877   0.93875   0.01267  Uiso   1.00
O44    O     0.16560   0.03035   0.96461   0.01267  Uiso   1.00
O45    O     0.76390   0.78502   0.84372   0.01267  Uiso   1.00
O46    O     0.84030   0.86881   0.87571   0.01267  Uiso   1.00
O47    O     0.06860   0.66745   0.75355   0.01267  Uiso   1.00
O48    O     0.07930   0.69921   0.84245   0.01267  Uiso   1.00
F1     F     0.15710   0.75166   0.28639   0.01267  Uiso   1.00
F2     F     0.17460   0.80169   0.19822   0.01267  Uiso   1.00
F3     F     0.26880   0.70045   0.21171   0.01267  Uiso   1.00
F4     F     0.28620   0.85767   0.29536   0.01267  Uiso   1.00
F5     F     0.55460   0.85336   0.27275   0.01267  Uiso   1.00
F6     F     0.38880   0.87998   0.20452   0.01267  Uiso   1.00
F7     F     0.43250   0.19634   0.51006   0.01267  Uiso   1.00
F8     F     0.46200   0.10964   0.46802   0.01267  Uiso   1.00
F9     F     0.30500   0.11863   0.55104   0.01267  Uiso   1.00
F10    F     0.01050   0.11249   0.51656   0.01267  Uiso   1.00
F11    F     0.18280   0.07203   0.44591   0.01267  Uiso   1.00
F12    F     0.97310   0.14578   0.42573   0.01267  Uiso   1.00
F13    F     0.62470   0.96465   0.35160   0.01267  Uiso   1.00
F14    F     0.53700   0.06551   0.33118   0.01267  Uiso   1.00
F15    F     0.69650   0.03277   0.40144   0.01267  Uiso   1.00
F16    F     0.95560   0.92763   0.34957   0.01267  Uiso   1.00
F17    F     0.11290   0.97973   0.28402   0.01267  Uiso   1.00
F18    F     0.03050   0.01432   0.36890   0.01267  Uiso   1.00
F19    F     0.84290   0.24834   0.71361   0.01267  Uiso   1.00
F20    F     0.82540   0.19831   0.80178   0.01267  Uiso   1.00
F21    F     0.73120   0.29955   0.78829   0.01267  Uiso   1.00
F22    F     0.71380   0.14233   0.70464   0.01267  Uiso   1.00
F23    F     0.44540   0.14664   0.72725   0.01267  Uiso   1.00
F24    F     0.61120   0.12002   0.79548   0.01267  Uiso   1.00
F25    F     0.56750   0.80366   0.48994   0.01267  Uiso   1.00
F26    F     0.53800   0.89036   0.53198   0.01267  Uiso   1.00
F27    F     0.69500   0.88137   0.44896   0.01267  Uiso   1.00
F28    F     0.98950   0.88751   0.48344   0.01267  Uiso   1.00
F29    F     0.81720   0.92797   0.55409   0.01267  Uiso   1.00
F30    F     0.02690   0.85422   0.57427   0.01267  Uiso   1.00
F31    F     0.37530   0.03535   0.64840   0.01267  Uiso   1.00
F32    F     0.46300   0.93449   0.66882   0.01267  Uiso   1.00
F33    F     0.30350   0.96723   0.59856   0.01267  Uiso   1.00
F34    F     0.04440   0.07237   0.65043   0.01267  Uiso   1.00
F35    F     0.88710   0.02027   0.71598   0.01267  Uiso   1.00
F36    F     0.96950   0.98568   0.63110   0.01267  Uiso   1.00
