data_KIPZEQ_clean
_audit_creation_date              2014-07-02
_audit_creation_method            'Materials Studio'
_symmetry_space_group_name_H-M    'P1'
_symmetry_Int_Tables_number       1
_symmetry_cell_setting            triclinic
loop_
_symmetry_equiv_pos_as_xyz
  x,y,z
_cell_length_a                    10.9750
_cell_length_b                    12.1390
_cell_length_c                    13.7280
_cell_angle_alpha                 67.2500
_cell_angle_beta                  80.9400
_cell_angle_gamma                 70.2600
loop_
_atom_site_label
_atom_site_type_symbol
_atom_site_fract_x
_atom_site_fract_y
_atom_site_fract_z
_atom_site_U_iso_or_equiv
_atom_site_adp_type
_atom_site_occupancy
Co1    Co    0.04300   0.40582   0.81500   0.01267  Uiso   1.00
Co2    Co    0.13202   0.67145   0.81249   0.01267  Uiso   1.00
Co3    Co    0.95700   0.59418   0.18500   0.01267  Uiso   1.00
Co4    Co    0.86798   0.32855   0.18751   0.01267  Uiso   1.00
Co5    Co    0.00000   0.50000   0.00000   0.01267  Uiso   1.00
H1     H     0.20750   0.46460   0.85740   0.01267  Uiso   1.00
H2     H     0.86550   0.71680   0.51530   0.01267  Uiso   1.00
H3     H     0.94700   0.90020   0.52020   0.01267  Uiso   1.00
H4     H     0.78960   0.82720   0.35010   0.01267  Uiso   1.00
H5     H     0.72860   0.96800   0.18060   0.01267  Uiso   1.00
H6     H     0.76750   0.15300   0.11410   0.01267  Uiso   1.00
H7     H     0.91530   0.08560   0.37820   0.01267  Uiso   1.00
H8     H     0.60420   0.42860   0.92260   0.01267  Uiso   1.00
H9     H     0.73370   0.56020   0.75590   0.01267  Uiso   1.00
H10    H     0.63130   0.59430   0.58330   0.01267  Uiso   1.00
H11    H     0.44370   0.64570   0.49980   0.01267  Uiso   1.00
H12    H     0.24780   0.67730   0.58670   0.01267  Uiso   1.00
H13    H     0.42010   0.58000   0.84690   0.01267  Uiso   1.00
H14    H     0.15150   0.07700   0.19270   0.01267  Uiso   1.00
H15    H     0.13580   0.00250   0.03310   0.01267  Uiso   1.00
H16    H     0.23750   0.85690   0.29950   0.01267  Uiso   1.00
H17    H     0.21540   0.66960   0.41660   0.01267  Uiso   1.00
H18    H     0.09990   0.57060   0.37460   0.01267  Uiso   1.00
H19    H     0.05320   0.82440   0.09010   0.01267  Uiso   1.00
H20    H     0.79250   0.53540   0.14260   0.01267  Uiso   1.00
H21    H     0.13450   0.28320   0.48470   0.01267  Uiso   1.00
H22    H     0.05300   0.09980   0.47980   0.01267  Uiso   1.00
H23    H     0.21040   0.17280   0.64990   0.01267  Uiso   1.00
H24    H     0.27140   0.03200   0.81940   0.01267  Uiso   1.00
H25    H     0.23250   0.84700   0.88590   0.01267  Uiso   1.00
H26    H     0.08470   0.91440   0.62180   0.01267  Uiso   1.00
H27    H     0.39580   0.57140   0.07740   0.01267  Uiso   1.00
H28    H     0.26630   0.43980   0.24410   0.01267  Uiso   1.00
H29    H     0.36870   0.40570   0.41670   0.01267  Uiso   1.00
H30    H     0.55630   0.35430   0.50020   0.01267  Uiso   1.00
H31    H     0.75220   0.32270   0.41330   0.01267  Uiso   1.00
H32    H     0.57990   0.42000   0.15310   0.01267  Uiso   1.00
H33    H     0.84850   0.92300   0.80730   0.01267  Uiso   1.00
H34    H     0.86420   0.99750   0.96690   0.01267  Uiso   1.00
H35    H     0.76250   0.14310   0.70050   0.01267  Uiso   1.00
H36    H     0.78460   0.33040   0.58340   0.01267  Uiso   1.00
H37    H     0.90010   0.42940   0.62540   0.01267  Uiso   1.00
H38    H     0.94680   0.17560   0.90990   0.01267  Uiso   1.00
C1     C     0.97110   0.67240   0.64650   0.01267  Uiso   1.00
C2     C     0.90890   0.75170   0.54270   0.01267  Uiso   1.00
C3     C     0.91050   0.86440   0.48810   0.01267  Uiso   1.00
C4     C     0.86260   0.94330   0.38240   0.01267  Uiso   1.00
C5     C     0.80420   0.90480   0.32330   0.01267  Uiso   1.00
C6     C     0.76940   0.98910   0.22230   0.01267  Uiso   1.00
C7     C     0.79270   0.10050   0.18250   0.01267  Uiso   1.00
C8     C     0.88000   0.05960   0.33670   0.01267  Uiso   1.00
C9     C     0.78210   0.43150   0.95560   0.01267  Uiso   1.00
C10    C     0.67140   0.46210   0.89050   0.01267  Uiso   1.00
C11    C     0.66250   0.53410   0.78960   0.01267  Uiso   1.00
C12    C     0.54770   0.57590   0.72680   0.01267  Uiso   1.00
C13    C     0.55270   0.60040   0.62100   0.01267  Uiso   1.00
C14    C     0.44020   0.63400   0.57110   0.01267  Uiso   1.00
C15    C     0.32260   0.65070   0.62390   0.01267  Uiso   1.00
C16    C     0.42450   0.59400   0.77500   0.01267  Uiso   1.00
C17    C     0.09760   0.22220   0.04830   0.01267  Uiso   1.00
C18    C     0.13160   0.09080   0.12470   0.01267  Uiso   1.00
C19    C     0.13560   0.99210   0.10380   0.01267  Uiso   1.00
C20    C     0.13980   0.86850   0.18160   0.01267  Uiso   1.00
C21    C     0.19240   0.81600   0.28060   0.01267  Uiso   1.00
C22    C     0.17850   0.70480   0.35070   0.01267  Uiso   1.00
C23    C     0.11110   0.64480   0.32490   0.01267  Uiso   1.00
C24    C     0.08040   0.79660   0.15880   0.01267  Uiso   1.00
C25    C     0.02890   0.32760   0.35350   0.01267  Uiso   1.00
C26    C     0.09110   0.24830   0.45730   0.01267  Uiso   1.00
C27    C     0.08950   0.13560   0.51190   0.01267  Uiso   1.00
C28    C     0.13740   0.05670   0.61760   0.01267  Uiso   1.00
C29    C     0.19580   0.09520   0.67670   0.01267  Uiso   1.00
C30    C     0.23060   0.01090   0.77770   0.01267  Uiso   1.00
C31    C     0.20730   0.89950   0.81750   0.01267  Uiso   1.00
C32    C     0.12000   0.94040   0.66330   0.01267  Uiso   1.00
C33    C     0.21790   0.56850   0.04440   0.01267  Uiso   1.00
C34    C     0.32860   0.53790   0.10950   0.01267  Uiso   1.00
C35    C     0.33750   0.46590   0.21040   0.01267  Uiso   1.00
C36    C     0.45230   0.42410   0.27320   0.01267  Uiso   1.00
C37    C     0.44730   0.39960   0.37900   0.01267  Uiso   1.00
C38    C     0.55980   0.36600   0.42890   0.01267  Uiso   1.00
C39    C     0.67740   0.34930   0.37610   0.01267  Uiso   1.00
C40    C     0.57550   0.40600   0.22500   0.01267  Uiso   1.00
C41    C     0.90240   0.77780   0.95170   0.01267  Uiso   1.00
C42    C     0.86840   0.90920   0.87530   0.01267  Uiso   1.00
C43    C     0.86440   0.00790   0.89620   0.01267  Uiso   1.00
C44    C     0.86020   0.13150   0.81840   0.01267  Uiso   1.00
C45    C     0.80760   0.18400   0.71940   0.01267  Uiso   1.00
C46    C     0.82150   0.29520   0.64930   0.01267  Uiso   1.00
C47    C     0.88890   0.35520   0.67510   0.01267  Uiso   1.00
C48    C     0.91960   0.20340   0.84120   0.01267  Uiso   1.00
N1     N     0.85040   0.14000   0.23660   0.01267  Uiso   1.00
N2     N     0.31220   0.62940   0.72900   0.01267  Uiso   1.00
N3     N     0.05940   0.69120   0.22760   0.01267  Uiso   1.00
N4     N     0.14960   0.86000   0.76340   0.01267  Uiso   1.00
N5     N     0.68780   0.37060   0.27100   0.01267  Uiso   1.00
N6     N     0.94060   0.30880   0.77240   0.01267  Uiso   1.00
O1     O     0.02740   0.72360   0.68280   0.01267  Uiso   1.00
O2     O     0.96520   0.56450   0.68910   0.01267  Uiso   1.00
O3     O     0.77320   0.36460   0.05160   0.01267  Uiso   1.00
O4     O     0.87450   0.47400   0.91240   0.01267  Uiso   1.00
O5     O     0.11140   0.23840   0.95080   0.01267  Uiso   1.00
O6     O     0.05530   0.30560   0.08850   0.01267  Uiso   1.00
O7     O     0.12820   0.48970   0.87550   0.01267  Uiso   1.00
O8     O     0.97260   0.27640   0.31720   0.01267  Uiso   1.00
O9     O     0.03480   0.43550   0.31090   0.01267  Uiso   1.00
O10    O     0.22680   0.63540   0.94840   0.01267  Uiso   1.00
O11    O     0.12550   0.52600   0.08760   0.01267  Uiso   1.00
O12    O     0.88860   0.76160   0.04920   0.01267  Uiso   1.00
O13    O     0.94470   0.69440   0.91150   0.01267  Uiso   1.00
O14    O     0.87180   0.51030   0.12450   0.01267  Uiso   1.00
