data_image0
_cell_length_a       14.297
_cell_length_b       10.472
_cell_length_c       18.539
_cell_angle_alpha    90
_cell_angle_beta     114.068
_cell_angle_gamma    90

_symmetry_space_group_name_H-M    "P 1"
_symmetry_int_tables_number       1

loop_
  _symmetry_equiv_pos_as_xyz
  'x, y, z'

loop_
  _atom_site_label
  _atom_site_occupancy
  _atom_site_fract_x
  _atom_site_fract_y
  _atom_site_fract_z
  _atom_site_thermal_displace_type
  _atom_site_B_iso_or_equiv
  _atom_site_type_symbol
  Cu1      1.0000 0.42007  0.37395  0.09131  Biso   1.000  Cu
  O1       1.0000 0.37330  0.24720  0.00270  Biso   1.000  O
  O2       1.0000 0.26930  0.35080  0.07960  Biso   1.000  O
  O3       1.0000 0.56040  0.39600  0.07920  Biso   1.000  O
  O4       1.0000 0.38370  0.52640  0.00690  Biso   1.000  O
  O5       1.0000 0.46290  0.48940  0.18450  Biso   1.000  O
  O6       1.0000 0.47320  0.23420  0.18390  Biso   1.000  O
  C1       1.0000 0.28000  0.21900  0.97710  Biso   1.000  C
  C2       1.0000 0.55090  0.46260  0.02020  Biso   1.000  C
  Cu2      1.0000 0.92007  0.87395  0.09131  Biso   1.000  Cu
  O7       1.0000 0.87330  0.74720  0.00270  Biso   1.000  O
  O8       1.0000 0.76930  0.85080  0.07960  Biso   1.000  O
  O9       1.0000 0.06040  0.89600  0.07920  Biso   1.000  O
  O10      1.0000 0.88370  0.02640  0.00690  Biso   1.000  O
  O11      1.0000 0.96290  0.98940  0.18450  Biso   1.000  O
  O12      1.0000 0.97320  0.73420  0.18390  Biso   1.000  O
  C3       1.0000 0.78000  0.71900  0.97710  Biso   1.000  C
  C4       1.0000 0.05090  0.96260  0.02020  Biso   1.000  C
  Cu3      1.0000 0.57993  0.37395  0.40869  Biso   1.000  Cu
  O13      1.0000 0.62670  0.24720  0.49730  Biso   1.000  O
  O14      1.0000 0.73070  0.35080  0.42040  Biso   1.000  O
  O15      1.0000 0.43960  0.39600  0.42080  Biso   1.000  O
  O16      1.0000 0.61630  0.52640  0.49310  Biso   1.000  O
  O17      1.0000 0.53710  0.48940  0.31550  Biso   1.000  O
  O18      1.0000 0.52680  0.23420  0.31610  Biso   1.000  O
  C5       1.0000 0.72000  0.21900  0.52290  Biso   1.000  C
  C6       1.0000 0.44910  0.46260  0.47980  Biso   1.000  C
  Cu4      1.0000 0.07993  0.87395  0.40869  Biso   1.000  Cu
  O19      1.0000 0.12670  0.74720  0.49730  Biso   1.000  O
  O20      1.0000 0.23070  0.85080  0.42040  Biso   1.000  O
  O21      1.0000 0.93960  0.89600  0.42080  Biso   1.000  O
  O22      1.0000 0.11630  0.02640  0.49310  Biso   1.000  O
  O23      1.0000 0.03710  0.98940  0.31550  Biso   1.000  O
  O24      1.0000 0.02680  0.73420  0.31610  Biso   1.000  O
  C7       1.0000 0.22000  0.71900  0.52290  Biso   1.000  C
  C8       1.0000 0.94910  0.96260  0.47980  Biso   1.000  C
  Cu5      1.0000 0.57993  0.62605  0.90869  Biso   1.000  Cu
  O25      1.0000 0.62670  0.75280  0.99730  Biso   1.000  O
  O26      1.0000 0.73070  0.64920  0.92040  Biso   1.000  O
  O27      1.0000 0.43960  0.60400  0.92080  Biso   1.000  O
  O28      1.0000 0.61630  0.47360  0.99310  Biso   1.000  O
  O29      1.0000 0.53710  0.51060  0.81550  Biso   1.000  O
  O30      1.0000 0.52680  0.76580  0.81610  Biso   1.000  O
  C9       1.0000 0.72000  0.78100  0.02290  Biso   1.000  C
  C10      1.0000 0.44910  0.53740  0.97980  Biso   1.000  C
  Cu6      1.0000 0.07993  0.12605  0.90869  Biso   1.000  Cu
  O31      1.0000 0.12670  0.25280  0.99730  Biso   1.000  O
  O32      1.0000 0.23070  0.14920  0.92040  Biso   1.000  O
  O33      1.0000 0.93960  0.10400  0.92080  Biso   1.000  O
  O34      1.0000 0.11630  0.97360  0.99310  Biso   1.000  O
  O35      1.0000 0.03710  0.01060  0.81550  Biso   1.000  O
  O36      1.0000 0.02680  0.26580  0.81610  Biso   1.000  O
  C11      1.0000 0.22000  0.28100  0.02290  Biso   1.000  C
  C12      1.0000 0.94910  0.03740  0.97980  Biso   1.000  C
  Cu7      1.0000 0.42007  0.62605  0.59131  Biso   1.000  Cu
  O37      1.0000 0.37330  0.75280  0.50270  Biso   1.000  O
  O38      1.0000 0.26930  0.64920  0.57960  Biso   1.000  O
  O39      1.0000 0.56040  0.60400  0.57920  Biso   1.000  O
  O40      1.0000 0.38370  0.47360  0.50690  Biso   1.000  O
  O41      1.0000 0.46290  0.51060  0.68450  Biso   1.000  O
  O42      1.0000 0.47320  0.76580  0.68390  Biso   1.000  O
  C13      1.0000 0.28000  0.78100  0.47710  Biso   1.000  C
  C14      1.0000 0.55090  0.53740  0.52020  Biso   1.000  C
  Cu8      1.0000 0.92007  0.12605  0.59131  Biso   1.000  Cu
  O43      1.0000 0.87330  0.25280  0.50270  Biso   1.000  O
  O44      1.0000 0.76930  0.14920  0.57960  Biso   1.000  O
  O45      1.0000 0.06040  0.10400  0.57920  Biso   1.000  O
  O46      1.0000 0.88370  0.97360  0.50690  Biso   1.000  O
  O47      1.0000 0.96290  0.01060  0.68450  Biso   1.000  O
  O48      1.0000 0.97320  0.26580  0.68390  Biso   1.000  O
  C15      1.0000 0.78000  0.28100  0.47710  Biso   1.000  C
  C16      1.0000 0.05090  0.03740  0.52020  Biso   1.000  C
  C17      1.0000 0.50000  0.43350  0.25000  Biso   1.000  C
  C18      1.0000 0.50000  0.28720  0.25000  Biso   1.000  C
  C19      1.0000 0.00000  0.93350  0.25000  Biso   1.000  C
  C20      1.0000 0.00000  0.78720  0.25000  Biso   1.000  C
  C21      1.0000 0.50000  0.56650  0.75000  Biso   1.000  C
  C22      1.0000 0.50000  0.71280  0.75000  Biso   1.000  C
  C23      1.0000 0.00000  0.06650  0.75000  Biso   1.000  C
  C24      1.0000 0.00000  0.21280  0.75000  Biso   1.000  C
