data_image0
_cell_length_a       13.1302
_cell_length_b       13.1302
_cell_length_c       17.4559
_cell_angle_alpha    90
_cell_angle_beta     90
_cell_angle_gamma    120

_symmetry_space_group_name_H-M    "P 1"
_symmetry_int_tables_number       1

loop_
  _symmetry_equiv_pos_as_xyz
  'x, y, z'

loop_
  _atom_site_label
  _atom_site_occupancy
  _atom_site_fract_x
  _atom_site_fract_y
  _atom_site_fract_z
  _atom_site_thermal_displace_type
  _atom_site_B_iso_or_equiv
  _atom_site_type_symbol
  Al1      1.0000 0.29204  0.85678  0.45859  Biso   1.000  Al
  P1       1.0000 0.16009  0.97326  0.37118  Biso   1.000  P
  H1       1.0000 0.25000  0.05500  0.34130  Biso   1.000  H
  P2       1.0000 0.12623  0.63092  0.55515  Biso   1.000  P
  H2       1.0000 0.19100  0.69200  0.62400  Biso   1.000  H
  O1       1.0000 0.19040  0.87950  0.39237  Biso   1.000  O
  O2       1.0000 0.13120  0.02490  0.44015  Biso   1.000  O
  O3       1.0000 0.06530  0.92630  0.30983  Biso   1.000  O
  O4       1.0000 0.15660  0.72480  0.49440  Biso   1.000  O
  O5       1.0000 0.99670  0.57470  0.57520  Biso   1.000  O
  O6       1.0000 0.16470  0.54450  0.53450  Biso   1.000  O
  O7       1.0000 0.32010  0.77150  0.38440  Biso   1.000  O
  Al2      1.0000 0.14322  0.43526  0.45859  Biso   1.000  Al
  P3       1.0000 0.02674  0.18683  0.37118  Biso   1.000  P
  H3       1.0000 0.94500  0.19500  0.34130  Biso   1.000  H
  P4       1.0000 0.36908  0.49531  0.55515  Biso   1.000  P
  H4       1.0000 0.30800  0.49900  0.62400  Biso   1.000  H
  O8       1.0000 0.12050  0.31090  0.39237  Biso   1.000  O
  O9       1.0000 0.97510  0.10630  0.44015  Biso   1.000  O
  O10      1.0000 0.07370  0.13900  0.30983  Biso   1.000  O
  O11      1.0000 0.27520  0.43180  0.49440  Biso   1.000  O
  O12      1.0000 0.42530  0.42200  0.57520  Biso   1.000  O
  O13      1.0000 0.45550  0.62020  0.53450  Biso   1.000  O
  O14      1.0000 0.22850  0.54860  0.38440  Biso   1.000  O
  Al3      1.0000 0.56474  0.70796  0.45859  Biso   1.000  Al
  P5       1.0000 0.81317  0.83991  0.37118  Biso   1.000  P
  H5       1.0000 0.80500  0.75000  0.34130  Biso   1.000  H
  P6       1.0000 0.50469  0.87377  0.55515  Biso   1.000  P
  H6       1.0000 0.50100  0.80900  0.62400  Biso   1.000  H
  O15      1.0000 0.68910  0.80960  0.39237  Biso   1.000  O
  O16      1.0000 0.89370  0.86880  0.44015  Biso   1.000  O
  O17      1.0000 0.86100  0.93470  0.30983  Biso   1.000  O
  O18      1.0000 0.56820  0.84340  0.49440  Biso   1.000  O
  O19      1.0000 0.57800  0.00330  0.57520  Biso   1.000  O
  O20      1.0000 0.37980  0.83530  0.53450  Biso   1.000  O
  O21      1.0000 0.45140  0.67990  0.38440  Biso   1.000  O
  Al4      1.0000 0.85678  0.29204  0.04141  Biso   1.000  Al
  P7       1.0000 0.97326  0.16009  0.12882  Biso   1.000  P
  H7       1.0000 0.05500  0.25000  0.15870  Biso   1.000  H
  P8       1.0000 0.63092  0.12623  0.94485  Biso   1.000  P
  H8       1.0000 0.69200  0.19100  0.87600  Biso   1.000  H
  O22      1.0000 0.87950  0.19040  0.10763  Biso   1.000  O
  O23      1.0000 0.02490  0.13120  0.05985  Biso   1.000  O
  O24      1.0000 0.92630  0.06530  0.19017  Biso   1.000  O
  O25      1.0000 0.72480  0.15660  0.00560  Biso   1.000  O
  O26      1.0000 0.57470  0.99670  0.92480  Biso   1.000  O
  O27      1.0000 0.54450  0.16470  0.96550  Biso   1.000  O
  O28      1.0000 0.77150  0.32010  0.11560  Biso   1.000  O
  Al5      1.0000 0.43526  0.14322  0.04141  Biso   1.000  Al
  P9       1.0000 0.18683  0.02674  0.12882  Biso   1.000  P
  H9       1.0000 0.19500  0.94500  0.15870  Biso   1.000  H
  P10      1.0000 0.49531  0.36908  0.94485  Biso   1.000  P
  H10      1.0000 0.49900  0.30800  0.87600  Biso   1.000  H
  O29      1.0000 0.31090  0.12050  0.10763  Biso   1.000  O
  O30      1.0000 0.10630  0.97510  0.05985  Biso   1.000  O
  O31      1.0000 0.13900  0.07370  0.19017  Biso   1.000  O
  O32      1.0000 0.43180  0.27520  0.00560  Biso   1.000  O
  O33      1.0000 0.42200  0.42530  0.92480  Biso   1.000  O
  O34      1.0000 0.62020  0.45550  0.96550  Biso   1.000  O
  O35      1.0000 0.54860  0.22850  0.11560  Biso   1.000  O
  Al6      1.0000 0.70796  0.56474  0.04141  Biso   1.000  Al
  P11      1.0000 0.83991  0.81317  0.12882  Biso   1.000  P
  H11      1.0000 0.75000  0.80500  0.15870  Biso   1.000  H
  P12      1.0000 0.87377  0.50469  0.94485  Biso   1.000  P
  H12      1.0000 0.80900  0.50100  0.87600  Biso   1.000  H
  O36      1.0000 0.80960  0.68910  0.10763  Biso   1.000  O
  O37      1.0000 0.86880  0.89370  0.05985  Biso   1.000  O
  O38      1.0000 0.93470  0.86100  0.19017  Biso   1.000  O
  O39      1.0000 0.84340  0.56820  0.00560  Biso   1.000  O
  O40      1.0000 0.00330  0.57800  0.92480  Biso   1.000  O
  O41      1.0000 0.83530  0.37980  0.96550  Biso   1.000  O
  O42      1.0000 0.67990  0.45140  0.11560  Biso   1.000  O
  Al7      1.0000 0.70796  0.14322  0.54141  Biso   1.000  Al
  P13      1.0000 0.83991  0.02674  0.62882  Biso   1.000  P
  H13      1.0000 0.75000  0.94500  0.65870  Biso   1.000  H
  P14      1.0000 0.87377  0.36908  0.44485  Biso   1.000  P
  H14      1.0000 0.80900  0.30800  0.37600  Biso   1.000  H
  O43      1.0000 0.80960  0.12050  0.60763  Biso   1.000  O
  O44      1.0000 0.86880  0.97510  0.55985  Biso   1.000  O
  O45      1.0000 0.93470  0.07370  0.69017  Biso   1.000  O
  O46      1.0000 0.84340  0.27520  0.50560  Biso   1.000  O
  O47      1.0000 0.00330  0.42530  0.42480  Biso   1.000  O
  O48      1.0000 0.83530  0.45550  0.46550  Biso   1.000  O
  O49      1.0000 0.67990  0.22850  0.61560  Biso   1.000  O
  Al8      1.0000 0.85678  0.56474  0.54141  Biso   1.000  Al
  P15      1.0000 0.97326  0.81317  0.62882  Biso   1.000  P
  H15      1.0000 0.05500  0.80500  0.65870  Biso   1.000  H
  P16      1.0000 0.63092  0.50469  0.44485  Biso   1.000  P
  H16      1.0000 0.69200  0.50100  0.37600  Biso   1.000  H
  O50      1.0000 0.87950  0.68910  0.60763  Biso   1.000  O
  O51      1.0000 0.02490  0.89370  0.55985  Biso   1.000  O
  O52      1.0000 0.92630  0.86100  0.69017  Biso   1.000  O
  O53      1.0000 0.72480  0.56820  0.50560  Biso   1.000  O
  O54      1.0000 0.57470  0.57800  0.42480  Biso   1.000  O
  O55      1.0000 0.54450  0.37980  0.46550  Biso   1.000  O
  O56      1.0000 0.77150  0.45140  0.61560  Biso   1.000  O
  Al9      1.0000 0.43526  0.29204  0.54141  Biso   1.000  Al
  P17      1.0000 0.18683  0.16009  0.62882  Biso   1.000  P
  H17      1.0000 0.19500  0.25000  0.65870  Biso   1.000  H
  P18      1.0000 0.49531  0.12623  0.44485  Biso   1.000  P
  H18      1.0000 0.49900  0.19100  0.37600  Biso   1.000  H
  O57      1.0000 0.31090  0.19040  0.60763  Biso   1.000  O
  O58      1.0000 0.10630  0.13120  0.55985  Biso   1.000  O
  O59      1.0000 0.13900  0.06530  0.69017  Biso   1.000  O
  O60      1.0000 0.43180  0.15660  0.50560  Biso   1.000  O
  O61      1.0000 0.42200  0.99670  0.42480  Biso   1.000  O
  O62      1.0000 0.62020  0.16470  0.46550  Biso   1.000  O
  O63      1.0000 0.54860  0.32010  0.61560  Biso   1.000  O
  Al10     1.0000 0.14322  0.70796  0.95859  Biso   1.000  Al
  P19      1.0000 0.02674  0.83991  0.87118  Biso   1.000  P
  H19      1.0000 0.94500  0.75000  0.84130  Biso   1.000  H
  P20      1.0000 0.36908  0.87377  0.05515  Biso   1.000  P
  H20      1.0000 0.30800  0.80900  0.12400  Biso   1.000  H
  O64      1.0000 0.12050  0.80960  0.89237  Biso   1.000  O
  O65      1.0000 0.97510  0.86880  0.94015  Biso   1.000  O
  O66      1.0000 0.07370  0.93470  0.80983  Biso   1.000  O
  O67      1.0000 0.27520  0.84340  0.99440  Biso   1.000  O
  O68      1.0000 0.42530  0.00330  0.07520  Biso   1.000  O
  O69      1.0000 0.45550  0.83530  0.03450  Biso   1.000  O
  O70      1.0000 0.22850  0.67990  0.88440  Biso   1.000  O
  Al11     1.0000 0.56474  0.85678  0.95859  Biso   1.000  Al
  P21      1.0000 0.81317  0.97326  0.87118  Biso   1.000  P
  H21      1.0000 0.80500  0.05500  0.84130  Biso   1.000  H
  P22      1.0000 0.50469  0.63092  0.05515  Biso   1.000  P
  H22      1.0000 0.50100  0.69200  0.12400  Biso   1.000  H
  O71      1.0000 0.68910  0.87950  0.89237  Biso   1.000  O
  O72      1.0000 0.89370  0.02490  0.94015  Biso   1.000  O
  O73      1.0000 0.86100  0.92630  0.80983  Biso   1.000  O
  O74      1.0000 0.56820  0.72480  0.99440  Biso   1.000  O
  O75      1.0000 0.57800  0.57470  0.07520  Biso   1.000  O
  O76      1.0000 0.37980  0.54450  0.03450  Biso   1.000  O
  O77      1.0000 0.45140  0.77150  0.88440  Biso   1.000  O
  Al12     1.0000 0.29204  0.43526  0.95859  Biso   1.000  Al
  P23      1.0000 0.16009  0.18683  0.87118  Biso   1.000  P
  H23      1.0000 0.25000  0.19500  0.84130  Biso   1.000  H
  P24      1.0000 0.12623  0.49531  0.05515  Biso   1.000  P
  H24      1.0000 0.19100  0.49900  0.12400  Biso   1.000  H
  O78      1.0000 0.19040  0.31090  0.89237  Biso   1.000  O
  O79      1.0000 0.13120  0.10630  0.94015  Biso   1.000  O
  O80      1.0000 0.06530  0.13900  0.80983  Biso   1.000  O
  O81      1.0000 0.15660  0.43180  0.99440  Biso   1.000  O
  O82      1.0000 0.99670  0.42200  0.07520  Biso   1.000  O
  O83      1.0000 0.16470  0.62020  0.03450  Biso   1.000  O
  O84      1.0000 0.32010  0.54860  0.88440  Biso   1.000  O
  Al13     1.0000 0.00000  0.00000  0.25000  Biso   1.000  Al
  Al14     1.0000 0.00000  0.00000  0.75000  Biso   1.000  Al
  Al15     1.0000 0.00000  0.00000  0.50000  Biso   1.000  Al
  Al16     1.0000 0.00000  0.00000  0.00000  Biso   1.000  Al
  P25      1.0000 0.33333  0.66667  0.36305  Biso   1.000  P
  H25      1.0000 0.33333  0.66667  0.28100  Biso   1.000  H
  P26      1.0000 0.66667  0.33333  0.13695  Biso   1.000  P
  H26      1.0000 0.66667  0.33333  0.21900  Biso   1.000  H
  P27      1.0000 0.66667  0.33333  0.63695  Biso   1.000  P
  H27      1.0000 0.66667  0.33333  0.71900  Biso   1.000  H
  P28      1.0000 0.33333  0.66667  0.86305  Biso   1.000  P
  H28      1.0000 0.33333  0.66667  0.78100  Biso   1.000  H
