data_image0
_cell_length_a       28.023
_cell_length_b       28.023
_cell_length_c       19.684
_cell_angle_alpha    90
_cell_angle_beta     90
_cell_angle_gamma    90

_symmetry_space_group_name_H-M    "P 1"
_symmetry_int_tables_number       1

loop_
  _symmetry_equiv_pos_as_xyz
  'x, y, z'

loop_
  _atom_site_label
  _atom_site_occupancy
  _atom_site_fract_x
  _atom_site_fract_y
  _atom_site_fract_z
  _atom_site_thermal_displace_type
  _atom_site_B_iso_or_equiv
  _atom_site_type_symbol
  U1       1.0000 0.00039  0.37144  0.21681  Biso   1.000  U
  U2       1.0000 0.80917  0.33137  0.80457  Biso   1.000  U
  U3       1.0000 0.70731  0.56552  0.83756  Biso   1.000  U
  S1       1.0000 0.89992  0.42054  0.13290  Biso   1.000  S
  S2       1.0000 0.77430  0.45635  0.82659  Biso   1.000  S
  S3       1.0000 0.92596  0.27113  0.17529  Biso   1.000  S
  S4       1.0000 0.80797  0.21981  0.70794  Biso   1.000  S
  O1       1.0000 0.00800  0.45810  0.20640  Biso   1.000  O
  O2       1.0000 0.72850  0.48220  0.82280  Biso   1.000  O
  O3       1.0000 0.89250  0.44800  0.07060  Biso   1.000  O
  O4       1.0000 0.76480  0.40490  0.83350  Biso   1.000  O
  O5       1.0000 0.94730  0.39780  0.12790  Biso   1.000  O
  O6       1.0000 0.80230  0.25110  0.76750  Biso   1.000  O
  O7       1.0000 0.80220  0.46480  0.76430  Biso   1.000  O
  O8       1.0000 0.91230  0.24830  0.11260  Biso   1.000  O
  O9       1.0000 0.94110  0.23470  0.22510  Biso   1.000  O
  O10      1.0000 0.80180  0.47370  0.88500  Biso   1.000  O
  O11      1.0000 0.85620  0.19930  0.70980  Biso   1.000  O
  O12      1.0000 0.89910  0.45120  0.19210  Biso   1.000  O
  O13      1.0000 0.96660  0.30340  0.16230  Biso   1.000  O
  O14      1.0000 0.77390  0.18000  0.71750  Biso   1.000  O
  O15      1.0000 0.88720  0.29880  0.20520  Biso   1.000  O
  O16      1.0000 0.86330  0.38390  0.13770  Biso   1.000  O
  O17      1.0000 0.79890  0.24440  0.64620  Biso   1.000  O
  O18      1.0000 0.68530  0.52410  0.06030  Biso   1.000  O
  U4       1.0000 0.50039  0.87144  0.71681  Biso   1.000  U
  U5       1.0000 0.30917  0.83137  0.30457  Biso   1.000  U
  U6       1.0000 0.20731  0.06552  0.33756  Biso   1.000  U
  S5       1.0000 0.39992  0.92054  0.63290  Biso   1.000  S
  S6       1.0000 0.27430  0.95635  0.32659  Biso   1.000  S
  S7       1.0000 0.42596  0.77113  0.67529  Biso   1.000  S
  S8       1.0000 0.30797  0.71981  0.20794  Biso   1.000  S
  O19      1.0000 0.50800  0.95810  0.70640  Biso   1.000  O
  O20      1.0000 0.22850  0.98220  0.32280  Biso   1.000  O
  O21      1.0000 0.39250  0.94800  0.57060  Biso   1.000  O
  O22      1.0000 0.26480  0.90490  0.33350  Biso   1.000  O
  O23      1.0000 0.44730  0.89780  0.62790  Biso   1.000  O
  O24      1.0000 0.30230  0.75110  0.26750  Biso   1.000  O
  O25      1.0000 0.30220  0.96480  0.26430  Biso   1.000  O
  O26      1.0000 0.41230  0.74830  0.61260  Biso   1.000  O
  O27      1.0000 0.44110  0.73470  0.72510  Biso   1.000  O
  O28      1.0000 0.30180  0.97370  0.38500  Biso   1.000  O
  O29      1.0000 0.35620  0.69930  0.20980  Biso   1.000  O
  O30      1.0000 0.39910  0.95120  0.69210  Biso   1.000  O
  O31      1.0000 0.46660  0.80340  0.66230  Biso   1.000  O
  O32      1.0000 0.27390  0.68000  0.21750  Biso   1.000  O
  O33      1.0000 0.38720  0.79880  0.70520  Biso   1.000  O
  O34      1.0000 0.36330  0.88390  0.63770  Biso   1.000  O
  O35      1.0000 0.29890  0.74440  0.14620  Biso   1.000  O
  O36      1.0000 0.18530  0.02410  0.56030  Biso   1.000  O
  U7       1.0000 0.99961  0.62856  0.21681  Biso   1.000  U
  U8       1.0000 0.19083  0.66863  0.80457  Biso   1.000  U
  U9       1.0000 0.29269  0.43448  0.83756  Biso   1.000  U
  S9       1.0000 0.10008  0.57946  0.13290  Biso   1.000  S
  S10      1.0000 0.22570  0.54365  0.82659  Biso   1.000  S
  S11      1.0000 0.07404  0.72887  0.17529  Biso   1.000  S
  S12      1.0000 0.19203  0.78019  0.70794  Biso   1.000  S
  O37      1.0000 0.99200  0.54190  0.20640  Biso   1.000  O
  O38      1.0000 0.27150  0.51780  0.82280  Biso   1.000  O
  O39      1.0000 0.10750  0.55200  0.07060  Biso   1.000  O
  O40      1.0000 0.23520  0.59510  0.83350  Biso   1.000  O
  O41      1.0000 0.05270  0.60220  0.12790  Biso   1.000  O
  O42      1.0000 0.19770  0.74890  0.76750  Biso   1.000  O
  O43      1.0000 0.19780  0.53520  0.76430  Biso   1.000  O
  O44      1.0000 0.08770  0.75170  0.11260  Biso   1.000  O
  O45      1.0000 0.05890  0.76530  0.22510  Biso   1.000  O
  O46      1.0000 0.19820  0.52630  0.88500  Biso   1.000  O
  O47      1.0000 0.14380  0.80070  0.70980  Biso   1.000  O
  O48      1.0000 0.10090  0.54880  0.19210  Biso   1.000  O
  O49      1.0000 0.03340  0.69660  0.16230  Biso   1.000  O
  O50      1.0000 0.22610  0.82000  0.71750  Biso   1.000  O
  O51      1.0000 0.11280  0.70120  0.20520  Biso   1.000  O
  O52      1.0000 0.13670  0.61610  0.13770  Biso   1.000  O
  O53      1.0000 0.20110  0.75560  0.64620  Biso   1.000  O
  O54      1.0000 0.31470  0.47590  0.06030  Biso   1.000  O
  U10      1.0000 0.49961  0.12856  0.71681  Biso   1.000  U
  U11      1.0000 0.69083  0.16863  0.30457  Biso   1.000  U
  U12      1.0000 0.79269  0.93448  0.33756  Biso   1.000  U
  S13      1.0000 0.60008  0.07946  0.63290  Biso   1.000  S
  S14      1.0000 0.72570  0.04365  0.32659  Biso   1.000  S
  S15      1.0000 0.57404  0.22887  0.67529  Biso   1.000  S
  S16      1.0000 0.69203  0.28019  0.20794  Biso   1.000  S
  O55      1.0000 0.49200  0.04190  0.70640  Biso   1.000  O
  O56      1.0000 0.77150  0.01780  0.32280  Biso   1.000  O
  O57      1.0000 0.60750  0.05200  0.57060  Biso   1.000  O
  O58      1.0000 0.73520  0.09510  0.33350  Biso   1.000  O
  O59      1.0000 0.55270  0.10220  0.62790  Biso   1.000  O
  O60      1.0000 0.69770  0.24890  0.26750  Biso   1.000  O
  O61      1.0000 0.69780  0.03520  0.26430  Biso   1.000  O
  O62      1.0000 0.58770  0.25170  0.61260  Biso   1.000  O
  O63      1.0000 0.55890  0.26530  0.72510  Biso   1.000  O
  O64      1.0000 0.69820  0.02630  0.38500  Biso   1.000  O
  O65      1.0000 0.64380  0.30070  0.20980  Biso   1.000  O
  O66      1.0000 0.60090  0.04880  0.69210  Biso   1.000  O
  O67      1.0000 0.53340  0.19660  0.66230  Biso   1.000  O
  O68      1.0000 0.72610  0.32000  0.21750  Biso   1.000  O
  O69      1.0000 0.61280  0.20120  0.70520  Biso   1.000  O
  O70      1.0000 0.63670  0.11610  0.63770  Biso   1.000  O
  O71      1.0000 0.70110  0.25560  0.14620  Biso   1.000  O
  O72      1.0000 0.81470  0.97590  0.56030  Biso   1.000  O
  U13      1.0000 0.62856  0.00039  0.21681  Biso   1.000  U
  U14      1.0000 0.66863  0.80917  0.80457  Biso   1.000  U
  U15      1.0000 0.43448  0.70731  0.83756  Biso   1.000  U
  S17      1.0000 0.57946  0.89992  0.13290  Biso   1.000  S
  S18      1.0000 0.54365  0.77430  0.82659  Biso   1.000  S
  S19      1.0000 0.72887  0.92596  0.17529  Biso   1.000  S
  S20      1.0000 0.78019  0.80797  0.70794  Biso   1.000  S
  O73      1.0000 0.54190  0.00800  0.20640  Biso   1.000  O
  O74      1.0000 0.51780  0.72850  0.82280  Biso   1.000  O
  O75      1.0000 0.55200  0.89250  0.07060  Biso   1.000  O
  O76      1.0000 0.59510  0.76480  0.83350  Biso   1.000  O
  O77      1.0000 0.60220  0.94730  0.12790  Biso   1.000  O
  O78      1.0000 0.74890  0.80230  0.76750  Biso   1.000  O
  O79      1.0000 0.53520  0.80220  0.76430  Biso   1.000  O
  O80      1.0000 0.75170  0.91230  0.11260  Biso   1.000  O
  O81      1.0000 0.76530  0.94110  0.22510  Biso   1.000  O
  O82      1.0000 0.52630  0.80180  0.88500  Biso   1.000  O
  O83      1.0000 0.80070  0.85620  0.70980  Biso   1.000  O
  O84      1.0000 0.54880  0.89910  0.19210  Biso   1.000  O
  O85      1.0000 0.69660  0.96660  0.16230  Biso   1.000  O
  O86      1.0000 0.82000  0.77390  0.71750  Biso   1.000  O
  O87      1.0000 0.70120  0.88720  0.20520  Biso   1.000  O
  O88      1.0000 0.61610  0.86330  0.13770  Biso   1.000  O
  O89      1.0000 0.75560  0.79890  0.64620  Biso   1.000  O
  O90      1.0000 0.47590  0.68530  0.06030  Biso   1.000  O
  U16      1.0000 0.12856  0.50039  0.71681  Biso   1.000  U
  U17      1.0000 0.16863  0.30917  0.30457  Biso   1.000  U
  U18      1.0000 0.93448  0.20731  0.33756  Biso   1.000  U
  S21      1.0000 0.07946  0.39992  0.63290  Biso   1.000  S
  S22      1.0000 0.04365  0.27430  0.32659  Biso   1.000  S
  S23      1.0000 0.22887  0.42596  0.67529  Biso   1.000  S
  S24      1.0000 0.28019  0.30797  0.20794  Biso   1.000  S
  O91      1.0000 0.04190  0.50800  0.70640  Biso   1.000  O
  O92      1.0000 0.01780  0.22850  0.32280  Biso   1.000  O
  O93      1.0000 0.05200  0.39250  0.57060  Biso   1.000  O
  O94      1.0000 0.09510  0.26480  0.33350  Biso   1.000  O
  O95      1.0000 0.10220  0.44730  0.62790  Biso   1.000  O
  O96      1.0000 0.24890  0.30230  0.26750  Biso   1.000  O
  O97      1.0000 0.03520  0.30220  0.26430  Biso   1.000  O
  O98      1.0000 0.25170  0.41230  0.61260  Biso   1.000  O
  O99      1.0000 0.26530  0.44110  0.72510  Biso   1.000  O
  O100     1.0000 0.02630  0.30180  0.38500  Biso   1.000  O
  O101     1.0000 0.30070  0.35620  0.20980  Biso   1.000  O
  O102     1.0000 0.04880  0.39910  0.69210  Biso   1.000  O
  O103     1.0000 0.19660  0.46660  0.66230  Biso   1.000  O
  O104     1.0000 0.32000  0.27390  0.21750  Biso   1.000  O
  O105     1.0000 0.20120  0.38720  0.70520  Biso   1.000  O
  O106     1.0000 0.11610  0.36330  0.63770  Biso   1.000  O
  O107     1.0000 0.25560  0.29890  0.14620  Biso   1.000  O
  O108     1.0000 0.97590  0.18530  0.56030  Biso   1.000  O
  U19      1.0000 0.37144  0.99961  0.21681  Biso   1.000  U
  U20      1.0000 0.33137  0.19083  0.80457  Biso   1.000  U
  U21      1.0000 0.56552  0.29269  0.83756  Biso   1.000  U
  S25      1.0000 0.42054  0.10008  0.13290  Biso   1.000  S
  S26      1.0000 0.45635  0.22570  0.82659  Biso   1.000  S
  S27      1.0000 0.27113  0.07404  0.17529  Biso   1.000  S
  S28      1.0000 0.21981  0.19203  0.70794  Biso   1.000  S
  O109     1.0000 0.45810  0.99200  0.20640  Biso   1.000  O
  O110     1.0000 0.48220  0.27150  0.82280  Biso   1.000  O
  O111     1.0000 0.44800  0.10750  0.07060  Biso   1.000  O
  O112     1.0000 0.40490  0.23520  0.83350  Biso   1.000  O
  O113     1.0000 0.39780  0.05270  0.12790  Biso   1.000  O
  O114     1.0000 0.25110  0.19770  0.76750  Biso   1.000  O
  O115     1.0000 0.46480  0.19780  0.76430  Biso   1.000  O
  O116     1.0000 0.24830  0.08770  0.11260  Biso   1.000  O
  O117     1.0000 0.23470  0.05890  0.22510  Biso   1.000  O
  O118     1.0000 0.47370  0.19820  0.88500  Biso   1.000  O
  O119     1.0000 0.19930  0.14380  0.70980  Biso   1.000  O
  O120     1.0000 0.45120  0.10090  0.19210  Biso   1.000  O
  O121     1.0000 0.30340  0.03340  0.16230  Biso   1.000  O
  O122     1.0000 0.18000  0.22610  0.71750  Biso   1.000  O
  O123     1.0000 0.29880  0.11280  0.20520  Biso   1.000  O
  O124     1.0000 0.38390  0.13670  0.13770  Biso   1.000  O
  O125     1.0000 0.24440  0.20110  0.64620  Biso   1.000  O
  O126     1.0000 0.52410  0.31470  0.06030  Biso   1.000  O
  U22      1.0000 0.87144  0.49961  0.71681  Biso   1.000  U
  U23      1.0000 0.83137  0.69083  0.30457  Biso   1.000  U
  U24      1.0000 0.06552  0.79269  0.33756  Biso   1.000  U
  S29      1.0000 0.92054  0.60008  0.63290  Biso   1.000  S
  S30      1.0000 0.95635  0.72570  0.32659  Biso   1.000  S
  S31      1.0000 0.77113  0.57404  0.67529  Biso   1.000  S
  S32      1.0000 0.71981  0.69203  0.20794  Biso   1.000  S
  O127     1.0000 0.95810  0.49200  0.70640  Biso   1.000  O
  O128     1.0000 0.98220  0.77150  0.32280  Biso   1.000  O
  O129     1.0000 0.94800  0.60750  0.57060  Biso   1.000  O
  O130     1.0000 0.90490  0.73520  0.33350  Biso   1.000  O
  O131     1.0000 0.89780  0.55270  0.62790  Biso   1.000  O
  O132     1.0000 0.75110  0.69770  0.26750  Biso   1.000  O
  O133     1.0000 0.96480  0.69780  0.26430  Biso   1.000  O
  O134     1.0000 0.74830  0.58770  0.61260  Biso   1.000  O
  O135     1.0000 0.73470  0.55890  0.72510  Biso   1.000  O
  O136     1.0000 0.97370  0.69820  0.38500  Biso   1.000  O
  O137     1.0000 0.69930  0.64380  0.20980  Biso   1.000  O
  O138     1.0000 0.95120  0.60090  0.69210  Biso   1.000  O
  O139     1.0000 0.80340  0.53340  0.66230  Biso   1.000  O
  O140     1.0000 0.68000  0.72610  0.21750  Biso   1.000  O
  O141     1.0000 0.79880  0.61280  0.70520  Biso   1.000  O
  O142     1.0000 0.88390  0.63670  0.63770  Biso   1.000  O
  O143     1.0000 0.74440  0.70110  0.14620  Biso   1.000  O
  O144     1.0000 0.02410  0.81470  0.56030  Biso   1.000  O
  U25      1.0000 0.99961  0.62856  0.78319  Biso   1.000  U
  U26      1.0000 0.19083  0.66863  0.19543  Biso   1.000  U
  U27      1.0000 0.29269  0.43448  0.16244  Biso   1.000  U
  S33      1.0000 0.10008  0.57946  0.86710  Biso   1.000  S
  S34      1.0000 0.22570  0.54365  0.17341  Biso   1.000  S
  S35      1.0000 0.07404  0.72887  0.82471  Biso   1.000  S
  S36      1.0000 0.19203  0.78019  0.29206  Biso   1.000  S
  O145     1.0000 0.99200  0.54190  0.79360  Biso   1.000  O
  O146     1.0000 0.27150  0.51780  0.17720  Biso   1.000  O
  O147     1.0000 0.10750  0.55200  0.92940  Biso   1.000  O
  O148     1.0000 0.23520  0.59510  0.16650  Biso   1.000  O
  O149     1.0000 0.05270  0.60220  0.87210  Biso   1.000  O
  O150     1.0000 0.19770  0.74890  0.23250  Biso   1.000  O
  O151     1.0000 0.19780  0.53520  0.23570  Biso   1.000  O
  O152     1.0000 0.08770  0.75170  0.88740  Biso   1.000  O
  O153     1.0000 0.05890  0.76530  0.77490  Biso   1.000  O
  O154     1.0000 0.19820  0.52630  0.11500  Biso   1.000  O
  O155     1.0000 0.14380  0.80070  0.29020  Biso   1.000  O
  O156     1.0000 0.10090  0.54880  0.80790  Biso   1.000  O
  O157     1.0000 0.03340  0.69660  0.83770  Biso   1.000  O
  O158     1.0000 0.22610  0.82000  0.28250  Biso   1.000  O
  O159     1.0000 0.11280  0.70120  0.79480  Biso   1.000  O
  O160     1.0000 0.13670  0.61610  0.86230  Biso   1.000  O
  O161     1.0000 0.20110  0.75560  0.35380  Biso   1.000  O
  O162     1.0000 0.31470  0.47590  0.93970  Biso   1.000  O
  U28      1.0000 0.49961  0.12856  0.28319  Biso   1.000  U
  U29      1.0000 0.69083  0.16863  0.69543  Biso   1.000  U
  U30      1.0000 0.79269  0.93448  0.66244  Biso   1.000  U
  S37      1.0000 0.60008  0.07946  0.36710  Biso   1.000  S
  S38      1.0000 0.72570  0.04365  0.67341  Biso   1.000  S
  S39      1.0000 0.57404  0.22887  0.32471  Biso   1.000  S
  S40      1.0000 0.69203  0.28019  0.79206  Biso   1.000  S
  O163     1.0000 0.49200  0.04190  0.29360  Biso   1.000  O
  O164     1.0000 0.77150  0.01780  0.67720  Biso   1.000  O
  O165     1.0000 0.60750  0.05200  0.42940  Biso   1.000  O
  O166     1.0000 0.73520  0.09510  0.66650  Biso   1.000  O
  O167     1.0000 0.55270  0.10220  0.37210  Biso   1.000  O
  O168     1.0000 0.69770  0.24890  0.73250  Biso   1.000  O
  O169     1.0000 0.69780  0.03520  0.73570  Biso   1.000  O
  O170     1.0000 0.58770  0.25170  0.38740  Biso   1.000  O
  O171     1.0000 0.55890  0.26530  0.27490  Biso   1.000  O
  O172     1.0000 0.69820  0.02630  0.61500  Biso   1.000  O
  O173     1.0000 0.64380  0.30070  0.79020  Biso   1.000  O
  O174     1.0000 0.60090  0.04880  0.30790  Biso   1.000  O
  O175     1.0000 0.53340  0.19660  0.33770  Biso   1.000  O
  O176     1.0000 0.72610  0.32000  0.78250  Biso   1.000  O
  O177     1.0000 0.61280  0.20120  0.29480  Biso   1.000  O
  O178     1.0000 0.63670  0.11610  0.36230  Biso   1.000  O
  O179     1.0000 0.70110  0.25560  0.85380  Biso   1.000  O
  O180     1.0000 0.81470  0.97590  0.43970  Biso   1.000  O
  U31      1.0000 0.00039  0.37144  0.78319  Biso   1.000  U
  U32      1.0000 0.80917  0.33137  0.19543  Biso   1.000  U
  U33      1.0000 0.70731  0.56552  0.16244  Biso   1.000  U
  S41      1.0000 0.89992  0.42054  0.86710  Biso   1.000  S
  S42      1.0000 0.77430  0.45635  0.17341  Biso   1.000  S
  S43      1.0000 0.92596  0.27113  0.82471  Biso   1.000  S
  S44      1.0000 0.80797  0.21981  0.29206  Biso   1.000  S
  O181     1.0000 0.00800  0.45810  0.79360  Biso   1.000  O
  O182     1.0000 0.72850  0.48220  0.17720  Biso   1.000  O
  O183     1.0000 0.89250  0.44800  0.92940  Biso   1.000  O
  O184     1.0000 0.76480  0.40490  0.16650  Biso   1.000  O
  O185     1.0000 0.94730  0.39780  0.87210  Biso   1.000  O
  O186     1.0000 0.80230  0.25110  0.23250  Biso   1.000  O
  O187     1.0000 0.80220  0.46480  0.23570  Biso   1.000  O
  O188     1.0000 0.91230  0.24830  0.88740  Biso   1.000  O
  O189     1.0000 0.94110  0.23470  0.77490  Biso   1.000  O
  O190     1.0000 0.80180  0.47370  0.11500  Biso   1.000  O
  O191     1.0000 0.85620  0.19930  0.29020  Biso   1.000  O
  O192     1.0000 0.89910  0.45120  0.80790  Biso   1.000  O
  O193     1.0000 0.96660  0.30340  0.83770  Biso   1.000  O
  O194     1.0000 0.77390  0.18000  0.28250  Biso   1.000  O
  O195     1.0000 0.88720  0.29880  0.79480  Biso   1.000  O
  O196     1.0000 0.86330  0.38390  0.86230  Biso   1.000  O
  O197     1.0000 0.79890  0.24440  0.35380  Biso   1.000  O
  O198     1.0000 0.68530  0.52410  0.93970  Biso   1.000  O
  U34      1.0000 0.50039  0.87144  0.28319  Biso   1.000  U
  U35      1.0000 0.30917  0.83137  0.69543  Biso   1.000  U
  U36      1.0000 0.20731  0.06552  0.66244  Biso   1.000  U
  S45      1.0000 0.39992  0.92054  0.36710  Biso   1.000  S
  S46      1.0000 0.27430  0.95635  0.67341  Biso   1.000  S
  S47      1.0000 0.42596  0.77113  0.32471  Biso   1.000  S
  S48      1.0000 0.30797  0.71981  0.79206  Biso   1.000  S
  O199     1.0000 0.50800  0.95810  0.29360  Biso   1.000  O
  O200     1.0000 0.22850  0.98220  0.67720  Biso   1.000  O
  O201     1.0000 0.39250  0.94800  0.42940  Biso   1.000  O
  O202     1.0000 0.26480  0.90490  0.66650  Biso   1.000  O
  O203     1.0000 0.44730  0.89780  0.37210  Biso   1.000  O
  O204     1.0000 0.30230  0.75110  0.73250  Biso   1.000  O
  O205     1.0000 0.30220  0.96480  0.73570  Biso   1.000  O
  O206     1.0000 0.41230  0.74830  0.38740  Biso   1.000  O
  O207     1.0000 0.44110  0.73470  0.27490  Biso   1.000  O
  O208     1.0000 0.30180  0.97370  0.61500  Biso   1.000  O
  O209     1.0000 0.35620  0.69930  0.79020  Biso   1.000  O
  O210     1.0000 0.39910  0.95120  0.30790  Biso   1.000  O
  O211     1.0000 0.46660  0.80340  0.33770  Biso   1.000  O
  O212     1.0000 0.27390  0.68000  0.78250  Biso   1.000  O
  O213     1.0000 0.38720  0.79880  0.29480  Biso   1.000  O
  O214     1.0000 0.36330  0.88390  0.36230  Biso   1.000  O
  O215     1.0000 0.29890  0.74440  0.85380  Biso   1.000  O
  O216     1.0000 0.18530  0.02410  0.43970  Biso   1.000  O
  U37      1.0000 0.37144  0.99961  0.78319  Biso   1.000  U
  U38      1.0000 0.33137  0.19083  0.19543  Biso   1.000  U
  U39      1.0000 0.56552  0.29269  0.16244  Biso   1.000  U
  S49      1.0000 0.42054  0.10008  0.86710  Biso   1.000  S
  S50      1.0000 0.45635  0.22570  0.17341  Biso   1.000  S
  S51      1.0000 0.27113  0.07404  0.82471  Biso   1.000  S
  S52      1.0000 0.21981  0.19203  0.29206  Biso   1.000  S
  O217     1.0000 0.45810  0.99200  0.79360  Biso   1.000  O
  O218     1.0000 0.48220  0.27150  0.17720  Biso   1.000  O
  O219     1.0000 0.44800  0.10750  0.92940  Biso   1.000  O
  O220     1.0000 0.40490  0.23520  0.16650  Biso   1.000  O
  O221     1.0000 0.39780  0.05270  0.87210  Biso   1.000  O
  O222     1.0000 0.25110  0.19770  0.23250  Biso   1.000  O
  O223     1.0000 0.46480  0.19780  0.23570  Biso   1.000  O
  O224     1.0000 0.24830  0.08770  0.88740  Biso   1.000  O
  O225     1.0000 0.23470  0.05890  0.77490  Biso   1.000  O
  O226     1.0000 0.47370  0.19820  0.11500  Biso   1.000  O
  O227     1.0000 0.19930  0.14380  0.29020  Biso   1.000  O
  O228     1.0000 0.45120  0.10090  0.80790  Biso   1.000  O
  O229     1.0000 0.30340  0.03340  0.83770  Biso   1.000  O
  O230     1.0000 0.18000  0.22610  0.28250  Biso   1.000  O
  O231     1.0000 0.29880  0.11280  0.79480  Biso   1.000  O
  O232     1.0000 0.38390  0.13670  0.86230  Biso   1.000  O
  O233     1.0000 0.24440  0.20110  0.35380  Biso   1.000  O
  O234     1.0000 0.52410  0.31470  0.93970  Biso   1.000  O
  U40      1.0000 0.87144  0.49961  0.28319  Biso   1.000  U
  U41      1.0000 0.83137  0.69083  0.69543  Biso   1.000  U
  U42      1.0000 0.06552  0.79269  0.66244  Biso   1.000  U
  S53      1.0000 0.92054  0.60008  0.36710  Biso   1.000  S
  S54      1.0000 0.95635  0.72570  0.67341  Biso   1.000  S
  S55      1.0000 0.77113  0.57404  0.32471  Biso   1.000  S
  S56      1.0000 0.71981  0.69203  0.79206  Biso   1.000  S
  O235     1.0000 0.95810  0.49200  0.29360  Biso   1.000  O
  O236     1.0000 0.98220  0.77150  0.67720  Biso   1.000  O
  O237     1.0000 0.94800  0.60750  0.42940  Biso   1.000  O
  O238     1.0000 0.90490  0.73520  0.66650  Biso   1.000  O
  O239     1.0000 0.89780  0.55270  0.37210  Biso   1.000  O
  O240     1.0000 0.75110  0.69770  0.73250  Biso   1.000  O
  O241     1.0000 0.96480  0.69780  0.73570  Biso   1.000  O
  O242     1.0000 0.74830  0.58770  0.38740  Biso   1.000  O
  O243     1.0000 0.73470  0.55890  0.27490  Biso   1.000  O
  O244     1.0000 0.97370  0.69820  0.61500  Biso   1.000  O
  O245     1.0000 0.69930  0.64380  0.79020  Biso   1.000  O
  O246     1.0000 0.95120  0.60090  0.30790  Biso   1.000  O
  O247     1.0000 0.80340  0.53340  0.33770  Biso   1.000  O
  O248     1.0000 0.68000  0.72610  0.78250  Biso   1.000  O
  O249     1.0000 0.79880  0.61280  0.29480  Biso   1.000  O
  O250     1.0000 0.88390  0.63670  0.36230  Biso   1.000  O
  O251     1.0000 0.74440  0.70110  0.85380  Biso   1.000  O
  O252     1.0000 0.02410  0.81470  0.43970  Biso   1.000  O
  U43      1.0000 0.62856  0.00039  0.78319  Biso   1.000  U
  U44      1.0000 0.66863  0.80917  0.19543  Biso   1.000  U
  U45      1.0000 0.43448  0.70731  0.16244  Biso   1.000  U
  S57      1.0000 0.57946  0.89992  0.86710  Biso   1.000  S
  S58      1.0000 0.54365  0.77430  0.17341  Biso   1.000  S
  S59      1.0000 0.72887  0.92596  0.82471  Biso   1.000  S
  S60      1.0000 0.78019  0.80797  0.29206  Biso   1.000  S
  O253     1.0000 0.54190  0.00800  0.79360  Biso   1.000  O
  O254     1.0000 0.51780  0.72850  0.17720  Biso   1.000  O
  O255     1.0000 0.55200  0.89250  0.92940  Biso   1.000  O
  O256     1.0000 0.59510  0.76480  0.16650  Biso   1.000  O
  O257     1.0000 0.60220  0.94730  0.87210  Biso   1.000  O
  O258     1.0000 0.74890  0.80230  0.23250  Biso   1.000  O
  O259     1.0000 0.53520  0.80220  0.23570  Biso   1.000  O
  O260     1.0000 0.75170  0.91230  0.88740  Biso   1.000  O
  O261     1.0000 0.76530  0.94110  0.77490  Biso   1.000  O
  O262     1.0000 0.52630  0.80180  0.11500  Biso   1.000  O
  O263     1.0000 0.80070  0.85620  0.29020  Biso   1.000  O
  O264     1.0000 0.54880  0.89910  0.80790  Biso   1.000  O
  O265     1.0000 0.69660  0.96660  0.83770  Biso   1.000  O
  O266     1.0000 0.82000  0.77390  0.28250  Biso   1.000  O
  O267     1.0000 0.70120  0.88720  0.79480  Biso   1.000  O
  O268     1.0000 0.61610  0.86330  0.86230  Biso   1.000  O
  O269     1.0000 0.75560  0.79890  0.35380  Biso   1.000  O
  O270     1.0000 0.47590  0.68530  0.93970  Biso   1.000  O
  U46      1.0000 0.12856  0.50039  0.28319  Biso   1.000  U
  U47      1.0000 0.16863  0.30917  0.69543  Biso   1.000  U
  U48      1.0000 0.93448  0.20731  0.66244  Biso   1.000  U
  S61      1.0000 0.07946  0.39992  0.36710  Biso   1.000  S
  S62      1.0000 0.04365  0.27430  0.67341  Biso   1.000  S
  S63      1.0000 0.22887  0.42596  0.32471  Biso   1.000  S
  S64      1.0000 0.28019  0.30797  0.79206  Biso   1.000  S
  O271     1.0000 0.04190  0.50800  0.29360  Biso   1.000  O
  O272     1.0000 0.01780  0.22850  0.67720  Biso   1.000  O
  O273     1.0000 0.05200  0.39250  0.42940  Biso   1.000  O
  O274     1.0000 0.09510  0.26480  0.66650  Biso   1.000  O
  O275     1.0000 0.10220  0.44730  0.37210  Biso   1.000  O
  O276     1.0000 0.24890  0.30230  0.73250  Biso   1.000  O
  O277     1.0000 0.03520  0.30220  0.73570  Biso   1.000  O
  O278     1.0000 0.25170  0.41230  0.38740  Biso   1.000  O
  O279     1.0000 0.26530  0.44110  0.27490  Biso   1.000  O
  O280     1.0000 0.02630  0.30180  0.61500  Biso   1.000  O
  O281     1.0000 0.30070  0.35620  0.79020  Biso   1.000  O
  O282     1.0000 0.04880  0.39910  0.30790  Biso   1.000  O
  O283     1.0000 0.19660  0.46660  0.33770  Biso   1.000  O
  O284     1.0000 0.32000  0.27390  0.78250  Biso   1.000  O
  O285     1.0000 0.20120  0.38720  0.29480  Biso   1.000  O
  O286     1.0000 0.11610  0.36330  0.36230  Biso   1.000  O
  O287     1.0000 0.25560  0.29890  0.85380  Biso   1.000  O
  O288     1.0000 0.97590  0.18530  0.43970  Biso   1.000  O
  U49      1.0000 0.82397  0.46495  0.00000  Biso   1.000  U
  S65      1.0000 0.69719  0.49899  0.00000  Biso   1.000  S
  O289     1.0000 0.74470  0.48690  0.00000  Biso   1.000  O
  O290     1.0000 0.66490  0.46050  0.00000  Biso   1.000  O
  U50      1.0000 0.32397  0.96495  0.50000  Biso   1.000  U
  S66      1.0000 0.19719  0.99899  0.50000  Biso   1.000  S
  O291     1.0000 0.24470  0.98690  0.50000  Biso   1.000  O
  O292     1.0000 0.16490  0.96050  0.50000  Biso   1.000  O
  U51      1.0000 0.17603  0.53505  0.00000  Biso   1.000  U
  S67      1.0000 0.30281  0.50101  0.00000  Biso   1.000  S
  O293     1.0000 0.25530  0.51310  0.00000  Biso   1.000  O
  O294     1.0000 0.33510  0.53950  0.00000  Biso   1.000  O
  U52      1.0000 0.67603  0.03505  0.50000  Biso   1.000  U
  S68      1.0000 0.80281  0.00101  0.50000  Biso   1.000  S
  O295     1.0000 0.75530  0.01310  0.50000  Biso   1.000  O
  O296     1.0000 0.83510  0.03950  0.50000  Biso   1.000  O
  U53      1.0000 0.53505  0.82397  0.00000  Biso   1.000  U
  S69      1.0000 0.50101  0.69719  0.00000  Biso   1.000  S
  O297     1.0000 0.51310  0.74470  0.00000  Biso   1.000  O
  O298     1.0000 0.53950  0.66490  0.00000  Biso   1.000  O
  U54      1.0000 0.03505  0.32397  0.50000  Biso   1.000  U
  S70      1.0000 0.00101  0.19719  0.50000  Biso   1.000  S
  O299     1.0000 0.01310  0.24470  0.50000  Biso   1.000  O
  O300     1.0000 0.03950  0.16490  0.50000  Biso   1.000  O
  U55      1.0000 0.46495  0.17603  0.00000  Biso   1.000  U
  S71      1.0000 0.49899  0.30281  0.00000  Biso   1.000  S
  O301     1.0000 0.48690  0.25530  0.00000  Biso   1.000  O
  O302     1.0000 0.46050  0.33510  0.00000  Biso   1.000  O
  U56      1.0000 0.96495  0.67603  0.50000  Biso   1.000  U
  S72      1.0000 0.99899  0.80281  0.50000  Biso   1.000  S
  O303     1.0000 0.98690  0.75530  0.50000  Biso   1.000  O
  O304     1.0000 0.96050  0.83510  0.50000  Biso   1.000  O
  S73      1.0000 0.00000  0.50000  0.25000  Biso   1.000  S
  S74      1.0000 0.50000  0.00000  0.25000  Biso   1.000  S
  S75      1.0000 0.00000  0.50000  0.75000  Biso   1.000  S
  S76      1.0000 0.50000  0.00000  0.75000  Biso   1.000  S
