data_image0
_cell_length_a       15.749
_cell_length_b       16.425
_cell_length_c       15.725
_cell_angle_alpha    90
_cell_angle_beta     90
_cell_angle_gamma    90

_symmetry_space_group_name_H-M    "P 1"
_symmetry_int_tables_number       1

loop_
  _symmetry_equiv_pos_as_xyz
  'x, y, z'

loop_
  _atom_site_label
  _atom_site_occupancy
  _atom_site_fract_x
  _atom_site_fract_y
  _atom_site_fract_z
  _atom_site_thermal_displace_type
  _atom_site_B_iso_or_equiv
  _atom_site_type_symbol
  Zn1      1.0000 0.37410  0.03660  0.13500  Biso   1.000  Zn
  O1       1.0000 0.37400  0.91310  0.14200  Biso   1.000  O
  O2       1.0000 0.26000  0.54200  0.13600  Biso   1.000  O
  O3       1.0000 0.19800  0.66300  0.14400  Biso   1.000  O
  O4       1.0000 0.51200  0.90300  0.13700  Biso   1.000  O
  O5       1.0000 0.57000  0.59900  0.16600  Biso   1.000  O
  N1       1.0000 0.37700  0.04000  0.27100  Biso   1.000  N
  N2       1.0000 0.38400  0.04400  0.99600  Biso   1.000  N
  C1       1.0000 0.43500  0.78100  0.13100  Biso   1.000  C
  C2       1.0000 0.44100  0.87300  0.13700  Biso   1.000  C
  C3       1.0000 0.39000  0.05000  0.81800  Biso   1.000  C
  C4       1.0000 0.36900  0.97500  0.32300  Biso   1.000  C
  H1       1.0000 0.36660  0.92460  0.29580  Biso   1.000  H
  C5       1.0000 0.50800  0.73600  0.15000  Biso   1.000  C
  H2       1.0000 0.55530  0.75560  0.17860  Biso   1.000  H
  C6       1.0000 0.36500  0.97300  0.40700  Biso   1.000  C
  H3       1.0000 0.35220  0.92440  0.43460  Biso   1.000  H
  C7       1.0000 0.26500  0.61900  0.12300  Biso   1.000  C
  C8       1.0000 0.35000  0.66000  0.12100  Biso   1.000  C
  C9       1.0000 0.50000  0.65000  0.11600  Biso   1.000  C
  C10      1.0000 0.41300  0.10900  0.87500  Biso   1.000  C
  H4       1.0000 0.43210  0.15720  0.85160  Biso   1.000  H
  C11      1.0000 0.38900  0.04800  0.72600  Biso   1.000  C
  C12      1.0000 0.42200  0.61300  0.13200  Biso   1.000  C
  H5       1.0000 0.41780  0.55890  0.14820  Biso   1.000  H
  C13      1.0000 0.35500  0.74300  0.12500  Biso   1.000  C
  H6       1.0000 0.30580  0.77410  0.12300  Biso   1.000  H
  C14      1.0000 0.39200  0.11100  0.31700  Biso   1.000  C
  H7       1.0000 0.40080  0.15950  0.28680  Biso   1.000  H
  C15      1.0000 0.41000  0.10500  0.95600  Biso   1.000  C
  H8       1.0000 0.42930  0.14990  0.98670  Biso   1.000  H
  C16      1.0000 0.36400  0.99500  0.87700  Biso   1.000  C
  H9       1.0000 0.35420  0.94530  0.85020  Biso   1.000  H
  C17      1.0000 0.39400  0.11400  0.40800  Biso   1.000  C
  H10      1.0000 0.40310  0.16250  0.43610  Biso   1.000  H
  C18      1.0000 0.38100  0.04400  0.45400  Biso   1.000  C
  C19      1.0000 0.69600  0.69000  0.43200  Biso   1.000  C
  C20      1.0000 0.69000  0.69600  0.34300  Biso   1.000  C
  C21      1.0000 0.77800  0.71900  0.32500  Biso   1.000  C
  H11      1.0000 0.78910  0.71810  0.26700  Biso   1.000  H
  C22      1.0000 0.63200  0.64400  0.49100  Biso   1.000  C
  C23      1.0000 0.85600  0.74300  0.37600  Biso   1.000  C
  H12      1.0000 0.90370  0.76670  0.35060  Biso   1.000  H
  C24      1.0000 0.85200  0.72700  0.46800  Biso   1.000  C
  C25      1.0000 0.64400  0.64100  0.30400  Biso   1.000  C
  C26      1.0000 0.64800  0.63200  0.19800  Biso   1.000  C
  H13      1.0000 0.65840  0.68510  0.17330  Biso   1.000  H
  H14      1.0000 0.69540  0.59670  0.18280  Biso   1.000  H
  C27      1.0000 0.58100  0.61200  0.43100  Biso   1.000  C
  H15      1.0000 0.53950  0.58240  0.45940  Biso   1.000  H
  C28      1.0000 0.56500  0.60400  0.35200  Biso   1.000  C
  H16      1.0000 0.51710  0.58140  0.32760  Biso   1.000  H
  C29      1.0000 0.76100  0.71400  0.49400  Biso   1.000  C
  C30      1.0000 0.67900  0.67400  0.61500  Biso   1.000  C
  H17      1.0000 0.68070  0.66420  0.67320  Biso   1.000  H
  C31      1.0000 0.84200  0.73400  0.62000  Biso   1.000  C
  H18      1.0000 0.85310  0.71950  0.67590  Biso   1.000  H
  C32      1.0000 0.92000  0.78400  0.48000  Biso   1.000  C
  H19      1.0000 0.94950  0.81820  0.44740  Biso   1.000  H
  C33      1.0000 0.60500  0.63600  0.57600  Biso   1.000  C
  H20      1.0000 0.55600  0.61450  0.59900  Biso   1.000  H
  C34      1.0000 0.75400  0.72300  0.59000  Biso   1.000  C
  C35      1.0000 0.91100  0.76600  0.56800  Biso   1.000  C
  H21      1.0000 0.96110  0.77550  0.59840  Biso   1.000  H
  C36      1.0000 0.35000  0.99200  0.58600  Biso   1.000  C
  H22      1.0000 0.32880  0.94790  0.55630  Biso   1.000  H
  C37      1.0000 0.42000  0.10900  0.68800  Biso   1.000  C
  H23      1.0000 0.44670  0.15030  0.71820  Biso   1.000  H
  C38      1.0000 0.35100  0.98700  0.67700  Biso   1.000  C
  H24      1.0000 0.32590  0.94220  0.70310  Biso   1.000  H
  C39      1.0000 0.41300  0.11300  0.59800  Biso   1.000  C
  H25      1.0000 0.43390  0.15910  0.57060  Biso   1.000  H
  C40      1.0000 0.37400  0.04700  0.54500  Biso   1.000  C
  C41      1.0000 0.34500  0.98600  0.96400  Biso   1.000  C
  H26      1.0000 0.31210  0.94600  0.99000  Biso   1.000  H
  Zn2      1.0000 0.62590  0.96340  0.13500  Biso   1.000  Zn
  O6       1.0000 0.62600  0.08690  0.14200  Biso   1.000  O
  O7       1.0000 0.74000  0.45800  0.13600  Biso   1.000  O
  O8       1.0000 0.80200  0.33700  0.14400  Biso   1.000  O
  O9       1.0000 0.48800  0.09700  0.13700  Biso   1.000  O
  O10      1.0000 0.43000  0.40100  0.16600  Biso   1.000  O
  N3       1.0000 0.62300  0.96000  0.27100  Biso   1.000  N
  N4       1.0000 0.61600  0.95600  0.99600  Biso   1.000  N
  C42      1.0000 0.56500  0.21900  0.13100  Biso   1.000  C
  C43      1.0000 0.55900  0.12700  0.13700  Biso   1.000  C
  C44      1.0000 0.61000  0.95000  0.81800  Biso   1.000  C
  C45      1.0000 0.63100  0.02500  0.32300  Biso   1.000  C
  H27      1.0000 0.63340  0.07540  0.29580  Biso   1.000  H
  C46      1.0000 0.49200  0.26400  0.15000  Biso   1.000  C
  H28      1.0000 0.44470  0.24440  0.17860  Biso   1.000  H
  C47      1.0000 0.63500  0.02700  0.40700  Biso   1.000  C
  H29      1.0000 0.64780  0.07560  0.43460  Biso   1.000  H
  C48      1.0000 0.73500  0.38100  0.12300  Biso   1.000  C
  C49      1.0000 0.65000  0.34000  0.12100  Biso   1.000  C
  C50      1.0000 0.50000  0.35000  0.11600  Biso   1.000  C
  C51      1.0000 0.58700  0.89100  0.87500  Biso   1.000  C
  H30      1.0000 0.56790  0.84280  0.85160  Biso   1.000  H
  C52      1.0000 0.61100  0.95200  0.72600  Biso   1.000  C
  C53      1.0000 0.57800  0.38700  0.13200  Biso   1.000  C
  H31      1.0000 0.58220  0.44110  0.14820  Biso   1.000  H
  C54      1.0000 0.64500  0.25700  0.12500  Biso   1.000  C
  H32      1.0000 0.69420  0.22590  0.12300  Biso   1.000  H
  C55      1.0000 0.60800  0.88900  0.31700  Biso   1.000  C
  H33      1.0000 0.59920  0.84050  0.28680  Biso   1.000  H
  C56      1.0000 0.59000  0.89500  0.95600  Biso   1.000  C
  H34      1.0000 0.57070  0.85010  0.98670  Biso   1.000  H
  C57      1.0000 0.63600  0.00500  0.87700  Biso   1.000  C
  H35      1.0000 0.64580  0.05470  0.85020  Biso   1.000  H
  C58      1.0000 0.60600  0.88600  0.40800  Biso   1.000  C
  H36      1.0000 0.59690  0.83750  0.43610  Biso   1.000  H
  C59      1.0000 0.61900  0.95600  0.45400  Biso   1.000  C
  C60      1.0000 0.30400  0.31000  0.43200  Biso   1.000  C
  C61      1.0000 0.31000  0.30400  0.34300  Biso   1.000  C
  C62      1.0000 0.22200  0.28100  0.32500  Biso   1.000  C
  H37      1.0000 0.21090  0.28190  0.26700  Biso   1.000  H
  C63      1.0000 0.36800  0.35600  0.49100  Biso   1.000  C
  C64      1.0000 0.14400  0.25700  0.37600  Biso   1.000  C
  H38      1.0000 0.09630  0.23330  0.35060  Biso   1.000  H
  C65      1.0000 0.14800  0.27300  0.46800  Biso   1.000  C
  C66      1.0000 0.35600  0.35900  0.30400  Biso   1.000  C
  C67      1.0000 0.35200  0.36800  0.19800  Biso   1.000  C
  H39      1.0000 0.34160  0.31490  0.17330  Biso   1.000  H
  H40      1.0000 0.30460  0.40330  0.18280  Biso   1.000  H
  C68      1.0000 0.41900  0.38800  0.43100  Biso   1.000  C
  H41      1.0000 0.46050  0.41760  0.45940  Biso   1.000  H
  C69      1.0000 0.43500  0.39600  0.35200  Biso   1.000  C
  H42      1.0000 0.48290  0.41860  0.32760  Biso   1.000  H
  C70      1.0000 0.23900  0.28600  0.49400  Biso   1.000  C
  C71      1.0000 0.32100  0.32600  0.61500  Biso   1.000  C
  H43      1.0000 0.31930  0.33580  0.67320  Biso   1.000  H
  C72      1.0000 0.15800  0.26600  0.62000  Biso   1.000  C
  H44      1.0000 0.14690  0.28050  0.67590  Biso   1.000  H
  C73      1.0000 0.08000  0.21600  0.48000  Biso   1.000  C
  H45      1.0000 0.05050  0.18180  0.44740  Biso   1.000  H
  C74      1.0000 0.39500  0.36400  0.57600  Biso   1.000  C
  H46      1.0000 0.44400  0.38550  0.59900  Biso   1.000  H
  C75      1.0000 0.24600  0.27700  0.59000  Biso   1.000  C
  C76      1.0000 0.08900  0.23400  0.56800  Biso   1.000  C
  H47      1.0000 0.03890  0.22450  0.59840  Biso   1.000  H
  C77      1.0000 0.65000  0.00800  0.58600  Biso   1.000  C
  H48      1.0000 0.67120  0.05210  0.55630  Biso   1.000  H
  C78      1.0000 0.58000  0.89100  0.68800  Biso   1.000  C
  H49      1.0000 0.55330  0.84970  0.71820  Biso   1.000  H
  C79      1.0000 0.64900  0.01300  0.67700  Biso   1.000  C
  H50      1.0000 0.67410  0.05780  0.70310  Biso   1.000  H
  C80      1.0000 0.58700  0.88700  0.59800  Biso   1.000  C
  H51      1.0000 0.56610  0.84090  0.57060  Biso   1.000  H
  C81      1.0000 0.62600  0.95300  0.54500  Biso   1.000  C
  C82      1.0000 0.65500  0.01400  0.96400  Biso   1.000  C
  H52      1.0000 0.68790  0.05400  0.99000  Biso   1.000  H
  Zn3      1.0000 0.87410  0.46340  0.13500  Biso   1.000  Zn
  O11      1.0000 0.87400  0.58690  0.14200  Biso   1.000  O
  O12      1.0000 0.76000  0.95800  0.13600  Biso   1.000  O
  O13      1.0000 0.69800  0.83700  0.14400  Biso   1.000  O
  O14      1.0000 0.01200  0.59700  0.13700  Biso   1.000  O
  O15      1.0000 0.07000  0.90100  0.16600  Biso   1.000  O
  N5       1.0000 0.87700  0.46000  0.27100  Biso   1.000  N
  N6       1.0000 0.88400  0.45600  0.99600  Biso   1.000  N
  C83      1.0000 0.93500  0.71900  0.13100  Biso   1.000  C
  C84      1.0000 0.94100  0.62700  0.13700  Biso   1.000  C
  C85      1.0000 0.89000  0.45000  0.81800  Biso   1.000  C
  C86      1.0000 0.86900  0.52500  0.32300  Biso   1.000  C
  H53      1.0000 0.86660  0.57540  0.29580  Biso   1.000  H
  C87      1.0000 0.00800  0.76400  0.15000  Biso   1.000  C
  H54      1.0000 0.05530  0.74440  0.17860  Biso   1.000  H
  C88      1.0000 0.86500  0.52700  0.40700  Biso   1.000  C
  H55      1.0000 0.85220  0.57560  0.43460  Biso   1.000  H
  C89      1.0000 0.76500  0.88100  0.12300  Biso   1.000  C
  C90      1.0000 0.85000  0.84000  0.12100  Biso   1.000  C
  C91      1.0000 0.00000  0.85000  0.11600  Biso   1.000  C
  C92      1.0000 0.91300  0.39100  0.87500  Biso   1.000  C
  H56      1.0000 0.93210  0.34280  0.85160  Biso   1.000  H
  C93      1.0000 0.88900  0.45200  0.72600  Biso   1.000  C
  C94      1.0000 0.92200  0.88700  0.13200  Biso   1.000  C
  H57      1.0000 0.91780  0.94110  0.14820  Biso   1.000  H
  C95      1.0000 0.85500  0.75700  0.12500  Biso   1.000  C
  H58      1.0000 0.80580  0.72590  0.12300  Biso   1.000  H
  C96      1.0000 0.89200  0.38900  0.31700  Biso   1.000  C
  H59      1.0000 0.90080  0.34050  0.28680  Biso   1.000  H
  C97      1.0000 0.91000  0.39500  0.95600  Biso   1.000  C
  H60      1.0000 0.92930  0.35010  0.98670  Biso   1.000  H
  C98      1.0000 0.86400  0.50500  0.87700  Biso   1.000  C
  H61      1.0000 0.85420  0.55470  0.85020  Biso   1.000  H
  C99      1.0000 0.89400  0.38600  0.40800  Biso   1.000  C
  H62      1.0000 0.90310  0.33750  0.43610  Biso   1.000  H
  C100     1.0000 0.88100  0.45600  0.45400  Biso   1.000  C
  C101     1.0000 0.19600  0.81000  0.43200  Biso   1.000  C
  C102     1.0000 0.19000  0.80400  0.34300  Biso   1.000  C
  C103     1.0000 0.27800  0.78100  0.32500  Biso   1.000  C
  H63      1.0000 0.28910  0.78190  0.26700  Biso   1.000  H
  C104     1.0000 0.13200  0.85600  0.49100  Biso   1.000  C
  C105     1.0000 0.35600  0.75700  0.37600  Biso   1.000  C
  H64      1.0000 0.40370  0.73330  0.35060  Biso   1.000  H
  C106     1.0000 0.35200  0.77300  0.46800  Biso   1.000  C
  C107     1.0000 0.14400  0.85900  0.30400  Biso   1.000  C
  C108     1.0000 0.14800  0.86800  0.19800  Biso   1.000  C
  H65      1.0000 0.15840  0.81490  0.17330  Biso   1.000  H
  H66      1.0000 0.19540  0.90330  0.18280  Biso   1.000  H
  C109     1.0000 0.08100  0.88800  0.43100  Biso   1.000  C
  H67      1.0000 0.03950  0.91760  0.45940  Biso   1.000  H
  C110     1.0000 0.06500  0.89600  0.35200  Biso   1.000  C
  H68      1.0000 0.01710  0.91860  0.32760  Biso   1.000  H
  C111     1.0000 0.26100  0.78600  0.49400  Biso   1.000  C
  C112     1.0000 0.17900  0.82600  0.61500  Biso   1.000  C
  H69      1.0000 0.18070  0.83580  0.67320  Biso   1.000  H
  C113     1.0000 0.34200  0.76600  0.62000  Biso   1.000  C
  H70      1.0000 0.35310  0.78050  0.67590  Biso   1.000  H
  C114     1.0000 0.42000  0.71600  0.48000  Biso   1.000  C
  H71      1.0000 0.44950  0.68180  0.44740  Biso   1.000  H
  C115     1.0000 0.10500  0.86400  0.57600  Biso   1.000  C
  H72      1.0000 0.05600  0.88550  0.59900  Biso   1.000  H
  C116     1.0000 0.25400  0.77700  0.59000  Biso   1.000  C
  C117     1.0000 0.41100  0.73400  0.56800  Biso   1.000  C
  H73      1.0000 0.46110  0.72450  0.59840  Biso   1.000  H
  C118     1.0000 0.85000  0.50800  0.58600  Biso   1.000  C
  H74      1.0000 0.82880  0.55210  0.55630  Biso   1.000  H
  C119     1.0000 0.92000  0.39100  0.68800  Biso   1.000  C
  H75      1.0000 0.94670  0.34970  0.71820  Biso   1.000  H
  C120     1.0000 0.85100  0.51300  0.67700  Biso   1.000  C
  H76      1.0000 0.82590  0.55780  0.70310  Biso   1.000  H
  C121     1.0000 0.91300  0.38700  0.59800  Biso   1.000  C
  H77      1.0000 0.93390  0.34090  0.57060  Biso   1.000  H
  C122     1.0000 0.87400  0.45300  0.54500  Biso   1.000  C
  C123     1.0000 0.84500  0.51400  0.96400  Biso   1.000  C
  H78      1.0000 0.81210  0.55400  0.99000  Biso   1.000  H
  Zn4      1.0000 0.12590  0.53660  0.13500  Biso   1.000  Zn
  O16      1.0000 0.12600  0.41310  0.14200  Biso   1.000  O
  O17      1.0000 0.24000  0.04200  0.13600  Biso   1.000  O
  O18      1.0000 0.30200  0.16300  0.14400  Biso   1.000  O
  O19      1.0000 0.98800  0.40300  0.13700  Biso   1.000  O
  O20      1.0000 0.93000  0.09900  0.16600  Biso   1.000  O
  N7       1.0000 0.12300  0.54000  0.27100  Biso   1.000  N
  N8       1.0000 0.11600  0.54400  0.99600  Biso   1.000  N
  C124     1.0000 0.06500  0.28100  0.13100  Biso   1.000  C
  C125     1.0000 0.05900  0.37300  0.13700  Biso   1.000  C
  C126     1.0000 0.11000  0.55000  0.81800  Biso   1.000  C
  C127     1.0000 0.13100  0.47500  0.32300  Biso   1.000  C
  H79      1.0000 0.13340  0.42460  0.29580  Biso   1.000  H
  C128     1.0000 0.99200  0.23600  0.15000  Biso   1.000  C
  H80      1.0000 0.94470  0.25560  0.17860  Biso   1.000  H
  C129     1.0000 0.13500  0.47300  0.40700  Biso   1.000  C
  H81      1.0000 0.14780  0.42440  0.43460  Biso   1.000  H
  C130     1.0000 0.23500  0.11900  0.12300  Biso   1.000  C
  C131     1.0000 0.15000  0.16000  0.12100  Biso   1.000  C
  C132     1.0000 0.00000  0.15000  0.11600  Biso   1.000  C
  C133     1.0000 0.08700  0.60900  0.87500  Biso   1.000  C
  H82      1.0000 0.06790  0.65720  0.85160  Biso   1.000  H
  C134     1.0000 0.11100  0.54800  0.72600  Biso   1.000  C
  C135     1.0000 0.07800  0.11300  0.13200  Biso   1.000  C
  H83      1.0000 0.08220  0.05890  0.14820  Biso   1.000  H
  C136     1.0000 0.14500  0.24300  0.12500  Biso   1.000  C
  H84      1.0000 0.19420  0.27410  0.12300  Biso   1.000  H
  C137     1.0000 0.10800  0.61100  0.31700  Biso   1.000  C
  H85      1.0000 0.09920  0.65950  0.28680  Biso   1.000  H
  C138     1.0000 0.09000  0.60500  0.95600  Biso   1.000  C
  H86      1.0000 0.07070  0.64990  0.98670  Biso   1.000  H
  C139     1.0000 0.13600  0.49500  0.87700  Biso   1.000  C
  H87      1.0000 0.14580  0.44530  0.85020  Biso   1.000  H
  C140     1.0000 0.10600  0.61400  0.40800  Biso   1.000  C
  H88      1.0000 0.09690  0.66250  0.43610  Biso   1.000  H
  C141     1.0000 0.11900  0.54400  0.45400  Biso   1.000  C
  C142     1.0000 0.80400  0.19000  0.43200  Biso   1.000  C
  C143     1.0000 0.81000  0.19600  0.34300  Biso   1.000  C
  C144     1.0000 0.72200  0.21900  0.32500  Biso   1.000  C
  H89      1.0000 0.71090  0.21810  0.26700  Biso   1.000  H
  C145     1.0000 0.86800  0.14400  0.49100  Biso   1.000  C
  C146     1.0000 0.64400  0.24300  0.37600  Biso   1.000  C
  H90      1.0000 0.59630  0.26670  0.35060  Biso   1.000  H
  C147     1.0000 0.64800  0.22700  0.46800  Biso   1.000  C
  C148     1.0000 0.85600  0.14100  0.30400  Biso   1.000  C
  C149     1.0000 0.85200  0.13200  0.19800  Biso   1.000  C
  H91      1.0000 0.84160  0.18510  0.17330  Biso   1.000  H
  H92      1.0000 0.80460  0.09670  0.18280  Biso   1.000  H
  C150     1.0000 0.91900  0.11200  0.43100  Biso   1.000  C
  H93      1.0000 0.96050  0.08240  0.45940  Biso   1.000  H
  C151     1.0000 0.93500  0.10400  0.35200  Biso   1.000  C
  H94      1.0000 0.98290  0.08140  0.32760  Biso   1.000  H
  C152     1.0000 0.73900  0.21400  0.49400  Biso   1.000  C
  C153     1.0000 0.82100  0.17400  0.61500  Biso   1.000  C
  H95      1.0000 0.81930  0.16420  0.67320  Biso   1.000  H
  C154     1.0000 0.65800  0.23400  0.62000  Biso   1.000  C
  H96      1.0000 0.64690  0.21950  0.67590  Biso   1.000  H
  C155     1.0000 0.58000  0.28400  0.48000  Biso   1.000  C
  H97      1.0000 0.55050  0.31820  0.44740  Biso   1.000  H
  C156     1.0000 0.89500  0.13600  0.57600  Biso   1.000  C
  H98      1.0000 0.94400  0.11450  0.59900  Biso   1.000  H
  C157     1.0000 0.74600  0.22300  0.59000  Biso   1.000  C
  C158     1.0000 0.58900  0.26600  0.56800  Biso   1.000  C
  H99      1.0000 0.53890  0.27550  0.59840  Biso   1.000  H
  C159     1.0000 0.15000  0.49200  0.58600  Biso   1.000  C
  H100     1.0000 0.17120  0.44790  0.55630  Biso   1.000  H
  C160     1.0000 0.08000  0.60900  0.68800  Biso   1.000  C
  H101     1.0000 0.05330  0.65030  0.71820  Biso   1.000  H
  C161     1.0000 0.14900  0.48700  0.67700  Biso   1.000  C
  H102     1.0000 0.17410  0.44220  0.70310  Biso   1.000  H
  C162     1.0000 0.08700  0.61300  0.59800  Biso   1.000  C
  H103     1.0000 0.06610  0.65910  0.57060  Biso   1.000  H
  C163     1.0000 0.12600  0.54700  0.54500  Biso   1.000  C
  C164     1.0000 0.15500  0.48600  0.96400  Biso   1.000  C
  H104     1.0000 0.18790  0.44600  0.99000  Biso   1.000  H
