data_image0
_cell_length_a       10.872
_cell_length_b       16.737
_cell_length_c       17.38
_cell_angle_alpha    114.48
_cell_angle_beta     92.95
_cell_angle_gamma    99.63

_symmetry_space_group_name_H-M    "P 1"
_symmetry_int_tables_number       1

loop_
  _symmetry_equiv_pos_as_xyz
  'x, y, z'

loop_
  _atom_site_label
  _atom_site_occupancy
  _atom_site_fract_x
  _atom_site_fract_y
  _atom_site_fract_z
  _atom_site_thermal_displace_type
  _atom_site_B_iso_or_equiv
  _atom_site_type_symbol
  O1       1.0000 0.81880  0.99130  0.05150  Biso   1.000  O
  O2       1.0000 0.46350  0.23820  0.03830  Biso   1.000  O
  O3       1.0000 0.30430  0.17730  0.08800  Biso   1.000  O
  C1       1.0000 0.41480  0.18740  0.07080  Biso   1.000  C
  C2       1.0000 0.49280  0.13210  0.08950  Biso   1.000  C
  O4       1.0000 0.92880  0.92690  0.88800  Biso   1.000  O
  La1      1.0000 0.08260  0.14079  0.01261  Biso   1.000  La
  La2      1.0000 0.37069  0.34364  0.99611  Biso   1.000  La
  La3      1.0000 0.43860  0.86483  0.40578  Biso   1.000  La
  C3       1.0000 0.26160  0.97360  0.64400  Biso   1.000  C
  O5       1.0000 0.99260  0.25270  0.96810  Biso   1.000  O
  O6       1.0000 0.61180  0.13650  0.06630  Biso   1.000  O
  O7       1.0000 0.84100  0.35920  0.94700  Biso   1.000  O
  O8       1.0000 0.85230  0.12260  0.04030  Biso   1.000  O
  O9       1.0000 0.22600  0.16570  0.91270  Biso   1.000  O
  O10      1.0000 0.60000  0.37240  0.97030  Biso   1.000  O
  O11      1.0000 0.15370  0.32760  0.93180  Biso   1.000  O
  O12      1.0000 0.93500  0.05200  0.87260  Biso   1.000  O
  O13      1.0000 0.75910  0.96450  0.73260  Biso   1.000  O
  O14      1.0000 0.37520  0.21180  0.85110  Biso   1.000  O
  O15      1.0000 0.21990  0.32800  0.09360  Biso   1.000  O
  O16      1.0000 0.38240  0.00200  0.54540  Biso   1.000  O
  O17      1.0000 0.29610  0.48080  0.23700  Biso   1.000  O
  O18      1.0000 0.62510  0.49490  0.94620  Biso   1.000  O
  O19      1.0000 0.07860  0.27380  0.15580  Biso   1.000  O
  C4       1.0000 0.19410  0.42010  0.23360  Biso   1.000  C
  C5       1.0000 0.66200  0.42910  0.95060  Biso   1.000  C
  O20      1.0000 0.30830  0.05890  0.70400  Biso   1.000  O
  C6       1.0000 0.24920  0.06710  0.77430  Biso   1.000  C
  C7       1.0000 0.78780  0.06140  0.05500  Biso   1.000  C
  C8       1.0000 0.96070  0.36490  0.92480  Biso   1.000  C
  C9       1.0000 0.66170  0.07350  0.08040  Biso   1.000  C
  C10      1.0000 0.04130  0.31010  0.94380  Biso   1.000  C
  O21      1.0000 0.62580  0.02210  0.63960  Biso   1.000  O
  O22      1.0000 0.27410  0.86520  0.50870  Biso   1.000  O
  C11      1.0000 0.16320  0.33500  0.15600  Biso   1.000  C
  C12      1.0000 0.79040  0.41940  0.92820  Biso   1.000  C
  O23      1.0000 0.55460  0.88020  0.53960  Biso   1.000  O
  C13      1.0000 0.16940  0.98940  0.75870  Biso   1.000  C
  H1       1.0000 0.11950  0.97780  0.79630  Biso   1.000  H
  C14      1.0000 0.28600  0.15300  0.85020  Biso   1.000  C
  O24      1.0000 0.39360  0.70700  0.38290  Biso   1.000  O
  C15      1.0000 0.98190  0.42560  0.89260  Biso   1.000  C
  H2       1.0000 0.05520  0.44150  0.87240  Biso   1.000  H
  C16      1.0000 0.89790  0.96930  0.84800  Biso   1.000  C
  C17      1.0000 0.87240  0.46060  0.89500  Biso   1.000  C
  H3       1.0000 0.85970  0.50400  0.87690  Biso   1.000  H
  C18      1.0000 0.61770  0.93790  0.60810  Biso   1.000  C
  C19      1.0000 0.46730  0.06950  0.11900  Biso   1.000  C
  H4       1.0000 0.39380  0.05430  0.13940  Biso   1.000  H
  C20      1.0000 0.68910  0.90360  0.65810  Biso   1.000  C
  C21      1.0000 0.81530  0.91800  0.76750  Biso   1.000  C
  C22      1.0000 0.17700  0.92950  0.67440  Biso   1.000  C
  H5       1.0000 0.13200  0.87070  0.64510  Biso   1.000  H
  C23      1.0000 0.30890  0.94600  0.56110  Biso   1.000  C
  C24      1.0000 0.78260  0.82960  0.71830  Biso   1.000  C
  H6       1.0000 0.80730  0.78410  0.72880  Biso   1.000  H
  C25      1.0000 0.57750  0.03040  0.11280  Biso   1.000  C
  H7       1.0000 0.58860  0.98470  0.12810  Biso   1.000  H
  C26      1.0000 0.20560  0.54510  0.34890  Biso   1.000  C
  H8       1.0000 0.18760  0.58730  0.39980  Biso   1.000  H
  O25      1.0000 0.49590  0.61830  0.28460  Biso   1.000  O
  C27      1.0000 0.29940  0.55660  0.30810  Biso   1.000  C
  C28      1.0000 0.70060  0.81980  0.64510  Biso   1.000  C
  H9       1.0000 0.66320  0.76640  0.59840  Biso   1.000  H
  C29      1.0000 0.13630  0.45620  0.30130  Biso   1.000  C
  H10      1.0000 0.06460  0.42860  0.31480  Biso   1.000  H
  C30      1.0000 0.40670  0.63300  0.32610  Biso   1.000  C
  K1       1.0000 0.73014  0.25633  0.01824  Biso   1.000  K
  O26      1.0000 0.18120  0.00870  0.94850  Biso   1.000  O
  O27      1.0000 0.53650  0.76180  0.96170  Biso   1.000  O
  O28      1.0000 0.69570  0.82270  0.91200  Biso   1.000  O
  C31      1.0000 0.58520  0.81260  0.92920  Biso   1.000  C
  C32      1.0000 0.50720  0.86790  0.91050  Biso   1.000  C
  O29      1.0000 0.07120  0.07310  0.11200  Biso   1.000  O
  La4      1.0000 0.91740  0.85921  0.98739  Biso   1.000  La
  La5      1.0000 0.62931  0.65636  0.00389  Biso   1.000  La
  La6      1.0000 0.56140  0.13517  0.59422  Biso   1.000  La
  C33      1.0000 0.73840  0.02640  0.35600  Biso   1.000  C
  O30      1.0000 0.00740  0.74730  0.03190  Biso   1.000  O
  O31      1.0000 0.38820  0.86350  0.93370  Biso   1.000  O
  O32      1.0000 0.15900  0.64080  0.05300  Biso   1.000  O
  O33      1.0000 0.14770  0.87740  0.95970  Biso   1.000  O
  O34      1.0000 0.77400  0.83430  0.08730  Biso   1.000  O
  O35      1.0000 0.40000  0.62760  0.02970  Biso   1.000  O
  O36      1.0000 0.84630  0.67240  0.06820  Biso   1.000  O
  O37      1.0000 0.06500  0.94800  0.12740  Biso   1.000  O
  O38      1.0000 0.24090  0.03550  0.26740  Biso   1.000  O
  O39      1.0000 0.62480  0.78820  0.14890  Biso   1.000  O
  O40      1.0000 0.78010  0.67200  0.90640  Biso   1.000  O
  O41      1.0000 0.61760  0.99800  0.45460  Biso   1.000  O
  O42      1.0000 0.70390  0.51920  0.76300  Biso   1.000  O
  O43      1.0000 0.37490  0.50510  0.05380  Biso   1.000  O
  O44      1.0000 0.92140  0.72620  0.84420  Biso   1.000  O
  C34      1.0000 0.80590  0.57990  0.76640  Biso   1.000  C
  C35      1.0000 0.33800  0.57090  0.04940  Biso   1.000  C
  O45      1.0000 0.69170  0.94110  0.29600  Biso   1.000  O
  C36      1.0000 0.75080  0.93290  0.22570  Biso   1.000  C
  C37      1.0000 0.21220  0.93860  0.94500  Biso   1.000  C
  C38      1.0000 0.03930  0.63510  0.07520  Biso   1.000  C
  C39      1.0000 0.33830  0.92650  0.91960  Biso   1.000  C
  C40      1.0000 0.95870  0.68990  0.05620  Biso   1.000  C
  O46      1.0000 0.37420  0.97790  0.36040  Biso   1.000  O
  O47      1.0000 0.72590  0.13480  0.49130  Biso   1.000  O
  C41      1.0000 0.83680  0.66500  0.84400  Biso   1.000  C
  C42      1.0000 0.20960  0.58060  0.07180  Biso   1.000  C
  O48      1.0000 0.44540  0.11980  0.46040  Biso   1.000  O
  C43      1.0000 0.83060  0.01060  0.24130  Biso   1.000  C
  H11      1.0000 0.88050  0.02220  0.20370  Biso   1.000  H
  C44      1.0000 0.71400  0.84700  0.14980  Biso   1.000  C
  O49      1.0000 0.60640  0.29300  0.61710  Biso   1.000  O
  C45      1.0000 0.01810  0.57440  0.10740  Biso   1.000  C
  H12      1.0000 0.94480  0.55850  0.12760  Biso   1.000  H
  C46      1.0000 0.10210  0.03070  0.15200  Biso   1.000  C
  C47      1.0000 0.12760  0.53940  0.10500  Biso   1.000  C
  H13      1.0000 0.14030  0.49600  0.12310  Biso   1.000  H
  C48      1.0000 0.38230  0.06210  0.39190  Biso   1.000  C
  C49      1.0000 0.53270  0.93050  0.88100  Biso   1.000  C
  H14      1.0000 0.60620  0.94570  0.86060  Biso   1.000  H
  C50      1.0000 0.31090  0.09640  0.34190  Biso   1.000  C
  C51      1.0000 0.18470  0.08200  0.23250  Biso   1.000  C
  C52      1.0000 0.82300  0.07050  0.32560  Biso   1.000  C
  H15      1.0000 0.86800  0.12930  0.35490  Biso   1.000  H
  C53      1.0000 0.69110  0.05400  0.43890  Biso   1.000  C
  C54      1.0000 0.21740  0.17040  0.28170  Biso   1.000  C
  H16      1.0000 0.19270  0.21590  0.27120  Biso   1.000  H
  C55      1.0000 0.42250  0.96960  0.88720  Biso   1.000  C
  H17      1.0000 0.41140  0.01530  0.87190  Biso   1.000  H
  C56      1.0000 0.79440  0.45490  0.65110  Biso   1.000  C
  H18      1.0000 0.81240  0.41270  0.60020  Biso   1.000  H
  O50      1.0000 0.50410  0.38170  0.71540  Biso   1.000  O
  C57      1.0000 0.70060  0.44340  0.69190  Biso   1.000  C
  C58      1.0000 0.29940  0.18020  0.35490  Biso   1.000  C
  H19      1.0000 0.33680  0.23360  0.40160  Biso   1.000  H
  C59      1.0000 0.86370  0.54380  0.69870  Biso   1.000  C
  H20      1.0000 0.93540  0.57140  0.68520  Biso   1.000  H
  C60      1.0000 0.59330  0.36700  0.67390  Biso   1.000  C
  K2       1.0000 0.26986  0.74367  0.98176  Biso   1.000  K
