data_image0
_cell_length_a       10.786
_cell_length_b       16.726
_cell_length_c       17.385
_cell_angle_alpha    114.67
_cell_angle_beta     93.29
_cell_angle_gamma    99.58

_symmetry_space_group_name_H-M    "P 1"
_symmetry_int_tables_number       1

loop_
  _symmetry_equiv_pos_as_xyz
  'x, y, z'

loop_
  _atom_site_label
  _atom_site_occupancy
  _atom_site_fract_x
  _atom_site_fract_y
  _atom_site_fract_z
  _atom_site_thermal_displace_type
  _atom_site_B_iso_or_equiv
  _atom_site_type_symbol
  O1       1.0000 0.81960  0.99120  0.04940  Biso   1.000  O
  O2       1.0000 0.46290  0.23990  0.03790  Biso   1.000  O
  O3       1.0000 0.30410  0.17990  0.08820  Biso   1.000  O
  C1       1.0000 0.41530  0.19030  0.07100  Biso   1.000  C
  C2       1.0000 0.49250  0.13480  0.09020  Biso   1.000  C
  O4       1.0000 0.92630  0.92050  0.88620  Biso   1.000  O
  Pr1      1.0000 0.08363  0.14059  0.01175  Biso   1.000  Pr
  Pr2      1.0000 0.37249  0.34309  0.99430  Biso   1.000  Pr
  Pr3      1.0000 0.43730  0.86677  0.40593  Biso   1.000  Pr
  C3       1.0000 0.26060  0.97160  0.64280  Biso   1.000  C
  O5       1.0000 0.99550  0.25050  0.96520  Biso   1.000  O
  O6       1.0000 0.61370  0.13850  0.06630  Biso   1.000  O
  O7       1.0000 0.84280  0.35850  0.94640  Biso   1.000  O
  O8       1.0000 0.85530  0.12250  0.03950  Biso   1.000  O
  O9       1.0000 0.22630  0.16460  0.91370  Biso   1.000  O
  O10      1.0000 0.60030  0.37430  0.97260  Biso   1.000  O
  O11      1.0000 0.15700  0.32520  0.92850  Biso   1.000  O
  O12      1.0000 0.93790  0.04840  0.87340  Biso   1.000  O
  O13      1.0000 0.76250  0.96290  0.73060  Biso   1.000  O
  O14      1.0000 0.37570  0.21070  0.85190  Biso   1.000  O
  O15      1.0000 0.22580  0.33140  0.09120  Biso   1.000  O
  O16      1.0000 0.38530  0.00160  0.54590  Biso   1.000  O
  O17      1.0000 0.29870  0.48320  0.23780  Biso   1.000  O
  O18      1.0000 0.62780  0.49770  0.94940  Biso   1.000  O
  O19      1.0000 0.08000  0.27470  0.15000  Biso   1.000  O
  C4       1.0000 0.19440  0.42190  0.23210  Biso   1.000  C
  C5       1.0000 0.66370  0.43050  0.95190  Biso   1.000  C
  O20      1.0000 0.30730  0.05740  0.70420  Biso   1.000  O
  C6       1.0000 0.24770  0.06450  0.77350  Biso   1.000  C
  C7       1.0000 0.79040  0.06150  0.05390  Biso   1.000  C
  C8       1.0000 0.96240  0.36330  0.92260  Biso   1.000  C
  C9       1.0000 0.66410  0.07400  0.08060  Biso   1.000  C
  C10      1.0000 0.04430  0.30760  0.94110  Biso   1.000  C
  O21      1.0000 0.63050  0.02140  0.63680  Biso   1.000  O
  O22      1.0000 0.27260  0.86480  0.50590  Biso   1.000  O
  C11      1.0000 0.16600  0.33740  0.15360  Biso   1.000  C
  C12      1.0000 0.79170  0.42110  0.92950  Biso   1.000  C
  O23      1.0000 0.55520  0.88010  0.53610  Biso   1.000  O
  C13      1.0000 0.16770  0.98650  0.75680  Biso   1.000  C
  H1       1.0000 0.11740  0.97470  0.79410  Biso   1.000  H
  C14      1.0000 0.28570  0.15260  0.85160  Biso   1.000  C
  O24      1.0000 0.39140  0.71150  0.38400  Biso   1.000  O
  C15      1.0000 0.98470  0.42450  0.89090  Biso   1.000  C
  H2       1.0000 0.05830  0.43980  0.87030  Biso   1.000  H
  C16      1.0000 0.89700  0.96600  0.84880  Biso   1.000  C
  C17      1.0000 0.87490  0.46090  0.89500  Biso   1.000  C
  H3       1.0000 0.86230  0.50450  0.87700  Biso   1.000  H
  C18      1.0000 0.61990  0.93780  0.60490  Biso   1.000  C
  C19      1.0000 0.46840  0.07120  0.11890  Biso   1.000  C
  H4       1.0000 0.39460  0.05570  0.13910  Biso   1.000  H
  C20      1.0000 0.69110  0.90160  0.65520  Biso   1.000  C
  C21      1.0000 0.81440  0.91390  0.76630  Biso   1.000  C
  C22      1.0000 0.17450  0.92640  0.67270  Biso   1.000  C
  H5       1.0000 0.12920  0.86740  0.64320  Biso   1.000  H
  C23      1.0000 0.30910  0.94460  0.56030  Biso   1.000  C
  C24      1.0000 0.77810  0.82580  0.71380  Biso   1.000  C
  H6       1.0000 0.80120  0.77900  0.72290  Biso   1.000  H
  C25      1.0000 0.57950  0.03150  0.11230  Biso   1.000  C
  H7       1.0000 0.59020  0.98540  0.12710  Biso   1.000  H
  C26      1.0000 0.20160  0.54740  0.34780  Biso   1.000  C
  H8       1.0000 0.18030  0.58880  0.39790  Biso   1.000  H
  O25      1.0000 0.49910  0.62200  0.28920  Biso   1.000  O
  C27      1.0000 0.30150  0.56060  0.31030  Biso   1.000  C
  C28      1.0000 0.69850  0.81710  0.64220  Biso   1.000  C
  H9       1.0000 0.65900  0.76380  0.59540  Biso   1.000  H
  C29      1.0000 0.13330  0.45780  0.29690  Biso   1.000  C
  H10      1.0000 0.05880  0.42990  0.30760  Biso   1.000  H
  C30      1.0000 0.40790  0.63630  0.32810  Biso   1.000  C
  K1       1.0000 0.73380  0.25844  0.02004  Biso   1.000  K
  O26      1.0000 0.18040  0.00880  0.95060  Biso   1.000  O
  O27      1.0000 0.53710  0.76010  0.96210  Biso   1.000  O
  O28      1.0000 0.69590  0.82010  0.91180  Biso   1.000  O
  C31      1.0000 0.58470  0.80970  0.92900  Biso   1.000  C
  C32      1.0000 0.50750  0.86520  0.90980  Biso   1.000  C
  O29      1.0000 0.07370  0.07950  0.11380  Biso   1.000  O
  Pr4      1.0000 0.91637  0.85941  0.98825  Biso   1.000  Pr
  Pr5      1.0000 0.62751  0.65691  0.00570  Biso   1.000  Pr
  Pr6      1.0000 0.56270  0.13323  0.59407  Biso   1.000  Pr
  C33      1.0000 0.73940  0.02840  0.35720  Biso   1.000  C
  O30      1.0000 0.00450  0.74950  0.03480  Biso   1.000  O
  O31      1.0000 0.38630  0.86150  0.93370  Biso   1.000  O
  O32      1.0000 0.15720  0.64150  0.05360  Biso   1.000  O
  O33      1.0000 0.14470  0.87750  0.96050  Biso   1.000  O
  O34      1.0000 0.77370  0.83540  0.08630  Biso   1.000  O
  O35      1.0000 0.39970  0.62570  0.02740  Biso   1.000  O
  O36      1.0000 0.84300  0.67480  0.07150  Biso   1.000  O
  O37      1.0000 0.06210  0.95160  0.12660  Biso   1.000  O
  O38      1.0000 0.23750  0.03710  0.26940  Biso   1.000  O
  O39      1.0000 0.62430  0.78930  0.14810  Biso   1.000  O
  O40      1.0000 0.77420  0.66860  0.90880  Biso   1.000  O
  O41      1.0000 0.61470  0.99840  0.45410  Biso   1.000  O
  O42      1.0000 0.70130  0.51680  0.76220  Biso   1.000  O
  O43      1.0000 0.37220  0.50230  0.05060  Biso   1.000  O
  O44      1.0000 0.92000  0.72530  0.85000  Biso   1.000  O
  C34      1.0000 0.80560  0.57810  0.76790  Biso   1.000  C
  C35      1.0000 0.33630  0.56950  0.04810  Biso   1.000  C
  O45      1.0000 0.69270  0.94260  0.29580  Biso   1.000  O
  C36      1.0000 0.75230  0.93550  0.22650  Biso   1.000  C
  C37      1.0000 0.20960  0.93850  0.94610  Biso   1.000  C
  C38      1.0000 0.03760  0.63670  0.07740  Biso   1.000  C
  C39      1.0000 0.33590  0.92600  0.91940  Biso   1.000  C
  C40      1.0000 0.95570  0.69240  0.05890  Biso   1.000  C
  O46      1.0000 0.36950  0.97860  0.36320  Biso   1.000  O
  O47      1.0000 0.72740  0.13520  0.49410  Biso   1.000  O
  C41      1.0000 0.83400  0.66260  0.84640  Biso   1.000  C
  C42      1.0000 0.20830  0.57890  0.07050  Biso   1.000  C
  O48      1.0000 0.44480  0.11990  0.46390  Biso   1.000  O
  C43      1.0000 0.83230  0.01350  0.24320  Biso   1.000  C
  H11      1.0000 0.88260  0.02530  0.20590  Biso   1.000  H
  C44      1.0000 0.71430  0.84740  0.14840  Biso   1.000  C
  O49      1.0000 0.60860  0.28850  0.61600  Biso   1.000  O
  C45      1.0000 0.01530  0.57550  0.10910  Biso   1.000  C
  H12      1.0000 0.94170  0.56020  0.12970  Biso   1.000  H
  C46      1.0000 0.10300  0.03400  0.15120  Biso   1.000  C
  C47      1.0000 0.12510  0.53910  0.10500  Biso   1.000  C
  H13      1.0000 0.13770  0.49550  0.12300  Biso   1.000  H
  C48      1.0000 0.38010  0.06220  0.39510  Biso   1.000  C
  C49      1.0000 0.53160  0.92880  0.88110  Biso   1.000  C
  H14      1.0000 0.60540  0.94430  0.86090  Biso   1.000  H
  C50      1.0000 0.30890  0.09840  0.34480  Biso   1.000  C
  C51      1.0000 0.18560  0.08610  0.23370  Biso   1.000  C
  C52      1.0000 0.82550  0.07360  0.32730  Biso   1.000  C
  H15      1.0000 0.87080  0.13260  0.35680  Biso   1.000  H
  C53      1.0000 0.69090  0.05540  0.43970  Biso   1.000  C
  C54      1.0000 0.22190  0.17420  0.28620  Biso   1.000  C
  H16      1.0000 0.19880  0.22100  0.27710  Biso   1.000  H
  C55      1.0000 0.42050  0.96850  0.88770  Biso   1.000  C
  H17      1.0000 0.40980  0.01460  0.87290  Biso   1.000  H
  C56      1.0000 0.79840  0.45260  0.65220  Biso   1.000  C
  H18      1.0000 0.81970  0.41120  0.60210  Biso   1.000  H
  O50      1.0000 0.50090  0.37800  0.71080  Biso   1.000  O
  C57      1.0000 0.69850  0.43940  0.68970  Biso   1.000  C
  C58      1.0000 0.30150  0.18290  0.35780  Biso   1.000  C
  H19      1.0000 0.34100  0.23620  0.40460  Biso   1.000  H
  C59      1.0000 0.86670  0.54220  0.70310  Biso   1.000  C
  H20      1.0000 0.94120  0.57010  0.69240  Biso   1.000  H
  C60      1.0000 0.59210  0.36370  0.67190  Biso   1.000  C
  K2       1.0000 0.26620  0.74156  0.97996  Biso   1.000  K
