data_image0
_cell_length_a       6.687
_cell_length_b       14.389
_cell_length_c       14.874
_cell_angle_alpha    90
_cell_angle_beta     90
_cell_angle_gamma    90

_symmetry_space_group_name_H-M    "P 1"
_symmetry_int_tables_number       1

loop_
  _symmetry_equiv_pos_as_xyz
  'x, y, z'

loop_
  _atom_site_label
  _atom_site_occupancy
  _atom_site_fract_x
  _atom_site_fract_y
  _atom_site_fract_z
  _atom_site_thermal_displace_type
  _atom_site_B_iso_or_equiv
  _atom_site_type_symbol
  Ca1      1.0000 0.13658  0.80385  0.45805  Biso   1.000  Ca
  O1       1.0000 0.99180  0.65670  0.52540  Biso   1.000  O
  O2       1.0000 0.28200  0.70420  0.57840  Biso   1.000  O
  O3       1.0000 0.99400  0.39140  0.92440  Biso   1.000  O
  O4       1.0000 0.21810  0.29980  0.85870  Biso   1.000  O
  C1       1.0000 0.13610  0.64870  0.57930  Biso   1.000  C
  C2       1.0000 0.10930  0.37010  0.86130  Biso   1.000  C
  C3       1.0000 0.13530  0.57290  0.64820  Biso   1.000  C
  C4       1.0000 0.13780  0.59790  0.73560  Biso   1.000  C
  H1       1.0000 0.15160  0.66010  0.75140  Biso   1.000  H
  C5       1.0000 0.11940  0.52940  0.80300  Biso   1.000  C
  H2       1.0000 0.10680  0.54810  0.86260  Biso   1.000  H
  C6       1.0000 0.11940  0.43720  0.78380  Biso   1.000  C
  C7       1.0000 0.12680  0.40910  0.69290  Biso   1.000  C
  C8       1.0000 0.12670  0.47740  0.62320  Biso   1.000  C
  C9       1.0000 0.12600  0.44950  0.53390  Biso   1.000  C
  H3       1.0000 0.12830  0.49400  0.48860  Biso   1.000  H
  C10      1.0000 0.12200  0.35750  0.51170  Biso   1.000  C
  H4       1.0000 0.11540  0.33970  0.45160  Biso   1.000  H
  C11      1.0000 0.12780  0.29030  0.57930  Biso   1.000  C
  H5       1.0000 0.12960  0.22780  0.56350  Biso   1.000  H
  C12      1.0000 0.13080  0.31380  0.66680  Biso   1.000  C
  H6       1.0000 0.13540  0.26760  0.71050  Biso   1.000  H
  Ca2      1.0000 0.36342  0.19615  0.95805  Biso   1.000  Ca
  O5       1.0000 0.50820  0.34330  0.02540  Biso   1.000  O
  O6       1.0000 0.21800  0.29580  0.07840  Biso   1.000  O
  O7       1.0000 0.50600  0.60860  0.42440  Biso   1.000  O
  O8       1.0000 0.28190  0.70020  0.35870  Biso   1.000  O
  C13      1.0000 0.36390  0.35130  0.07930  Biso   1.000  C
  C14      1.0000 0.39070  0.62990  0.36130  Biso   1.000  C
  C15      1.0000 0.36470  0.42710  0.14820  Biso   1.000  C
  C16      1.0000 0.36220  0.40210  0.23560  Biso   1.000  C
  H7       1.0000 0.34840  0.33990  0.25140  Biso   1.000  H
  C17      1.0000 0.38060  0.47060  0.30300  Biso   1.000  C
  H8       1.0000 0.39320  0.45190  0.36260  Biso   1.000  H
  C18      1.0000 0.38060  0.56280  0.28380  Biso   1.000  C
  C19      1.0000 0.37320  0.59090  0.19290  Biso   1.000  C
  C20      1.0000 0.37330  0.52260  0.12320  Biso   1.000  C
  C21      1.0000 0.37400  0.55050  0.03390  Biso   1.000  C
  H9       1.0000 0.37170  0.50600  0.98860  Biso   1.000  H
  C22      1.0000 0.37800  0.64250  0.01170  Biso   1.000  C
  H10      1.0000 0.38460  0.66030  0.95160  Biso   1.000  H
  C23      1.0000 0.37220  0.70970  0.07930  Biso   1.000  C
  H11      1.0000 0.37040  0.77220  0.06350  Biso   1.000  H
  C24      1.0000 0.36920  0.68620  0.16680  Biso   1.000  C
  H12      1.0000 0.36460  0.73240  0.21050  Biso   1.000  H
  Ca3      1.0000 0.86342  0.30385  0.04195  Biso   1.000  Ca
  O9       1.0000 0.00820  0.15670  0.97460  Biso   1.000  O
  O10      1.0000 0.71800  0.20420  0.92160  Biso   1.000  O
  O11      1.0000 0.00600  0.89140  0.57560  Biso   1.000  O
  O12      1.0000 0.78190  0.79980  0.64130  Biso   1.000  O
  C25      1.0000 0.86390  0.14870  0.92070  Biso   1.000  C
  C26      1.0000 0.89070  0.87010  0.63870  Biso   1.000  C
  C27      1.0000 0.86470  0.07290  0.85180  Biso   1.000  C
  C28      1.0000 0.86220  0.09790  0.76440  Biso   1.000  C
  H13      1.0000 0.84840  0.16010  0.74860  Biso   1.000  H
  C29      1.0000 0.88060  0.02940  0.69700  Biso   1.000  C
  H14      1.0000 0.89320  0.04810  0.63740  Biso   1.000  H
  C30      1.0000 0.88060  0.93720  0.71620  Biso   1.000  C
  C31      1.0000 0.87320  0.90910  0.80710  Biso   1.000  C
  C32      1.0000 0.87330  0.97740  0.87680  Biso   1.000  C
  C33      1.0000 0.87400  0.94950  0.96610  Biso   1.000  C
  H15      1.0000 0.87170  0.99400  0.01140  Biso   1.000  H
  C34      1.0000 0.87800  0.85750  0.98830  Biso   1.000  C
  H16      1.0000 0.88460  0.83970  0.04840  Biso   1.000  H
  C35      1.0000 0.87220  0.79030  0.92070  Biso   1.000  C
  H17      1.0000 0.87040  0.72780  0.93650  Biso   1.000  H
  C36      1.0000 0.86920  0.81380  0.83320  Biso   1.000  C
  H18      1.0000 0.86460  0.76760  0.78950  Biso   1.000  H
  Ca4      1.0000 0.63658  0.69615  0.54195  Biso   1.000  Ca
  O13      1.0000 0.49180  0.84330  0.47460  Biso   1.000  O
  O14      1.0000 0.78200  0.79580  0.42160  Biso   1.000  O
  O15      1.0000 0.49400  0.10860  0.07560  Biso   1.000  O
  O16      1.0000 0.71810  0.20020  0.14130  Biso   1.000  O
  C37      1.0000 0.63610  0.85130  0.42070  Biso   1.000  C
  C38      1.0000 0.60930  0.12990  0.13870  Biso   1.000  C
  C39      1.0000 0.63530  0.92710  0.35180  Biso   1.000  C
  C40      1.0000 0.63780  0.90210  0.26440  Biso   1.000  C
  H19      1.0000 0.65160  0.83990  0.24860  Biso   1.000  H
  C41      1.0000 0.61940  0.97060  0.19700  Biso   1.000  C
  H20      1.0000 0.60680  0.95190  0.13740  Biso   1.000  H
  C42      1.0000 0.61940  0.06280  0.21620  Biso   1.000  C
  C43      1.0000 0.62680  0.09090  0.30710  Biso   1.000  C
  C44      1.0000 0.62670  0.02260  0.37680  Biso   1.000  C
  C45      1.0000 0.62600  0.05050  0.46610  Biso   1.000  C
  H21      1.0000 0.62830  0.00600  0.51140  Biso   1.000  H
  C46      1.0000 0.62200  0.14250  0.48830  Biso   1.000  C
  H22      1.0000 0.61540  0.16030  0.54840  Biso   1.000  H
  C47      1.0000 0.62780  0.20970  0.42070  Biso   1.000  C
  H23      1.0000 0.62960  0.27220  0.43650  Biso   1.000  H
  C48      1.0000 0.63080  0.18620  0.33320  Biso   1.000  C
  H24      1.0000 0.63540  0.23240  0.28950  Biso   1.000  H
