data_image0
_cell_length_a       11.842
_cell_length_b       11.759
_cell_length_c       27.432
_cell_angle_alpha    90
_cell_angle_beta     102.48
_cell_angle_gamma    90

_symmetry_space_group_name_H-M    "P 1"
_symmetry_int_tables_number       1

loop_
  _symmetry_equiv_pos_as_xyz
  'x, y, z'

loop_
  _atom_site_label
  _atom_site_occupancy
  _atom_site_fract_x
  _atom_site_fract_y
  _atom_site_fract_z
  _atom_site_thermal_displace_type
  _atom_site_B_iso_or_equiv
  _atom_site_type_symbol
  Co1      1.0000 0.69498  0.36498  0.98166  Biso   1.000  Co
  O1       1.0000 0.86700  0.38190  0.97517  Biso   1.000  O
  O2       1.0000 0.65900  0.38990  0.90296  Biso   1.000  O
  O3       1.0000 0.46710  0.38360  0.88092  Biso   1.000  O
  O4       1.0000 0.20490  0.67980  0.59210  Biso   1.000  O
  O5       1.0000 0.29250  0.68910  0.52705  Biso   1.000  O
  O6       1.0000 0.86020  0.51260  0.87711  Biso   1.000  O
  O7       1.0000 0.92980  0.62260  0.94310  Biso   1.000  O
  O8       1.0000 0.89170  0.91450  0.54267  Biso   1.000  O
  O9       1.0000 0.99740  0.80890  0.60398  Biso   1.000  O
  O10      1.0000 0.28810  0.46060  0.61085  Biso   1.000  O
  O11      1.0000 0.81050  0.74010  0.63710  Biso   1.000  O
  N1       1.0000 0.79280  0.30970  0.81751  Biso   1.000  N
  N2       1.0000 0.72100  0.16630  0.56029  Biso   1.000  N
  C1       1.0000 0.56270  0.40600  0.87164  Biso   1.000  C
  C2       1.0000 0.57010  0.45420  0.82262  Biso   1.000  C
  H1       1.0000 0.63500  0.49640  0.82010  Biso   1.000  H
  C3       1.0000 0.48710  0.43920  0.78225  Biso   1.000  C
  H2       1.0000 0.42210  0.39910  0.78640  Biso   1.000  H
  C4       1.0000 0.48720  0.47960  0.73145  Biso   1.000  C
  C5       1.0000 0.39510  0.44980  0.69273  Biso   1.000  C
  H3       1.0000 0.33840  0.40070  0.69910  Biso   1.000  H
  C6       1.0000 0.38650  0.49160  0.64508  Biso   1.000  C
  C7       1.0000 0.47210  0.56200  0.63424  Biso   1.000  C
  H4       1.0000 0.46790  0.58850  0.60200  Biso   1.000  H
  C8       1.0000 0.56410  0.59160  0.67282  Biso   1.000  C
  H5       1.0000 0.62170  0.63910  0.66610  Biso   1.000  H
  C9       1.0000 0.57190  0.55230  0.72073  Biso   1.000  C
  H6       1.0000 0.63380  0.57420  0.74600  Biso   1.000  H
  C10      1.0000 0.27370  0.50940  0.56209  Biso   1.000  C
  H7       1.0000 0.20770  0.47390  0.54030  Biso   1.000  H
  H8       1.0000 0.34160  0.49220  0.54900  Biso   1.000  H
  C11      1.0000 0.25570  0.63670  0.56076  Biso   1.000  C
  C12      1.0000 0.89160  0.60590  0.89682  Biso   1.000  C
  C13      1.0000 0.88590  0.70390  0.86167  Biso   1.000  C
  H9       1.0000 0.89680  0.77750  0.87420  Biso   1.000  H
  C14      1.0000 0.86580  0.68700  0.81318  Biso   1.000  C
  H10      1.0000 0.85180  0.61170  0.80340  Biso   1.000  H
  C15      1.0000 0.86170  0.76810  0.77181  Biso   1.000  C
  C16      1.0000 0.84180  0.72490  0.72362  Biso   1.000  C
  H11      1.0000 0.83380  0.64670  0.71890  Biso   1.000  H
  C17      1.0000 0.83340  0.79500  0.68236  Biso   1.000  C
  C18      1.0000 0.84760  0.91090  0.68903  Biso   1.000  C
  H12      1.0000 0.84220  0.95890  0.66170  Biso   1.000  H
  C19      1.0000 0.87000  0.95450  0.73689  Biso   1.000  C
  H13      1.0000 0.88080  0.03250  0.74140  Biso   1.000  H
  C20      1.0000 0.87680  0.88540  0.77861  Biso   1.000  C
  H14      1.0000 0.89110  0.91670  0.81050  Biso   1.000  H
  C21      1.0000 0.79280  0.80660  0.59267  Biso   1.000  C
  H15      1.0000 0.74570  0.87200  0.59660  Biso   1.000  H
  H16      1.0000 0.75000  0.76160  0.56520  Biso   1.000  H
  C22      1.0000 0.90530  0.84840  0.57921  Biso   1.000  C
  C23      1.0000 0.71140  0.23690  0.79541  Biso   1.000  C
  H17      1.0000 0.66650  0.20140  0.81490  Biso   1.000  H
  C24      1.0000 0.69000  0.21120  0.74503  Biso   1.000  C
  H18      1.0000 0.63130  0.16060  0.73150  Biso   1.000  H
  C25      1.0000 0.75590  0.26060  0.71472  Biso   1.000  C
  C26      1.0000 0.83870  0.33820  0.73760  Biso   1.000  C
  H19      1.0000 0.88400  0.37580  0.71890  Biso   1.000  H
  C27      1.0000 0.85400  0.36000  0.78789  Biso   1.000  C
  H20      1.0000 0.91020  0.41260  0.80210  Biso   1.000  H
  C28      1.0000 0.74150  0.22970  0.66115  Biso   1.000  C
  C29      1.0000 0.66070  0.15310  0.63750  Biso   1.000  C
  H21      1.0000 0.61030  0.11970  0.65500  Biso   1.000  H
  C30      1.0000 0.65300  0.12510  0.58826  Biso   1.000  C
  H22      1.0000 0.59600  0.07360  0.57370  Biso   1.000  H
  C31      1.0000 0.80050  0.23880  0.58307  Biso   1.000  C
  H23      1.0000 0.85040  0.26990  0.56480  Biso   1.000  H
  C32      1.0000 0.81370  0.27080  0.63212  Biso   1.000  C
  H24      1.0000 0.87240  0.32120  0.64600  Biso   1.000  H
  Co2      1.0000 0.83099  0.35131  0.89698  Biso   1.000  Co
  Co3      1.0000 0.30502  0.86498  0.51834  Biso   1.000  Co
  O12      1.0000 0.13300  0.88190  0.52483  Biso   1.000  O
  O13      1.0000 0.34100  0.88990  0.59704  Biso   1.000  O
  O14      1.0000 0.53290  0.88360  0.61908  Biso   1.000  O
  O15      1.0000 0.79510  0.17980  0.90790  Biso   1.000  O
  O16      1.0000 0.70750  0.18910  0.97295  Biso   1.000  O
  O17      1.0000 0.13980  0.01260  0.62289  Biso   1.000  O
  O18      1.0000 0.07020  0.12260  0.55690  Biso   1.000  O
  O19      1.0000 0.10830  0.41450  0.95733  Biso   1.000  O
  O20      1.0000 0.00260  0.30890  0.89602  Biso   1.000  O
  O21      1.0000 0.71190  0.96060  0.88915  Biso   1.000  O
  O22      1.0000 0.18950  0.24010  0.86290  Biso   1.000  O
  N3       1.0000 0.20720  0.80970  0.68249  Biso   1.000  N
  N4       1.0000 0.27900  0.66630  0.93971  Biso   1.000  N
  C33      1.0000 0.43730  0.90600  0.62836  Biso   1.000  C
  C34      1.0000 0.42990  0.95420  0.67738  Biso   1.000  C
  H25      1.0000 0.36500  0.99640  0.67990  Biso   1.000  H
  C35      1.0000 0.51290  0.93920  0.71775  Biso   1.000  C
  H26      1.0000 0.57790  0.89910  0.71360  Biso   1.000  H
  C36      1.0000 0.51280  0.97960  0.76855  Biso   1.000  C
  C37      1.0000 0.60490  0.94980  0.80727  Biso   1.000  C
  H27      1.0000 0.66160  0.90070  0.80090  Biso   1.000  H
  C38      1.0000 0.61350  0.99160  0.85492  Biso   1.000  C
  C39      1.0000 0.52790  0.06200  0.86576  Biso   1.000  C
  H28      1.0000 0.53210  0.08850  0.89800  Biso   1.000  H
  C40      1.0000 0.43590  0.09160  0.82718  Biso   1.000  C
  H29      1.0000 0.37830  0.13910  0.83390  Biso   1.000  H
  C41      1.0000 0.42810  0.05230  0.77927  Biso   1.000  C
  H30      1.0000 0.36620  0.07420  0.75400  Biso   1.000  H
  C42      1.0000 0.72630  0.00940  0.93791  Biso   1.000  C
  H31      1.0000 0.79230  0.97390  0.95970  Biso   1.000  H
  H32      1.0000 0.65840  0.99220  0.95100  Biso   1.000  H
  C43      1.0000 0.74430  0.13670  0.93924  Biso   1.000  C
  C44      1.0000 0.10840  0.10590  0.60318  Biso   1.000  C
  C45      1.0000 0.11410  0.20390  0.63833  Biso   1.000  C
  H33      1.0000 0.10320  0.27750  0.62580  Biso   1.000  H
  C46      1.0000 0.13420  0.18700  0.68682  Biso   1.000  C
  H34      1.0000 0.14820  0.11170  0.69660  Biso   1.000  H
  C47      1.0000 0.13830  0.26810  0.72819  Biso   1.000  C
  C48      1.0000 0.15820  0.22490  0.77638  Biso   1.000  C
  H35      1.0000 0.16620  0.14670  0.78110  Biso   1.000  H
  C49      1.0000 0.16660  0.29500  0.81764  Biso   1.000  C
  C50      1.0000 0.15240  0.41090  0.81097  Biso   1.000  C
  H36      1.0000 0.15780  0.45890  0.83830  Biso   1.000  H
  C51      1.0000 0.13000  0.45450  0.76311  Biso   1.000  C
  H37      1.0000 0.11920  0.53250  0.75860  Biso   1.000  H
  C52      1.0000 0.12320  0.38540  0.72139  Biso   1.000  C
  H38      1.0000 0.10890  0.41670  0.68950  Biso   1.000  H
  C53      1.0000 0.20720  0.30660  0.90733  Biso   1.000  C
  H39      1.0000 0.25430  0.37200  0.90340  Biso   1.000  H
  H40      1.0000 0.25000  0.26160  0.93480  Biso   1.000  H
  C54      1.0000 0.09470  0.34840  0.92079  Biso   1.000  C
  C55      1.0000 0.28860  0.73690  0.70459  Biso   1.000  C
  H41      1.0000 0.33350  0.70140  0.68510  Biso   1.000  H
  C56      1.0000 0.31000  0.71120  0.75497  Biso   1.000  C
  H42      1.0000 0.36870  0.66060  0.76850  Biso   1.000  H
  C57      1.0000 0.24410  0.76060  0.78528  Biso   1.000  C
  C58      1.0000 0.16130  0.83820  0.76240  Biso   1.000  C
  H43      1.0000 0.11600  0.87580  0.78110  Biso   1.000  H
  C59      1.0000 0.14600  0.86000  0.71211  Biso   1.000  C
  H44      1.0000 0.08980  0.91260  0.69790  Biso   1.000  H
  C60      1.0000 0.25850  0.72970  0.83885  Biso   1.000  C
  C61      1.0000 0.33930  0.65310  0.86250  Biso   1.000  C
  H45      1.0000 0.38970  0.61970  0.84500  Biso   1.000  H
  C62      1.0000 0.34700  0.62510  0.91174  Biso   1.000  C
  H46      1.0000 0.40400  0.57360  0.92630  Biso   1.000  H
  C63      1.0000 0.19950  0.73880  0.91693  Biso   1.000  C
  H47      1.0000 0.14960  0.76990  0.93520  Biso   1.000  H
  C64      1.0000 0.18630  0.77080  0.86788  Biso   1.000  C
  H48      1.0000 0.12760  0.82120  0.85400  Biso   1.000  H
  Co4      1.0000 0.16901  0.85131  0.60302  Biso   1.000  Co
  Co5      1.0000 0.30502  0.63502  0.01834  Biso   1.000  Co
  O23      1.0000 0.13300  0.61810  0.02483  Biso   1.000  O
  O24      1.0000 0.34100  0.61010  0.09704  Biso   1.000  O
  O25      1.0000 0.53290  0.61640  0.11908  Biso   1.000  O
  O26      1.0000 0.79510  0.32020  0.40790  Biso   1.000  O
  O27      1.0000 0.70750  0.31090  0.47295  Biso   1.000  O
  O28      1.0000 0.13980  0.48740  0.12289  Biso   1.000  O
  O29      1.0000 0.07020  0.37740  0.05690  Biso   1.000  O
  O30      1.0000 0.10830  0.08550  0.45733  Biso   1.000  O
  O31      1.0000 0.00260  0.19110  0.39602  Biso   1.000  O
  O32      1.0000 0.71190  0.53940  0.38915  Biso   1.000  O
  O33      1.0000 0.18950  0.25990  0.36290  Biso   1.000  O
  N5       1.0000 0.20720  0.69030  0.18249  Biso   1.000  N
  N6       1.0000 0.27900  0.83370  0.43971  Biso   1.000  N
  C65      1.0000 0.43730  0.59400  0.12836  Biso   1.000  C
  C66      1.0000 0.42990  0.54580  0.17738  Biso   1.000  C
  H49      1.0000 0.36500  0.50360  0.17990  Biso   1.000  H
  C67      1.0000 0.51290  0.56080  0.21775  Biso   1.000  C
  H50      1.0000 0.57790  0.60090  0.21360  Biso   1.000  H
  C68      1.0000 0.51280  0.52040  0.26855  Biso   1.000  C
  C69      1.0000 0.60490  0.55020  0.30727  Biso   1.000  C
  H51      1.0000 0.66160  0.59930  0.30090  Biso   1.000  H
  C70      1.0000 0.61350  0.50840  0.35492  Biso   1.000  C
  C71      1.0000 0.52790  0.43800  0.36576  Biso   1.000  C
  H52      1.0000 0.53210  0.41150  0.39800  Biso   1.000  H
  C72      1.0000 0.43590  0.40840  0.32718  Biso   1.000  C
  H53      1.0000 0.37830  0.36090  0.33390  Biso   1.000  H
  C73      1.0000 0.42810  0.44770  0.27927  Biso   1.000  C
  H54      1.0000 0.36620  0.42580  0.25400  Biso   1.000  H
  C74      1.0000 0.72630  0.49060  0.43791  Biso   1.000  C
  H55      1.0000 0.79230  0.52610  0.45970  Biso   1.000  H
  H56      1.0000 0.65840  0.50780  0.45100  Biso   1.000  H
  C75      1.0000 0.74430  0.36330  0.43924  Biso   1.000  C
  C76      1.0000 0.10840  0.39410  0.10318  Biso   1.000  C
  C77      1.0000 0.11410  0.29610  0.13833  Biso   1.000  C
  H57      1.0000 0.10320  0.22250  0.12580  Biso   1.000  H
  C78      1.0000 0.13420  0.31300  0.18682  Biso   1.000  C
  H58      1.0000 0.14820  0.38830  0.19660  Biso   1.000  H
  C79      1.0000 0.13830  0.23190  0.22819  Biso   1.000  C
  C80      1.0000 0.15820  0.27510  0.27638  Biso   1.000  C
  H59      1.0000 0.16620  0.35330  0.28110  Biso   1.000  H
  C81      1.0000 0.16660  0.20500  0.31764  Biso   1.000  C
  C82      1.0000 0.15240  0.08910  0.31097  Biso   1.000  C
  H60      1.0000 0.15780  0.04110  0.33830  Biso   1.000  H
  C83      1.0000 0.13000  0.04550  0.26311  Biso   1.000  C
  H61      1.0000 0.11920  0.96750  0.25860  Biso   1.000  H
  C84      1.0000 0.12320  0.11460  0.22139  Biso   1.000  C
  H62      1.0000 0.10890  0.08330  0.18950  Biso   1.000  H
  C85      1.0000 0.20720  0.19340  0.40733  Biso   1.000  C
  H63      1.0000 0.25430  0.12800  0.40340  Biso   1.000  H
  H64      1.0000 0.25000  0.23840  0.43480  Biso   1.000  H
  C86      1.0000 0.09470  0.15160  0.42079  Biso   1.000  C
  C87      1.0000 0.28860  0.76310  0.20459  Biso   1.000  C
  H65      1.0000 0.33350  0.79860  0.18510  Biso   1.000  H
  C88      1.0000 0.31000  0.78880  0.25497  Biso   1.000  C
  H66      1.0000 0.36870  0.83940  0.26850  Biso   1.000  H
  C89      1.0000 0.24410  0.73940  0.28528  Biso   1.000  C
  C90      1.0000 0.16130  0.66180  0.26240  Biso   1.000  C
  H67      1.0000 0.11600  0.62420  0.28110  Biso   1.000  H
  C91      1.0000 0.14600  0.64000  0.21211  Biso   1.000  C
  H68      1.0000 0.08980  0.58740  0.19790  Biso   1.000  H
  C92      1.0000 0.25850  0.77030  0.33885  Biso   1.000  C
  C93      1.0000 0.33930  0.84690  0.36250  Biso   1.000  C
  H69      1.0000 0.38970  0.88030  0.34500  Biso   1.000  H
  C94      1.0000 0.34700  0.87490  0.41174  Biso   1.000  C
  H70      1.0000 0.40400  0.92640  0.42630  Biso   1.000  H
  C95      1.0000 0.19950  0.76120  0.41693  Biso   1.000  C
  H71      1.0000 0.14960  0.73010  0.43520  Biso   1.000  H
  C96      1.0000 0.18630  0.72920  0.36788  Biso   1.000  C
  H72      1.0000 0.12760  0.67880  0.35400  Biso   1.000  H
  Co6      1.0000 0.16901  0.64869  0.10302  Biso   1.000  Co
  Co7      1.0000 0.69498  0.13502  0.48166  Biso   1.000  Co
  O34      1.0000 0.86700  0.11810  0.47517  Biso   1.000  O
  O35      1.0000 0.65900  0.11010  0.40296  Biso   1.000  O
  O36      1.0000 0.46710  0.11640  0.38092  Biso   1.000  O
  O37      1.0000 0.20490  0.82020  0.09210  Biso   1.000  O
  O38      1.0000 0.29250  0.81090  0.02705  Biso   1.000  O
  O39      1.0000 0.86020  0.98740  0.37711  Biso   1.000  O
  O40      1.0000 0.92980  0.87740  0.44310  Biso   1.000  O
  O41      1.0000 0.89170  0.58550  0.04267  Biso   1.000  O
  O42      1.0000 0.99740  0.69110  0.10398  Biso   1.000  O
  O43      1.0000 0.28810  0.03940  0.11085  Biso   1.000  O
  O44      1.0000 0.81050  0.75990  0.13710  Biso   1.000  O
  N7       1.0000 0.79280  0.19030  0.31751  Biso   1.000  N
  N8       1.0000 0.72100  0.33370  0.06029  Biso   1.000  N
  C97      1.0000 0.56270  0.09400  0.37164  Biso   1.000  C
  C98      1.0000 0.57010  0.04580  0.32262  Biso   1.000  C
  H73      1.0000 0.63500  0.00360  0.32010  Biso   1.000  H
  C99      1.0000 0.48710  0.06080  0.28225  Biso   1.000  C
  H74      1.0000 0.42210  0.10090  0.28640  Biso   1.000  H
  C100     1.0000 0.48720  0.02040  0.23145  Biso   1.000  C
  C101     1.0000 0.39510  0.05020  0.19273  Biso   1.000  C
  H75      1.0000 0.33840  0.09930  0.19910  Biso   1.000  H
  C102     1.0000 0.38650  0.00840  0.14508  Biso   1.000  C
  C103     1.0000 0.47210  0.93800  0.13424  Biso   1.000  C
  H76      1.0000 0.46790  0.91150  0.10200  Biso   1.000  H
  C104     1.0000 0.56410  0.90840  0.17282  Biso   1.000  C
  H77      1.0000 0.62170  0.86090  0.16610  Biso   1.000  H
  C105     1.0000 0.57190  0.94770  0.22073  Biso   1.000  C
  H78      1.0000 0.63380  0.92580  0.24600  Biso   1.000  H
  C106     1.0000 0.27370  0.99060  0.06209  Biso   1.000  C
  H79      1.0000 0.20770  0.02610  0.04030  Biso   1.000  H
  H80      1.0000 0.34160  0.00780  0.04900  Biso   1.000  H
  C107     1.0000 0.25570  0.86330  0.06076  Biso   1.000  C
  C108     1.0000 0.89160  0.89410  0.39682  Biso   1.000  C
  C109     1.0000 0.88590  0.79610  0.36167  Biso   1.000  C
  H81      1.0000 0.89680  0.72250  0.37420  Biso   1.000  H
  C110     1.0000 0.86580  0.81300  0.31318  Biso   1.000  C
  H82      1.0000 0.85180  0.88830  0.30340  Biso   1.000  H
  C111     1.0000 0.86170  0.73190  0.27181  Biso   1.000  C
  C112     1.0000 0.84180  0.77510  0.22362  Biso   1.000  C
  H83      1.0000 0.83380  0.85330  0.21890  Biso   1.000  H
  C113     1.0000 0.83340  0.70500  0.18236  Biso   1.000  C
  C114     1.0000 0.84760  0.58910  0.18903  Biso   1.000  C
  H84      1.0000 0.84220  0.54110  0.16170  Biso   1.000  H
  C115     1.0000 0.87000  0.54550  0.23689  Biso   1.000  C
  H85      1.0000 0.88080  0.46750  0.24140  Biso   1.000  H
  C116     1.0000 0.87680  0.61460  0.27861  Biso   1.000  C
  H86      1.0000 0.89110  0.58330  0.31050  Biso   1.000  H
  C117     1.0000 0.79280  0.69340  0.09267  Biso   1.000  C
  H87      1.0000 0.74570  0.62800  0.09660  Biso   1.000  H
  H88      1.0000 0.75000  0.73840  0.06520  Biso   1.000  H
  C118     1.0000 0.90530  0.65160  0.07921  Biso   1.000  C
  C119     1.0000 0.71140  0.26310  0.29541  Biso   1.000  C
  H89      1.0000 0.66650  0.29860  0.31490  Biso   1.000  H
  C120     1.0000 0.69000  0.28880  0.24503  Biso   1.000  C
  H90      1.0000 0.63130  0.33940  0.23150  Biso   1.000  H
  C121     1.0000 0.75590  0.23940  0.21472  Biso   1.000  C
  C122     1.0000 0.83870  0.16180  0.23760  Biso   1.000  C
  H91      1.0000 0.88400  0.12420  0.21890  Biso   1.000  H
  C123     1.0000 0.85400  0.14000  0.28789  Biso   1.000  C
  H92      1.0000 0.91020  0.08740  0.30210  Biso   1.000  H
  C124     1.0000 0.74150  0.27030  0.16115  Biso   1.000  C
  C125     1.0000 0.66070  0.34690  0.13750  Biso   1.000  C
  H93      1.0000 0.61030  0.38030  0.15500  Biso   1.000  H
  C126     1.0000 0.65300  0.37490  0.08826  Biso   1.000  C
  H94      1.0000 0.59600  0.42640  0.07370  Biso   1.000  H
  C127     1.0000 0.80050  0.26120  0.08307  Biso   1.000  C
  H95      1.0000 0.85040  0.23010  0.06480  Biso   1.000  H
  C128     1.0000 0.81370  0.22920  0.13212  Biso   1.000  C
  H96      1.0000 0.87240  0.17880  0.14600  Biso   1.000  H
  Co8      1.0000 0.83099  0.14869  0.39698  Biso   1.000  Co
  Co9      1.0000 0.00000  0.50000  0.00000  Biso   1.000  Co
  Co10     1.0000 0.00000  0.00000  0.50000  Biso   1.000  Co
