data_KIYMEM_clean
_audit_creation_date              2014-07-02
_audit_creation_method            'Materials Studio'
_symmetry_space_group_name_H-M    'P1'
_symmetry_Int_Tables_number       1
_symmetry_cell_setting            triclinic
loop_
_symmetry_equiv_pos_as_xyz
  x,y,z
_cell_length_a                    7.1269
_cell_length_b                    14.6724
_cell_length_c                    15.0027
_cell_angle_alpha                 90.0000
_cell_angle_beta                  90.0000
_cell_angle_gamma                 90.0000
loop_
_atom_site_label
_atom_site_type_symbol
_atom_site_fract_x
_atom_site_fract_y
_atom_site_fract_z
_atom_site_U_iso_or_equiv
_atom_site_adp_type
_atom_site_occupancy
Ba1    Ba    0.92728   0.19412   0.43903   0.01267  Uiso   1.00
Ba2    Ba    0.57272   0.80588   0.93903   0.01267  Uiso   1.00
Ba3    Ba    0.07272   0.69412   0.06097   0.01267  Uiso   1.00
Ba4    Ba    0.42728   0.30588   0.56097   0.01267  Uiso   1.00
H1     H     0.85710   0.61220   0.69810   0.01267  Uiso   1.00
H2     H     0.93080   0.49810   0.59720   0.01267  Uiso   1.00
H3     H     0.87030   0.23170   0.76030   0.01267  Uiso   1.00
H4     H     0.82970   0.19790   0.90690   0.01267  Uiso   1.00
H5     H     0.79610   0.31330   0.01210   0.01267  Uiso   1.00
H6     H     0.79320   0.46230   0.96880   0.01267  Uiso   1.00
H7     H     0.64290   0.38780   0.19810   0.01267  Uiso   1.00
H8     H     0.56920   0.50190   0.09720   0.01267  Uiso   1.00
H9     H     0.62970   0.76830   0.26030   0.01267  Uiso   1.00
H10    H     0.67030   0.80210   0.40690   0.01267  Uiso   1.00
H11    H     0.70390   0.68670   0.51210   0.01267  Uiso   1.00
H12    H     0.70680   0.53770   0.46880   0.01267  Uiso   1.00
H13    H     0.14290   0.11220   0.80190   0.01267  Uiso   1.00
H14    H     0.06920   0.99810   0.90280   0.01267  Uiso   1.00
H15    H     0.12970   0.73170   0.73970   0.01267  Uiso   1.00
H16    H     0.17030   0.69790   0.59310   0.01267  Uiso   1.00
H17    H     0.20390   0.81330   0.48790   0.01267  Uiso   1.00
H18    H     0.20680   0.96230   0.53120   0.01267  Uiso   1.00
H19    H     0.35710   0.88780   0.30190   0.01267  Uiso   1.00
H20    H     0.43080   0.00190   0.40280   0.01267  Uiso   1.00
H21    H     0.37030   0.26830   0.23970   0.01267  Uiso   1.00
H22    H     0.32970   0.30210   0.09310   0.01267  Uiso   1.00
H23    H     0.29610   0.18670   0.98790   0.01267  Uiso   1.00
H24    H     0.29320   0.03770   0.03120   0.01267  Uiso   1.00
C1     C     0.91600   0.32280   0.60898   0.01267  Uiso   1.00
C2     C     0.89440   0.39340   0.68100   0.01267  Uiso   1.00
C3     C     0.85930   0.37030   0.77110   0.01267  Uiso   1.00
C4     C     0.83320   0.44110   0.83520   0.01267  Uiso   1.00
C5     C     0.82850   0.53410   0.80470   0.01267  Uiso   1.00
C6     C     0.86100   0.55210   0.71760   0.01267  Uiso   1.00
C7     C     0.90050   0.48290   0.65570   0.01267  Uiso   1.00
C8     C     0.85580   0.27870   0.80130   0.01267  Uiso   1.00
C9     C     0.83180   0.25850   0.88870   0.01267  Uiso   1.00
C10    C     0.81010   0.32800   0.95210   0.01267  Uiso   1.00
C11    C     0.80940   0.41680   0.92630   0.01267  Uiso   1.00
C12    C     0.78120   0.61470   0.86390   0.01267  Uiso   1.00
C13    C     0.58400   0.67720   0.10898   0.01267  Uiso   1.00
C14    C     0.60560   0.60660   0.18100   0.01267  Uiso   1.00
C15    C     0.64070   0.62970   0.27110   0.01267  Uiso   1.00
C16    C     0.66680   0.55890   0.33520   0.01267  Uiso   1.00
C17    C     0.67150   0.46590   0.30470   0.01267  Uiso   1.00
C18    C     0.63900   0.44790   0.21760   0.01267  Uiso   1.00
C19    C     0.59950   0.51710   0.15570   0.01267  Uiso   1.00
C20    C     0.64420   0.72130   0.30130   0.01267  Uiso   1.00
C21    C     0.66820   0.74150   0.38870   0.01267  Uiso   1.00
C22    C     0.68990   0.67200   0.45210   0.01267  Uiso   1.00
C23    C     0.69060   0.58320   0.42630   0.01267  Uiso   1.00
C24    C     0.71880   0.38530   0.36390   0.01267  Uiso   1.00
C25    C     0.08400   0.82280   0.89102   0.01267  Uiso   1.00
C26    C     0.10560   0.89340   0.81900   0.01267  Uiso   1.00
C27    C     0.14070   0.87030   0.72890   0.01267  Uiso   1.00
C28    C     0.16680   0.94110   0.66480   0.01267  Uiso   1.00
C29    C     0.17150   0.03410   0.69530   0.01267  Uiso   1.00
C30    C     0.13900   0.05210   0.78240   0.01267  Uiso   1.00
C31    C     0.09950   0.98290   0.84430   0.01267  Uiso   1.00
C32    C     0.14420   0.77870   0.69870   0.01267  Uiso   1.00
C33    C     0.16820   0.75850   0.61130   0.01267  Uiso   1.00
C34    C     0.18990   0.82800   0.54790   0.01267  Uiso   1.00
C35    C     0.19060   0.91680   0.57370   0.01267  Uiso   1.00
C36    C     0.21880   0.11470   0.63610   0.01267  Uiso   1.00
C37    C     0.41600   0.17720   0.39102   0.01267  Uiso   1.00
C38    C     0.39440   0.10660   0.31900   0.01267  Uiso   1.00
C39    C     0.35930   0.12970   0.22890   0.01267  Uiso   1.00
C40    C     0.33320   0.05890   0.16480   0.01267  Uiso   1.00
C41    C     0.32850   0.96590   0.19530   0.01267  Uiso   1.00
C42    C     0.36100   0.94790   0.28240   0.01267  Uiso   1.00
C43    C     0.40050   0.01710   0.34430   0.01267  Uiso   1.00
C44    C     0.35580   0.22130   0.19870   0.01267  Uiso   1.00
C45    C     0.33180   0.24150   0.11130   0.01267  Uiso   1.00
C46    C     0.31010   0.17200   0.04790   0.01267  Uiso   1.00
C47    C     0.30940   0.08320   0.07370   0.01267  Uiso   1.00
C48    C     0.28120   0.88530   0.13610   0.01267  Uiso   1.00
O1     O     0.79270   0.26184   0.60229   0.01267  Uiso   1.00
O2     O     0.05370   0.33161   0.55639   0.01267  Uiso   1.00
O3     O     0.68470   0.67550   0.82990   0.01267  Uiso   1.00
O4     O     0.84490   0.61620   0.94250   0.01267  Uiso   1.00
O5     O     0.70730   0.73816   0.10229   0.01267  Uiso   1.00
O6     O     0.44630   0.66839   0.05639   0.01267  Uiso   1.00
O7     O     0.81530   0.32450   0.32990   0.01267  Uiso   1.00
O8     O     0.65510   0.38380   0.44250   0.01267  Uiso   1.00
O9     O     0.20730   0.76184   0.89771   0.01267  Uiso   1.00
O10    O     0.94630   0.83161   0.94361   0.01267  Uiso   1.00
O11    O     0.31530   0.17550   0.67010   0.01267  Uiso   1.00
O12    O     0.15510   0.11620   0.55750   0.01267  Uiso   1.00
O13    O     0.29270   0.23816   0.39771   0.01267  Uiso   1.00
O14    O     0.55370   0.16839   0.44361   0.01267  Uiso   1.00
O15    O     0.18470   0.82450   0.17010   0.01267  Uiso   1.00
O16    O     0.34490   0.88380   0.05750   0.01267  Uiso   1.00
