data_KIYMIQ_clean
_audit_creation_date              2014-07-02
_audit_creation_method            'Materials Studio'
_symmetry_space_group_name_H-M    'P1'
_symmetry_Int_Tables_number       1
_symmetry_cell_setting            triclinic
loop_
_symmetry_equiv_pos_as_xyz
  x,y,z
_cell_length_a                    8.6880
_cell_length_b                    18.2186
_cell_length_c                    18.2186
_cell_angle_alpha                 120.0000
_cell_angle_beta                  90.0000
_cell_angle_gamma                 90.0000
loop_
_atom_site_label
_atom_site_type_symbol
_atom_site_fract_x
_atom_site_fract_y
_atom_site_fract_z
_atom_site_U_iso_or_equiv
_atom_site_adp_type
_atom_site_occupancy
Na1    Na    0.82368   0.36165   0.72521   0.01267  Uiso   1.00
Na2    Na    0.82161   0.25908   0.51105   0.01267  Uiso   1.00
Na3    Na    0.15701   0.36356   0.63835   0.01267  Uiso   1.00
Na4    Na    0.15494   0.25197   0.74092   0.01267  Uiso   1.00
Na5    Na    0.49035   0.27479   0.63644   0.01267  Uiso   1.00
Na6    Na    0.48828   0.48895   0.74803   0.01267  Uiso   1.00
Na7    Na    0.32368   0.63835   0.27479   0.01267  Uiso   1.00
Na8    Na    0.32161   0.74092   0.48895   0.01267  Uiso   1.00
Na9    Na    0.65701   0.63644   0.36165   0.01267  Uiso   1.00
Na10   Na    0.65494   0.74803   0.25908   0.01267  Uiso   1.00
Na11   Na    0.99035   0.72521   0.36356   0.01267  Uiso   1.00
Na12   Na    0.98828   0.51105   0.25197   0.01267  Uiso   1.00
H1     H     0.88350   0.05640   0.49230   0.01267  Uiso   1.00
H2     H     0.55280   0.87530   0.62150   0.01267  Uiso   1.00
H3     H     0.65640   0.16310   0.75470   0.01267  Uiso   1.00
H4     H     0.47370   0.96440   0.75690   0.01267  Uiso   1.00
H5     H     0.52520   0.10770   0.82280   0.01267  Uiso   1.00
H6     H     0.83470   0.91350   0.42520   0.01267  Uiso   1.00
H7     H     0.21683   0.43590   0.94360   0.01267  Uiso   1.00
H8     H     0.88613   0.74620   0.12470   0.01267  Uiso   1.00
H9     H     0.98973   0.59160   0.83690   0.01267  Uiso   1.00
H10    H     0.80703   0.79250   0.03560   0.01267  Uiso   1.00
H11    H     0.85853   0.71510   0.89230   0.01267  Uiso   1.00
H12    H     0.16803   0.51170   0.08650   0.01267  Uiso   1.00
H13    H     0.55017   0.50770   0.56410   0.01267  Uiso   1.00
H14    H     0.21947   0.37850   0.25380   0.01267  Uiso   1.00
H15    H     0.32307   0.24530   0.40840   0.01267  Uiso   1.00
H16    H     0.14037   0.24310   0.20750   0.01267  Uiso   1.00
H17    H     0.19187   0.17720   0.28490   0.01267  Uiso   1.00
H18    H     0.50137   0.57480   0.48830   0.01267  Uiso   1.00
H19    H     0.38350   0.94360   0.50770   0.01267  Uiso   1.00
H20    H     0.05280   0.12470   0.37850   0.01267  Uiso   1.00
H21    H     0.15640   0.83690   0.24530   0.01267  Uiso   1.00
H22    H     0.97370   0.03560   0.24310   0.01267  Uiso   1.00
H23    H     0.02520   0.89230   0.17720   0.01267  Uiso   1.00
H24    H     0.33470   0.08650   0.57480   0.01267  Uiso   1.00
H25    H     0.71683   0.56410   0.05640   0.01267  Uiso   1.00
H26    H     0.38613   0.25380   0.87530   0.01267  Uiso   1.00
H27    H     0.48973   0.40840   0.16310   0.01267  Uiso   1.00
H28    H     0.30703   0.20750   0.96440   0.01267  Uiso   1.00
H29    H     0.35853   0.28490   0.10770   0.01267  Uiso   1.00
H30    H     0.66803   0.48830   0.91350   0.01267  Uiso   1.00
H31    H     0.05017   0.49230   0.43590   0.01267  Uiso   1.00
H32    H     0.71947   0.62150   0.74620   0.01267  Uiso   1.00
H33    H     0.82307   0.75470   0.59160   0.01267  Uiso   1.00
H34    H     0.64037   0.75690   0.79250   0.01267  Uiso   1.00
H35    H     0.69187   0.82280   0.71510   0.01267  Uiso   1.00
H36    H     0.00137   0.42520   0.51170   0.01267  Uiso   1.00
C1     C     0.80600   0.18149   0.64090   0.01267  Uiso   1.00
C2     C     0.77480   0.08731   0.60051   0.01267  Uiso   1.00
C3     C     0.65850   0.96417   0.60114   0.01267  Uiso   1.00
C4     C     0.69230   0.05301   0.64342   0.01267  Uiso   1.00
C5     C     0.82680   0.03435   0.52010   0.01267  Uiso   1.00
C6     C     0.57510   0.93285   0.64708   0.01267  Uiso   1.00
C7     C     0.63760   0.10511   0.72718   0.01267  Uiso   1.00
C8     C     0.52780   0.98610   0.72790   0.01267  Uiso   1.00
C9     C     0.55900   0.07230   0.76760   0.01267  Uiso   1.00
C10    C     0.79600   0.94787   0.47946   0.01267  Uiso   1.00
C11    C     0.71110   0.91117   0.51585   0.01267  Uiso   1.00
C12    C     0.67160   0.81838   0.46166   0.01267  Uiso   1.00
C13    C     0.13933   0.45941   0.81851   0.01267  Uiso   1.00
C14    C     0.10813   0.51320   0.91269   0.01267  Uiso   1.00
C15    C     0.99183   0.63697   0.03583   0.01267  Uiso   1.00
C16    C     0.02563   0.59041   0.94699   0.01267  Uiso   1.00
C17    C     0.16013   0.48575   0.96565   0.01267  Uiso   1.00
C18    C     0.90843   0.71423   0.06715   0.01267  Uiso   1.00
C19    C     0.97093   0.62207   0.89489   0.01267  Uiso   1.00
C20    C     0.86113   0.74180   0.01390   0.01267  Uiso   1.00
C21    C     0.89233   0.69530   0.92770   0.01267  Uiso   1.00
C22    C     0.12933   0.53159   0.05213   0.01267  Uiso   1.00
C23    C     0.04443   0.60468   0.08883   0.01267  Uiso   1.00
C24    C     0.00493   0.64328   0.18162   0.01267  Uiso   1.00
C25    C     0.47267   0.35910   0.54059   0.01267  Uiso   1.00
C26    C     0.44147   0.39949   0.48680   0.01267  Uiso   1.00
C27    C     0.32517   0.39886   0.36303   0.01267  Uiso   1.00
C28    C     0.35897   0.35658   0.40959   0.01267  Uiso   1.00
C29    C     0.49347   0.47990   0.51425   0.01267  Uiso   1.00
C30    C     0.24177   0.35292   0.28577   0.01267  Uiso   1.00
C31    C     0.30427   0.27282   0.37793   0.01267  Uiso   1.00
C32    C     0.19447   0.27210   0.25820   0.01267  Uiso   1.00
C33    C     0.22567   0.23240   0.30470   0.01267  Uiso   1.00
C34    C     0.46267   0.52054   0.46841   0.01267  Uiso   1.00
C35    C     0.37777   0.48415   0.39532   0.01267  Uiso   1.00
C36    C     0.33827   0.53834   0.35672   0.01267  Uiso   1.00
C37    C     0.30600   0.81851   0.35910   0.01267  Uiso   1.00
C38    C     0.27480   0.91269   0.39949   0.01267  Uiso   1.00
C39    C     0.15850   0.03583   0.39886   0.01267  Uiso   1.00
C40    C     0.19230   0.94699   0.35658   0.01267  Uiso   1.00
C41    C     0.32680   0.96565   0.47990   0.01267  Uiso   1.00
C42    C     0.07510   0.06715   0.35292   0.01267  Uiso   1.00
C43    C     0.13760   0.89489   0.27282   0.01267  Uiso   1.00
C44    C     0.02780   0.01390   0.27210   0.01267  Uiso   1.00
C45    C     0.05900   0.92770   0.23240   0.01267  Uiso   1.00
C46    C     0.29600   0.05213   0.52054   0.01267  Uiso   1.00
C47    C     0.21110   0.08883   0.48415   0.01267  Uiso   1.00
C48    C     0.17160   0.18162   0.53834   0.01267  Uiso   1.00
C49    C     0.63933   0.54059   0.18149   0.01267  Uiso   1.00
C50    C     0.60813   0.48680   0.08731   0.01267  Uiso   1.00
C51    C     0.49183   0.36303   0.96417   0.01267  Uiso   1.00
C52    C     0.52563   0.40959   0.05301   0.01267  Uiso   1.00
C53    C     0.66013   0.51425   0.03435   0.01267  Uiso   1.00
C54    C     0.40843   0.28577   0.93285   0.01267  Uiso   1.00
C55    C     0.47093   0.37793   0.10511   0.01267  Uiso   1.00
C56    C     0.36113   0.25820   0.98610   0.01267  Uiso   1.00
C57    C     0.39233   0.30470   0.07230   0.01267  Uiso   1.00
C58    C     0.62933   0.46841   0.94787   0.01267  Uiso   1.00
C59    C     0.54443   0.39532   0.91117   0.01267  Uiso   1.00
C60    C     0.50493   0.35672   0.81838   0.01267  Uiso   1.00
C61    C     0.97267   0.64090   0.45941   0.01267  Uiso   1.00
C62    C     0.94147   0.60051   0.51320   0.01267  Uiso   1.00
C63    C     0.82517   0.60114   0.63697   0.01267  Uiso   1.00
C64    C     0.85897   0.64342   0.59041   0.01267  Uiso   1.00
C65    C     0.99347   0.52010   0.48575   0.01267  Uiso   1.00
C66    C     0.74177   0.64708   0.71423   0.01267  Uiso   1.00
C67    C     0.80427   0.72718   0.62207   0.01267  Uiso   1.00
C68    C     0.69447   0.72790   0.74180   0.01267  Uiso   1.00
C69    C     0.72567   0.76760   0.69530   0.01267  Uiso   1.00
C70    C     0.96267   0.47946   0.53159   0.01267  Uiso   1.00
C71    C     0.87777   0.51585   0.60468   0.01267  Uiso   1.00
C72    C     0.83827   0.46166   0.64328   0.01267  Uiso   1.00
O1     O     0.73340   0.21950   0.60997   0.01267  Uiso   1.00
O2     O     0.89780   0.21587   0.70085   0.01267  Uiso   1.00
O3     O     0.74750   0.77665   0.39429   0.01267  Uiso   1.00
O4     O     0.56560   0.78670   0.48250   0.01267  Uiso   1.00
O5     O     0.06673   0.39047   0.78050   0.01267  Uiso   1.00
O6     O     0.23113   0.48498   0.78413   0.01267  Uiso   1.00
O7     O     0.08083   0.61764   0.22335   0.01267  Uiso   1.00
O8     O     0.89893   0.69580   0.21330   0.01267  Uiso   1.00
O9     O     0.40007   0.39003   0.60953   0.01267  Uiso   1.00
O10    O     0.56447   0.29915   0.51502   0.01267  Uiso   1.00
O11    O     0.41417   0.60571   0.38236   0.01267  Uiso   1.00
O12    O     0.23227   0.51750   0.30420   0.01267  Uiso   1.00
O13    O     0.23340   0.78050   0.39003   0.01267  Uiso   1.00
O14    O     0.39780   0.78413   0.29915   0.01267  Uiso   1.00
O15    O     0.24750   0.22335   0.60571   0.01267  Uiso   1.00
O16    O     0.06560   0.21330   0.51750   0.01267  Uiso   1.00
O17    O     0.56673   0.60953   0.21950   0.01267  Uiso   1.00
O18    O     0.73113   0.51502   0.21587   0.01267  Uiso   1.00
O19    O     0.58083   0.38236   0.77665   0.01267  Uiso   1.00
O20    O     0.39893   0.30420   0.78670   0.01267  Uiso   1.00
O21    O     0.90007   0.60997   0.39047   0.01267  Uiso   1.00
O22    O     0.06447   0.70085   0.48498   0.01267  Uiso   1.00
O23    O     0.91417   0.39429   0.61764   0.01267  Uiso   1.00
O24    O     0.73227   0.48250   0.69580   0.01267  Uiso   1.00
