data_image0
_cell_length_a       7.1395
_cell_length_b       14.678
_cell_length_c       15.014
_cell_angle_alpha    90
_cell_angle_beta     90
_cell_angle_gamma    90

_symmetry_space_group_name_H-M    "P 1"
_symmetry_int_tables_number       1

loop_
  _symmetry_equiv_pos_as_xyz
  'x, y, z'

loop_
  _atom_site_label
  _atom_site_occupancy
  _atom_site_fract_x
  _atom_site_fract_y
  _atom_site_fract_z
  _atom_site_thermal_displace_type
  _atom_site_B_iso_or_equiv
  _atom_site_type_symbol
  Ba1      1.0000 0.92802  0.19409  0.43891  Biso   1.000  Ba
  O1       1.0000 0.79430  0.26080  0.60272  Biso   1.000  O
  O2       1.0000 0.05340  0.33141  0.55707  Biso   1.000  O
  O3       1.0000 0.84440  0.61570  0.94260  Biso   1.000  O
  O4       1.0000 0.68340  0.67530  0.83000  Biso   1.000  O
  C1       1.0000 0.91720  0.32280  0.60950  Biso   1.000  C
  C2       1.0000 0.78010  0.61400  0.86520  Biso   1.000  C
  C3       1.0000 0.89830  0.48310  0.65620  Biso   1.000  C
  H1       1.0000 0.92630  0.49820  0.59750  Biso   1.000  H
  C4       1.0000 0.89580  0.39420  0.68080  Biso   1.000  C
  C5       1.0000 0.85670  0.37010  0.77170  Biso   1.000  C
  C6       1.0000 0.85420  0.27770  0.80200  Biso   1.000  C
  H2       1.0000 0.86790  0.23060  0.76110  Biso   1.000  H
  C7       1.0000 0.83210  0.25800  0.88910  Biso   1.000  C
  H3       1.0000 0.83040  0.19750  0.90750  Biso   1.000  H
  C8       1.0000 0.81180  0.32710  0.95190  Biso   1.000  C
  H4       1.0000 0.79910  0.31230  0.01190  Biso   1.000  H
  C9       1.0000 0.81030  0.41590  0.92640  Biso   1.000  C
  H5       1.0000 0.79450  0.46110  0.96920  Biso   1.000  H
  C10      1.0000 0.83240  0.44080  0.83560  Biso   1.000  C
  C11      1.0000 0.82670  0.53420  0.80510  Biso   1.000  C
  C12      1.0000 0.85930  0.55240  0.71750  Biso   1.000  C
  H6       1.0000 0.85570  0.61250  0.69790  Biso   1.000  H
  Ba2      1.0000 0.57198  0.80591  0.93891  Biso   1.000  Ba
  O5       1.0000 0.70570  0.73920  0.10272  Biso   1.000  O
  O6       1.0000 0.44660  0.66859  0.05707  Biso   1.000  O
  O7       1.0000 0.65560  0.38430  0.44260  Biso   1.000  O
  O8       1.0000 0.81660  0.32470  0.33000  Biso   1.000  O
  C13      1.0000 0.58280  0.67720  0.10950  Biso   1.000  C
  C14      1.0000 0.71990  0.38600  0.36520  Biso   1.000  C
  C15      1.0000 0.60170  0.51690  0.15620  Biso   1.000  C
  H7       1.0000 0.57370  0.50180  0.09750  Biso   1.000  H
  C16      1.0000 0.60420  0.60580  0.18080  Biso   1.000  C
  C17      1.0000 0.64330  0.62990  0.27170  Biso   1.000  C
  C18      1.0000 0.64580  0.72230  0.30200  Biso   1.000  C
  H8       1.0000 0.63210  0.76940  0.26110  Biso   1.000  H
  C19      1.0000 0.66790  0.74200  0.38910  Biso   1.000  C
  H9       1.0000 0.66960  0.80250  0.40750  Biso   1.000  H
  C20      1.0000 0.68820  0.67290  0.45190  Biso   1.000  C
  H10      1.0000 0.70090  0.68770  0.51190  Biso   1.000  H
  C21      1.0000 0.68970  0.58410  0.42640  Biso   1.000  C
  H11      1.0000 0.70550  0.53890  0.46920  Biso   1.000  H
  C22      1.0000 0.66760  0.55920  0.33560  Biso   1.000  C
  C23      1.0000 0.67330  0.46580  0.30510  Biso   1.000  C
  C24      1.0000 0.64070  0.44760  0.21750  Biso   1.000  C
  H12      1.0000 0.64430  0.38750  0.19790  Biso   1.000  H
  Ba3      1.0000 0.07198  0.69409  0.06109  Biso   1.000  Ba
  O9       1.0000 0.20570  0.76080  0.89728  Biso   1.000  O
  O10      1.0000 0.94660  0.83141  0.94293  Biso   1.000  O
  O11      1.0000 0.15560  0.11570  0.55740  Biso   1.000  O
  O12      1.0000 0.31660  0.17530  0.67000  Biso   1.000  O
  C25      1.0000 0.08280  0.82280  0.89050  Biso   1.000  C
  C26      1.0000 0.21990  0.11400  0.63480  Biso   1.000  C
  C27      1.0000 0.10170  0.98310  0.84380  Biso   1.000  C
  H13      1.0000 0.07370  0.99820  0.90250  Biso   1.000  H
  C28      1.0000 0.10420  0.89420  0.81920  Biso   1.000  C
  C29      1.0000 0.14330  0.87010  0.72830  Biso   1.000  C
  C30      1.0000 0.14580  0.77770  0.69800  Biso   1.000  C
  H14      1.0000 0.13210  0.73060  0.73890  Biso   1.000  H
  C31      1.0000 0.16790  0.75800  0.61090  Biso   1.000  C
  H15      1.0000 0.16960  0.69750  0.59250  Biso   1.000  H
  C32      1.0000 0.18820  0.82710  0.54810  Biso   1.000  C
  H16      1.0000 0.20090  0.81230  0.48810  Biso   1.000  H
  C33      1.0000 0.18970  0.91590  0.57360  Biso   1.000  C
  H17      1.0000 0.20550  0.96110  0.53080  Biso   1.000  H
  C34      1.0000 0.16760  0.94080  0.66440  Biso   1.000  C
  C35      1.0000 0.17330  0.03420  0.69490  Biso   1.000  C
  C36      1.0000 0.14070  0.05240  0.78250  Biso   1.000  C
  H18      1.0000 0.14430  0.11250  0.80210  Biso   1.000  H
  Ba4      1.0000 0.42802  0.30591  0.56109  Biso   1.000  Ba
  O13      1.0000 0.29430  0.23920  0.39728  Biso   1.000  O
  O14      1.0000 0.55340  0.16859  0.44293  Biso   1.000  O
  O15      1.0000 0.34440  0.88430  0.05740  Biso   1.000  O
  O16      1.0000 0.18340  0.82470  0.17000  Biso   1.000  O
  C37      1.0000 0.41720  0.17720  0.39050  Biso   1.000  C
  C38      1.0000 0.28010  0.88600  0.13480  Biso   1.000  C
  C39      1.0000 0.39830  0.01690  0.34380  Biso   1.000  C
  H19      1.0000 0.42630  0.00180  0.40250  Biso   1.000  H
  C40      1.0000 0.39580  0.10580  0.31920  Biso   1.000  C
  C41      1.0000 0.35670  0.12990  0.22830  Biso   1.000  C
  C42      1.0000 0.35420  0.22230  0.19800  Biso   1.000  C
  H20      1.0000 0.36790  0.26940  0.23890  Biso   1.000  H
  C43      1.0000 0.33210  0.24200  0.11090  Biso   1.000  C
  H21      1.0000 0.33040  0.30250  0.09250  Biso   1.000  H
  C44      1.0000 0.31180  0.17290  0.04810  Biso   1.000  C
  H22      1.0000 0.29910  0.18770  0.98810  Biso   1.000  H
  C45      1.0000 0.31030  0.08410  0.07360  Biso   1.000  C
  H23      1.0000 0.29450  0.03890  0.03080  Biso   1.000  H
  C46      1.0000 0.33240  0.05920  0.16440  Biso   1.000  C
  C47      1.0000 0.32670  0.96580  0.19490  Biso   1.000  C
  C48      1.0000 0.35930  0.94760  0.28250  Biso   1.000  C
  H24      1.0000 0.35570  0.88750  0.30210  Biso   1.000  H
