data_image0
_cell_length_a       6.901
_cell_length_b       14.7
_cell_length_c       15.012
_cell_angle_alpha    90
_cell_angle_beta     90
_cell_angle_gamma    90

_symmetry_space_group_name_H-M    "P 1"
_symmetry_int_tables_number       1

loop_
  _symmetry_equiv_pos_as_xyz
  'x, y, z'

loop_
  _atom_site_label
  _atom_site_occupancy
  _atom_site_fract_x
  _atom_site_fract_y
  _atom_site_fract_z
  _atom_site_thermal_displace_type
  _atom_site_B_iso_or_equiv
  _atom_site_type_symbol
  Sr1      1.0000 0.85560  0.19228  0.54638  Biso   1.000  Sr
  O1       1.0000 0.99500  0.34777  0.47821  Biso   1.000  O
  O2       1.0000 0.71910  0.29960  0.41966  Biso   1.000  O
  O3       1.0000 0.01490  0.60210  0.07900  Biso   1.000  O
  O4       1.0000 0.81390  0.70030  0.14550  Biso   1.000  O
  C1       1.0000 0.85870  0.35430  0.42340  Biso   1.000  C
  C2       1.0000 0.90920  0.62720  0.14180  Biso   1.000  C
  C3       1.0000 0.86370  0.42970  0.35480  Biso   1.000  C
  C4       1.0000 0.86070  0.40580  0.26710  Biso   1.000  C
  H1       1.0000 0.84290  0.34510  0.25160  Biso   1.000  H
  C5       1.0000 0.88410  0.47110  0.19970  Biso   1.000  C
  H2       1.0000 0.89390  0.45240  0.14070  Biso   1.000  H
  C6       1.0000 0.89280  0.56090  0.21940  Biso   1.000  C
  C7       1.0000 0.88400  0.58960  0.31150  Biso   1.000  C
  C8       1.0000 0.87800  0.52230  0.37780  Biso   1.000  C
  C9       1.0000 0.87940  0.55100  0.46910  Biso   1.000  C
  H3       1.0000 0.87600  0.50760  0.51410  Biso   1.000  H
  C10      1.0000 0.88570  0.64070  0.49100  Biso   1.000  C
  H4       1.0000 0.88860  0.65780  0.55060  Biso   1.000  H
  C11      1.0000 0.88780  0.70700  0.42510  Biso   1.000  C
  H5       1.0000 0.89050  0.76810  0.44120  Biso   1.000  H
  C12      1.0000 0.88600  0.68400  0.33760  Biso   1.000  C
  H6       1.0000 0.88620  0.72920  0.29430  Biso   1.000  H
  Sr2      1.0000 0.64440  0.80772  0.04638  Biso   1.000  Sr
  O5       1.0000 0.50500  0.65223  0.97821  Biso   1.000  O
  O6       1.0000 0.78090  0.70040  0.91966  Biso   1.000  O
  O7       1.0000 0.48510  0.39790  0.57900  Biso   1.000  O
  O8       1.0000 0.68610  0.29970  0.64550  Biso   1.000  O
  C13      1.0000 0.64130  0.64570  0.92340  Biso   1.000  C
  C14      1.0000 0.59080  0.37280  0.64180  Biso   1.000  C
  C15      1.0000 0.63630  0.57030  0.85480  Biso   1.000  C
  C16      1.0000 0.63930  0.59420  0.76710  Biso   1.000  C
  H7       1.0000 0.65710  0.65490  0.75160  Biso   1.000  H
  C17      1.0000 0.61590  0.52890  0.69970  Biso   1.000  C
  H8       1.0000 0.60610  0.54760  0.64070  Biso   1.000  H
  C18      1.0000 0.60720  0.43910  0.71940  Biso   1.000  C
  C19      1.0000 0.61600  0.41040  0.81150  Biso   1.000  C
  C20      1.0000 0.62200  0.47770  0.87780  Biso   1.000  C
  C21      1.0000 0.62060  0.44900  0.96910  Biso   1.000  C
  H9       1.0000 0.62400  0.49240  0.01410  Biso   1.000  H
  C22      1.0000 0.61430  0.35930  0.99100  Biso   1.000  C
  H10      1.0000 0.61140  0.34220  0.05060  Biso   1.000  H
  C23      1.0000 0.61220  0.29300  0.92510  Biso   1.000  C
  H11      1.0000 0.60950  0.23190  0.94120  Biso   1.000  H
  C24      1.0000 0.61400  0.31600  0.83760  Biso   1.000  C
  H12      1.0000 0.61380  0.27080  0.79430  Biso   1.000  H
  Sr3      1.0000 0.14440  0.69228  0.95362  Biso   1.000  Sr
  O9       1.0000 0.00500  0.84777  0.02179  Biso   1.000  O
  O10      1.0000 0.28090  0.79960  0.08034  Biso   1.000  O
  O11      1.0000 0.98510  0.10210  0.42100  Biso   1.000  O
  O12      1.0000 0.18610  0.20030  0.35450  Biso   1.000  O
  C25      1.0000 0.14130  0.85430  0.07660  Biso   1.000  C
  C26      1.0000 0.09080  0.12720  0.35820  Biso   1.000  C
  C27      1.0000 0.13630  0.92970  0.14520  Biso   1.000  C
  C28      1.0000 0.13930  0.90580  0.23290  Biso   1.000  C
  H13      1.0000 0.15710  0.84510  0.24840  Biso   1.000  H
  C29      1.0000 0.11590  0.97110  0.30030  Biso   1.000  C
  H14      1.0000 0.10610  0.95240  0.35930  Biso   1.000  H
  C30      1.0000 0.10720  0.06090  0.28060  Biso   1.000  C
  C31      1.0000 0.11600  0.08960  0.18850  Biso   1.000  C
  C32      1.0000 0.12200  0.02230  0.12220  Biso   1.000  C
  C33      1.0000 0.12060  0.05100  0.03090  Biso   1.000  C
  H15      1.0000 0.12400  0.00760  0.98590  Biso   1.000  H
  C34      1.0000 0.11430  0.14070  0.00900  Biso   1.000  C
  H16      1.0000 0.11140  0.15780  0.94940  Biso   1.000  H
  C35      1.0000 0.11220  0.20700  0.07490  Biso   1.000  C
  H17      1.0000 0.10950  0.26810  0.05880  Biso   1.000  H
  C36      1.0000 0.11400  0.18400  0.16240  Biso   1.000  C
  H18      1.0000 0.11380  0.22920  0.20570  Biso   1.000  H
  Sr4      1.0000 0.35560  0.30772  0.45362  Biso   1.000  Sr
  O13      1.0000 0.49500  0.15223  0.52179  Biso   1.000  O
  O14      1.0000 0.21910  0.20040  0.58034  Biso   1.000  O
  O15      1.0000 0.51490  0.89790  0.92100  Biso   1.000  O
  O16      1.0000 0.31390  0.79970  0.85450  Biso   1.000  O
  C37      1.0000 0.35870  0.14570  0.57660  Biso   1.000  C
  C38      1.0000 0.40920  0.87280  0.85820  Biso   1.000  C
  C39      1.0000 0.36370  0.07030  0.64520  Biso   1.000  C
  C40      1.0000 0.36070  0.09420  0.73290  Biso   1.000  C
  H19      1.0000 0.34290  0.15490  0.74840  Biso   1.000  H
  C41      1.0000 0.38410  0.02890  0.80030  Biso   1.000  C
  H20      1.0000 0.39390  0.04760  0.85930  Biso   1.000  H
  C42      1.0000 0.39280  0.93910  0.78060  Biso   1.000  C
  C43      1.0000 0.38400  0.91040  0.68850  Biso   1.000  C
  C44      1.0000 0.37800  0.97770  0.62220  Biso   1.000  C
  C45      1.0000 0.37940  0.94900  0.53090  Biso   1.000  C
  H21      1.0000 0.37600  0.99240  0.48590  Biso   1.000  H
  C46      1.0000 0.38570  0.85930  0.50900  Biso   1.000  C
  H22      1.0000 0.38860  0.84220  0.44940  Biso   1.000  H
  C47      1.0000 0.38780  0.79300  0.57490  Biso   1.000  C
  H23      1.0000 0.39050  0.73190  0.55880  Biso   1.000  H
  C48      1.0000 0.38600  0.81600  0.66240  Biso   1.000  C
  H24      1.0000 0.38620  0.77080  0.70570  Biso   1.000  H
