data_image0
_cell_length_a       22.5053
_cell_length_b       22.5053
_cell_length_c       36.444
_cell_angle_alpha    90
_cell_angle_beta     90
_cell_angle_gamma    120

_symmetry_space_group_name_H-M    "P 1"
_symmetry_int_tables_number       1

loop_
  _symmetry_equiv_pos_as_xyz
  'x, y, z'

loop_
  _atom_site_label
  _atom_site_occupancy
  _atom_site_fract_x
  _atom_site_fract_y
  _atom_site_fract_z
  _atom_site_thermal_displace_type
  _atom_site_B_iso_or_equiv
  _atom_site_type_symbol
  Cu1      1.0000 0.04755  0.68325  0.01345  Biso   1.000  Cu
  O1       1.0000 0.35480  0.78620  0.18991  Biso   1.000  O
  O2       1.0000 0.24246  0.72754  0.19696  Biso   1.000  O
  O3       1.0000 0.09777  0.63035  0.08877  Biso   1.000  O
  O4       1.0000 0.12709  0.69406  0.03794  Biso   1.000  O
  C1       1.0000 0.38010  0.96520  0.09623  Biso   1.000  C
  H1       1.0000 0.34620  0.93710  0.11280  Biso   1.000  H
  C2       1.0000 0.40480  0.94320  0.06644  Biso   1.000  C
  C3       1.0000 0.38000  0.87530  0.05640  Biso   1.000  C
  C4       1.0000 0.40180  0.85480  0.02558  Biso   1.000  C
  C5       1.0000 0.37710  0.78470  0.01569  Biso   1.000  C
  H2       1.0000 0.34570  0.74620  0.02880  Biso   1.000  H
  C6       1.0000 0.32510  0.82060  0.07969  Biso   1.000  C
  C7       1.0000 0.33680  0.81180  0.11598  Biso   1.000  C
  H3       1.0000 0.38010  0.83920  0.12610  Biso   1.000  H
  C8       1.0000 0.28480  0.76250  0.13745  Biso   1.000  C
  C9       1.0000 0.22130  0.71910  0.12191  Biso   1.000  C
  H4       1.0000 0.18660  0.68540  0.13620  Biso   1.000  H
  C10      1.0000 0.20910  0.72560  0.08536  Biso   1.000  C
  C11      1.0000 0.26080  0.77690  0.06458  Biso   1.000  C
  H5       1.0000 0.25250  0.78230  0.04020  Biso   1.000  H
  C12      1.0000 0.29560  0.75800  0.17777  Biso   1.000  C
  C13      1.0000 0.13940  0.68010  0.06877  Biso   1.000  C
  Cu2      1.0000 0.31675  0.36430  0.01345  Biso   1.000  Cu
  O5       1.0000 0.21380  0.56860  0.18991  Biso   1.000  O
  O6       1.0000 0.27246  0.51492  0.19696  Biso   1.000  O
  O7       1.0000 0.36965  0.46742  0.08877  Biso   1.000  O
  O8       1.0000 0.30594  0.43303  0.03794  Biso   1.000  O
  C14      1.0000 0.03480  0.41490  0.09623  Biso   1.000  C
  H6       1.0000 0.06290  0.40910  0.11280  Biso   1.000  H
  C15      1.0000 0.05680  0.46160  0.06644  Biso   1.000  C
  C16      1.0000 0.12470  0.50470  0.05640  Biso   1.000  C
  C17      1.0000 0.14520  0.54700  0.02558  Biso   1.000  C
  C18      1.0000 0.21530  0.59240  0.01569  Biso   1.000  C
  H7       1.0000 0.25380  0.59950  0.02880  Biso   1.000  H
  C19      1.0000 0.17940  0.50450  0.07969  Biso   1.000  C
  C20      1.0000 0.18820  0.52500  0.11598  Biso   1.000  C
  H8       1.0000 0.16080  0.54090  0.12610  Biso   1.000  H
  C21      1.0000 0.23750  0.52230  0.13745  Biso   1.000  C
  C22      1.0000 0.28090  0.50220  0.12191  Biso   1.000  C
  H9       1.0000 0.31460  0.50120  0.13620  Biso   1.000  H
  C23      1.0000 0.27440  0.48350  0.08536  Biso   1.000  C
  C24      1.0000 0.22310  0.48390  0.06458  Biso   1.000  C
  H10      1.0000 0.21770  0.47020  0.04020  Biso   1.000  H
  C25      1.0000 0.24200  0.53760  0.17777  Biso   1.000  C
  C26      1.0000 0.31990  0.45930  0.06877  Biso   1.000  C
  Cu3      1.0000 0.63570  0.95245  0.01345  Biso   1.000  Cu
  O9       1.0000 0.43140  0.64520  0.18991  Biso   1.000  O
  O10      1.0000 0.48508  0.75754  0.19696  Biso   1.000  O
  O11      1.0000 0.53258  0.90223  0.08877  Biso   1.000  O
  O12      1.0000 0.56697  0.87291  0.03794  Biso   1.000  O
  C27      1.0000 0.58510  0.61990  0.09623  Biso   1.000  C
  H11      1.0000 0.59090  0.65380  0.11280  Biso   1.000  H
  C28      1.0000 0.53840  0.59520  0.06644  Biso   1.000  C
  C29      1.0000 0.49530  0.62000  0.05640  Biso   1.000  C
  C30      1.0000 0.45300  0.59820  0.02558  Biso   1.000  C
  C31      1.0000 0.40760  0.62290  0.01569  Biso   1.000  C
  H12      1.0000 0.40050  0.65430  0.02880  Biso   1.000  H
  C32      1.0000 0.49550  0.67490  0.07969  Biso   1.000  C
  C33      1.0000 0.47500  0.66320  0.11598  Biso   1.000  C
  H13      1.0000 0.45910  0.61990  0.12610  Biso   1.000  H
  C34      1.0000 0.47770  0.71520  0.13745  Biso   1.000  C
  C35      1.0000 0.49780  0.77870  0.12191  Biso   1.000  C
  H14      1.0000 0.49880  0.81340  0.13620  Biso   1.000  H
  C36      1.0000 0.51650  0.79090  0.08536  Biso   1.000  C
  C37      1.0000 0.51610  0.73920  0.06458  Biso   1.000  C
  H15      1.0000 0.52980  0.74750  0.04020  Biso   1.000  H
  C38      1.0000 0.46240  0.70440  0.17777  Biso   1.000  C
  C39      1.0000 0.54070  0.86060  0.06877  Biso   1.000  C
  Cu4      1.0000 0.95245  0.31675  0.51345  Biso   1.000  Cu
  O13      1.0000 0.64520  0.21380  0.68991  Biso   1.000  O
  O14      1.0000 0.75754  0.27246  0.69696  Biso   1.000  O
  O15      1.0000 0.90223  0.36965  0.58877  Biso   1.000  O
  O16      1.0000 0.87291  0.30594  0.53794  Biso   1.000  O
  C40      1.0000 0.61990  0.03480  0.59623  Biso   1.000  C
  H16      1.0000 0.65380  0.06290  0.61280  Biso   1.000  H
  C41      1.0000 0.59520  0.05680  0.56644  Biso   1.000  C
  C42      1.0000 0.62000  0.12470  0.55640  Biso   1.000  C
  C43      1.0000 0.59820  0.14520  0.52558  Biso   1.000  C
  C44      1.0000 0.62290  0.21530  0.51569  Biso   1.000  C
  H17      1.0000 0.65430  0.25380  0.52880  Biso   1.000  H
  C45      1.0000 0.67490  0.17940  0.57969  Biso   1.000  C
  C46      1.0000 0.66320  0.18820  0.61598  Biso   1.000  C
  H18      1.0000 0.61990  0.16080  0.62610  Biso   1.000  H
  C47      1.0000 0.71520  0.23750  0.63745  Biso   1.000  C
  C48      1.0000 0.77870  0.28090  0.62191  Biso   1.000  C
  H19      1.0000 0.81340  0.31460  0.63620  Biso   1.000  H
  C49      1.0000 0.79090  0.27440  0.58536  Biso   1.000  C
  C50      1.0000 0.73920  0.22310  0.56458  Biso   1.000  C
  H20      1.0000 0.74750  0.21770  0.54020  Biso   1.000  H
  C51      1.0000 0.70440  0.24200  0.67777  Biso   1.000  C
  C52      1.0000 0.86060  0.31990  0.56877  Biso   1.000  C
  Cu5      1.0000 0.68325  0.63570  0.51345  Biso   1.000  Cu
  O17      1.0000 0.78620  0.43140  0.68991  Biso   1.000  O
  O18      1.0000 0.72754  0.48508  0.69696  Biso   1.000  O
  O19      1.0000 0.63035  0.53258  0.58877  Biso   1.000  O
  O20      1.0000 0.69406  0.56697  0.53794  Biso   1.000  O
  C53      1.0000 0.96520  0.58510  0.59623  Biso   1.000  C
  H21      1.0000 0.93710  0.59090  0.61280  Biso   1.000  H
  C54      1.0000 0.94320  0.53840  0.56644  Biso   1.000  C
  C55      1.0000 0.87530  0.49530  0.55640  Biso   1.000  C
  C56      1.0000 0.85480  0.45300  0.52558  Biso   1.000  C
  C57      1.0000 0.78470  0.40760  0.51569  Biso   1.000  C
  H22      1.0000 0.74620  0.40050  0.52880  Biso   1.000  H
  C58      1.0000 0.82060  0.49550  0.57969  Biso   1.000  C
  C59      1.0000 0.81180  0.47500  0.61598  Biso   1.000  C
  H23      1.0000 0.83920  0.45910  0.62610  Biso   1.000  H
  C60      1.0000 0.76250  0.47770  0.63745  Biso   1.000  C
  C61      1.0000 0.71910  0.49780  0.62191  Biso   1.000  C
  H24      1.0000 0.68540  0.49880  0.63620  Biso   1.000  H
  C62      1.0000 0.72560  0.51650  0.58536  Biso   1.000  C
  C63      1.0000 0.77690  0.51610  0.56458  Biso   1.000  C
  H25      1.0000 0.78230  0.52980  0.54020  Biso   1.000  H
  C64      1.0000 0.75800  0.46240  0.67777  Biso   1.000  C
  C65      1.0000 0.68010  0.54070  0.56877  Biso   1.000  C
  Cu6      1.0000 0.36430  0.04755  0.51345  Biso   1.000  Cu
  O21      1.0000 0.56860  0.35480  0.68991  Biso   1.000  O
  O22      1.0000 0.51492  0.24246  0.69696  Biso   1.000  O
  O23      1.0000 0.46742  0.09777  0.58877  Biso   1.000  O
  O24      1.0000 0.43303  0.12709  0.53794  Biso   1.000  O
  C66      1.0000 0.41490  0.38010  0.59623  Biso   1.000  C
  H26      1.0000 0.40910  0.34620  0.61280  Biso   1.000  H
  C67      1.0000 0.46160  0.40480  0.56644  Biso   1.000  C
  C68      1.0000 0.50470  0.38000  0.55640  Biso   1.000  C
  C69      1.0000 0.54700  0.40180  0.52558  Biso   1.000  C
  C70      1.0000 0.59240  0.37710  0.51569  Biso   1.000  C
  H27      1.0000 0.59950  0.34570  0.52880  Biso   1.000  H
  C71      1.0000 0.50450  0.32510  0.57969  Biso   1.000  C
  C72      1.0000 0.52500  0.33680  0.61598  Biso   1.000  C
  H28      1.0000 0.54090  0.38010  0.62610  Biso   1.000  H
  C73      1.0000 0.52230  0.28480  0.63745  Biso   1.000  C
  C74      1.0000 0.50220  0.22130  0.62191  Biso   1.000  C
  H29      1.0000 0.50120  0.18660  0.63620  Biso   1.000  H
  C75      1.0000 0.48350  0.20910  0.58536  Biso   1.000  C
  C76      1.0000 0.48390  0.26080  0.56458  Biso   1.000  C
  H30      1.0000 0.47020  0.25250  0.54020  Biso   1.000  H
  C77      1.0000 0.53760  0.29560  0.67777  Biso   1.000  C
  C78      1.0000 0.45930  0.13940  0.56877  Biso   1.000  C
  Cu7      1.0000 0.68325  0.04755  0.48655  Biso   1.000  Cu
  O25      1.0000 0.78620  0.35480  0.31009  Biso   1.000  O
  O26      1.0000 0.72754  0.24246  0.30304  Biso   1.000  O
  O27      1.0000 0.63035  0.09777  0.41123  Biso   1.000  O
  O28      1.0000 0.69406  0.12709  0.46206  Biso   1.000  O
  C79      1.0000 0.96520  0.38010  0.40377  Biso   1.000  C
  H31      1.0000 0.93710  0.34620  0.38720  Biso   1.000  H
  C80      1.0000 0.94320  0.40480  0.43356  Biso   1.000  C
  C81      1.0000 0.87530  0.38000  0.44360  Biso   1.000  C
  C82      1.0000 0.85480  0.40180  0.47442  Biso   1.000  C
  C83      1.0000 0.78470  0.37710  0.48431  Biso   1.000  C
  H32      1.0000 0.74620  0.34570  0.47120  Biso   1.000  H
  C84      1.0000 0.82060  0.32510  0.42031  Biso   1.000  C
  C85      1.0000 0.81180  0.33680  0.38402  Biso   1.000  C
  H33      1.0000 0.83920  0.38010  0.37390  Biso   1.000  H
  C86      1.0000 0.76250  0.28480  0.36255  Biso   1.000  C
  C87      1.0000 0.71910  0.22130  0.37809  Biso   1.000  C
  H34      1.0000 0.68540  0.18660  0.36380  Biso   1.000  H
  C88      1.0000 0.72560  0.20910  0.41464  Biso   1.000  C
  C89      1.0000 0.77690  0.26080  0.43542  Biso   1.000  C
  H35      1.0000 0.78230  0.25250  0.45980  Biso   1.000  H
  C90      1.0000 0.75800  0.29560  0.32223  Biso   1.000  C
  C91      1.0000 0.68010  0.13940  0.43123  Biso   1.000  C
  Cu8      1.0000 0.36430  0.31675  0.48655  Biso   1.000  Cu
  O29      1.0000 0.56860  0.21380  0.31009  Biso   1.000  O
  O30      1.0000 0.51492  0.27246  0.30304  Biso   1.000  O
  O31      1.0000 0.46742  0.36965  0.41123  Biso   1.000  O
  O32      1.0000 0.43303  0.30594  0.46206  Biso   1.000  O
  C92      1.0000 0.41490  0.03480  0.40377  Biso   1.000  C
  H36      1.0000 0.40910  0.06290  0.38720  Biso   1.000  H
  C93      1.0000 0.46160  0.05680  0.43356  Biso   1.000  C
  C94      1.0000 0.50470  0.12470  0.44360  Biso   1.000  C
  C95      1.0000 0.54700  0.14520  0.47442  Biso   1.000  C
  C96      1.0000 0.59240  0.21530  0.48431  Biso   1.000  C
  H37      1.0000 0.59950  0.25380  0.47120  Biso   1.000  H
  C97      1.0000 0.50450  0.17940  0.42031  Biso   1.000  C
  C98      1.0000 0.52500  0.18820  0.38402  Biso   1.000  C
  H38      1.0000 0.54090  0.16080  0.37390  Biso   1.000  H
  C99      1.0000 0.52230  0.23750  0.36255  Biso   1.000  C
  C100     1.0000 0.50220  0.28090  0.37809  Biso   1.000  C
  H39      1.0000 0.50120  0.31460  0.36380  Biso   1.000  H
  C101     1.0000 0.48350  0.27440  0.41464  Biso   1.000  C
  C102     1.0000 0.48390  0.22310  0.43542  Biso   1.000  C
  H40      1.0000 0.47020  0.21770  0.45980  Biso   1.000  H
  C103     1.0000 0.53760  0.24200  0.32223  Biso   1.000  C
  C104     1.0000 0.45930  0.31990  0.43123  Biso   1.000  C
  Cu9      1.0000 0.95245  0.63570  0.48655  Biso   1.000  Cu
  O33      1.0000 0.64520  0.43140  0.31009  Biso   1.000  O
  O34      1.0000 0.75754  0.48508  0.30304  Biso   1.000  O
  O35      1.0000 0.90223  0.53258  0.41123  Biso   1.000  O
  O36      1.0000 0.87291  0.56697  0.46206  Biso   1.000  O
  C105     1.0000 0.61990  0.58510  0.40377  Biso   1.000  C
  H41      1.0000 0.65380  0.59090  0.38720  Biso   1.000  H
  C106     1.0000 0.59520  0.53840  0.43356  Biso   1.000  C
  C107     1.0000 0.62000  0.49530  0.44360  Biso   1.000  C
  C108     1.0000 0.59820  0.45300  0.47442  Biso   1.000  C
  C109     1.0000 0.62290  0.40760  0.48431  Biso   1.000  C
  H42      1.0000 0.65430  0.40050  0.47120  Biso   1.000  H
  C110     1.0000 0.67490  0.49550  0.42031  Biso   1.000  C
  C111     1.0000 0.66320  0.47500  0.38402  Biso   1.000  C
  H43      1.0000 0.61990  0.45910  0.37390  Biso   1.000  H
  C112     1.0000 0.71520  0.47770  0.36255  Biso   1.000  C
  C113     1.0000 0.77870  0.49780  0.37809  Biso   1.000  C
  H44      1.0000 0.81340  0.49880  0.36380  Biso   1.000  H
  C114     1.0000 0.79090  0.51650  0.41464  Biso   1.000  C
  C115     1.0000 0.73920  0.51610  0.43542  Biso   1.000  C
  H45      1.0000 0.74750  0.52980  0.45980  Biso   1.000  H
  C116     1.0000 0.70440  0.46240  0.32223  Biso   1.000  C
  C117     1.0000 0.86060  0.54070  0.43123  Biso   1.000  C
  Cu10     1.0000 0.31675  0.95245  0.98655  Biso   1.000  Cu
  O37      1.0000 0.21380  0.64520  0.81009  Biso   1.000  O
  O38      1.0000 0.27246  0.75754  0.80304  Biso   1.000  O
  O39      1.0000 0.36965  0.90223  0.91123  Biso   1.000  O
  O40      1.0000 0.30594  0.87291  0.96206  Biso   1.000  O
  C118     1.0000 0.03480  0.61990  0.90377  Biso   1.000  C
  H46      1.0000 0.06290  0.65380  0.88720  Biso   1.000  H
  C119     1.0000 0.05680  0.59520  0.93356  Biso   1.000  C
  C120     1.0000 0.12470  0.62000  0.94360  Biso   1.000  C
  C121     1.0000 0.14520  0.59820  0.97442  Biso   1.000  C
  C122     1.0000 0.21530  0.62290  0.98431  Biso   1.000  C
  H47      1.0000 0.25380  0.65430  0.97120  Biso   1.000  H
  C123     1.0000 0.17940  0.67490  0.92031  Biso   1.000  C
  C124     1.0000 0.18820  0.66320  0.88402  Biso   1.000  C
  H48      1.0000 0.16080  0.61990  0.87390  Biso   1.000  H
  C125     1.0000 0.23750  0.71520  0.86255  Biso   1.000  C
  C126     1.0000 0.28090  0.77870  0.87809  Biso   1.000  C
  H49      1.0000 0.31460  0.81340  0.86380  Biso   1.000  H
  C127     1.0000 0.27440  0.79090  0.91464  Biso   1.000  C
  C128     1.0000 0.22310  0.73920  0.93542  Biso   1.000  C
  H50      1.0000 0.21770  0.74750  0.95980  Biso   1.000  H
  C129     1.0000 0.24200  0.70440  0.82223  Biso   1.000  C
  C130     1.0000 0.31990  0.86060  0.93123  Biso   1.000  C
  Cu11     1.0000 0.63570  0.68325  0.98655  Biso   1.000  Cu
  O41      1.0000 0.43140  0.78620  0.81009  Biso   1.000  O
  O42      1.0000 0.48508  0.72754  0.80304  Biso   1.000  O
  O43      1.0000 0.53258  0.63035  0.91123  Biso   1.000  O
  O44      1.0000 0.56697  0.69406  0.96206  Biso   1.000  O
  C131     1.0000 0.58510  0.96520  0.90377  Biso   1.000  C
  H51      1.0000 0.59090  0.93710  0.88720  Biso   1.000  H
  C132     1.0000 0.53840  0.94320  0.93356  Biso   1.000  C
  C133     1.0000 0.49530  0.87530  0.94360  Biso   1.000  C
  C134     1.0000 0.45300  0.85480  0.97442  Biso   1.000  C
  C135     1.0000 0.40760  0.78470  0.98431  Biso   1.000  C
  H52      1.0000 0.40050  0.74620  0.97120  Biso   1.000  H
  C136     1.0000 0.49550  0.82060  0.92031  Biso   1.000  C
  C137     1.0000 0.47500  0.81180  0.88402  Biso   1.000  C
  H53      1.0000 0.45910  0.83920  0.87390  Biso   1.000  H
  C138     1.0000 0.47770  0.76250  0.86255  Biso   1.000  C
  C139     1.0000 0.49780  0.71910  0.87809  Biso   1.000  C
  H54      1.0000 0.49880  0.68540  0.86380  Biso   1.000  H
  C140     1.0000 0.51650  0.72560  0.91464  Biso   1.000  C
  C141     1.0000 0.51610  0.77690  0.93542  Biso   1.000  C
  H55      1.0000 0.52980  0.78230  0.95980  Biso   1.000  H
  C142     1.0000 0.46240  0.75800  0.82223  Biso   1.000  C
  C143     1.0000 0.54070  0.68010  0.93123  Biso   1.000  C
  Cu12     1.0000 0.04755  0.36430  0.98655  Biso   1.000  Cu
  O45      1.0000 0.35480  0.56860  0.81009  Biso   1.000  O
  O46      1.0000 0.24246  0.51492  0.80304  Biso   1.000  O
  O47      1.0000 0.09777  0.46742  0.91123  Biso   1.000  O
  O48      1.0000 0.12709  0.43303  0.96206  Biso   1.000  O
  C144     1.0000 0.38010  0.41490  0.90377  Biso   1.000  C
  H56      1.0000 0.34620  0.40910  0.88720  Biso   1.000  H
  C145     1.0000 0.40480  0.46160  0.93356  Biso   1.000  C
  C146     1.0000 0.38000  0.50470  0.94360  Biso   1.000  C
  C147     1.0000 0.40180  0.54700  0.97442  Biso   1.000  C
  C148     1.0000 0.37710  0.59240  0.98431  Biso   1.000  C
  H57      1.0000 0.34570  0.59950  0.97120  Biso   1.000  H
  C149     1.0000 0.32510  0.50450  0.92031  Biso   1.000  C
  C150     1.0000 0.33680  0.52500  0.88402  Biso   1.000  C
  H58      1.0000 0.38010  0.54090  0.87390  Biso   1.000  H
  C151     1.0000 0.28480  0.52230  0.86255  Biso   1.000  C
  C152     1.0000 0.22130  0.50220  0.87809  Biso   1.000  C
  H59      1.0000 0.18660  0.50120  0.86380  Biso   1.000  H
  C153     1.0000 0.20910  0.48350  0.91464  Biso   1.000  C
  C154     1.0000 0.26080  0.48390  0.93542  Biso   1.000  C
  H60      1.0000 0.25250  0.47020  0.95980  Biso   1.000  H
  C155     1.0000 0.29560  0.53760  0.82223  Biso   1.000  C
  C156     1.0000 0.13940  0.45930  0.93123  Biso   1.000  C
  Cu13     1.0000 0.95245  0.31675  0.98655  Biso   1.000  Cu
  O49      1.0000 0.64520  0.21380  0.81009  Biso   1.000  O
  O50      1.0000 0.75754  0.27246  0.80304  Biso   1.000  O
  O51      1.0000 0.90223  0.36965  0.91123  Biso   1.000  O
  O52      1.0000 0.87291  0.30594  0.96206  Biso   1.000  O
  C157     1.0000 0.61990  0.03480  0.90377  Biso   1.000  C
  H61      1.0000 0.65380  0.06290  0.88720  Biso   1.000  H
  C158     1.0000 0.59520  0.05680  0.93356  Biso   1.000  C
  C159     1.0000 0.62000  0.12470  0.94360  Biso   1.000  C
  C160     1.0000 0.59820  0.14520  0.97442  Biso   1.000  C
  C161     1.0000 0.62290  0.21530  0.98431  Biso   1.000  C
  H62      1.0000 0.65430  0.25380  0.97120  Biso   1.000  H
  C162     1.0000 0.67490  0.17940  0.92031  Biso   1.000  C
  C163     1.0000 0.66320  0.18820  0.88402  Biso   1.000  C
  H63      1.0000 0.61990  0.16080  0.87390  Biso   1.000  H
  C164     1.0000 0.71520  0.23750  0.86255  Biso   1.000  C
  C165     1.0000 0.77870  0.28090  0.87809  Biso   1.000  C
  H64      1.0000 0.81340  0.31460  0.86380  Biso   1.000  H
  C166     1.0000 0.79090  0.27440  0.91464  Biso   1.000  C
  C167     1.0000 0.73920  0.22310  0.93542  Biso   1.000  C
  H65      1.0000 0.74750  0.21770  0.95980  Biso   1.000  H
  C168     1.0000 0.70440  0.24200  0.82223  Biso   1.000  C
  C169     1.0000 0.86060  0.31990  0.93123  Biso   1.000  C
  Cu14     1.0000 0.68325  0.63570  0.98655  Biso   1.000  Cu
  O53      1.0000 0.78620  0.43140  0.81009  Biso   1.000  O
  O54      1.0000 0.72754  0.48508  0.80304  Biso   1.000  O
  O55      1.0000 0.63035  0.53258  0.91123  Biso   1.000  O
  O56      1.0000 0.69406  0.56697  0.96206  Biso   1.000  O
  C170     1.0000 0.96520  0.58510  0.90377  Biso   1.000  C
  H66      1.0000 0.93710  0.59090  0.88720  Biso   1.000  H
  C171     1.0000 0.94320  0.53840  0.93356  Biso   1.000  C
  C172     1.0000 0.87530  0.49530  0.94360  Biso   1.000  C
  C173     1.0000 0.85480  0.45300  0.97442  Biso   1.000  C
  C174     1.0000 0.78470  0.40760  0.98431  Biso   1.000  C
  H67      1.0000 0.74620  0.40050  0.97120  Biso   1.000  H
  C175     1.0000 0.82060  0.49550  0.92031  Biso   1.000  C
  C176     1.0000 0.81180  0.47500  0.88402  Biso   1.000  C
  H68      1.0000 0.83920  0.45910  0.87390  Biso   1.000  H
  C177     1.0000 0.76250  0.47770  0.86255  Biso   1.000  C
  C178     1.0000 0.71910  0.49780  0.87809  Biso   1.000  C
  H69      1.0000 0.68540  0.49880  0.86380  Biso   1.000  H
  C179     1.0000 0.72560  0.51650  0.91464  Biso   1.000  C
  C180     1.0000 0.77690  0.51610  0.93542  Biso   1.000  C
  H70      1.0000 0.78230  0.52980  0.95980  Biso   1.000  H
  C181     1.0000 0.75800  0.46240  0.82223  Biso   1.000  C
  C182     1.0000 0.68010  0.54070  0.93123  Biso   1.000  C
  Cu15     1.0000 0.36430  0.04755  0.98655  Biso   1.000  Cu
  O57      1.0000 0.56860  0.35480  0.81009  Biso   1.000  O
  O58      1.0000 0.51492  0.24246  0.80304  Biso   1.000  O
  O59      1.0000 0.46742  0.09777  0.91123  Biso   1.000  O
  O60      1.0000 0.43303  0.12709  0.96206  Biso   1.000  O
  C183     1.0000 0.41490  0.38010  0.90377  Biso   1.000  C
  H71      1.0000 0.40910  0.34620  0.88720  Biso   1.000  H
  C184     1.0000 0.46160  0.40480  0.93356  Biso   1.000  C
  C185     1.0000 0.50470  0.38000  0.94360  Biso   1.000  C
  C186     1.0000 0.54700  0.40180  0.97442  Biso   1.000  C
  C187     1.0000 0.59240  0.37710  0.98431  Biso   1.000  C
  H72      1.0000 0.59950  0.34570  0.97120  Biso   1.000  H
  C188     1.0000 0.50450  0.32510  0.92031  Biso   1.000  C
  C189     1.0000 0.52500  0.33680  0.88402  Biso   1.000  C
  H73      1.0000 0.54090  0.38010  0.87390  Biso   1.000  H
  C190     1.0000 0.52230  0.28480  0.86255  Biso   1.000  C
  C191     1.0000 0.50220  0.22130  0.87809  Biso   1.000  C
  H74      1.0000 0.50120  0.18660  0.86380  Biso   1.000  H
  C192     1.0000 0.48350  0.20910  0.91464  Biso   1.000  C
  C193     1.0000 0.48390  0.26080  0.93542  Biso   1.000  C
  H75      1.0000 0.47020  0.25250  0.95980  Biso   1.000  H
  C194     1.0000 0.53760  0.29560  0.82223  Biso   1.000  C
  C195     1.0000 0.45930  0.13940  0.93123  Biso   1.000  C
  Cu16     1.0000 0.04755  0.68325  0.48655  Biso   1.000  Cu
  O61      1.0000 0.35480  0.78620  0.31009  Biso   1.000  O
  O62      1.0000 0.24246  0.72754  0.30304  Biso   1.000  O
  O63      1.0000 0.09777  0.63035  0.41123  Biso   1.000  O
  O64      1.0000 0.12709  0.69406  0.46206  Biso   1.000  O
  C196     1.0000 0.38010  0.96520  0.40377  Biso   1.000  C
  H76      1.0000 0.34620  0.93710  0.38720  Biso   1.000  H
  C197     1.0000 0.40480  0.94320  0.43356  Biso   1.000  C
  C198     1.0000 0.38000  0.87530  0.44360  Biso   1.000  C
  C199     1.0000 0.40180  0.85480  0.47442  Biso   1.000  C
  C200     1.0000 0.37710  0.78470  0.48431  Biso   1.000  C
  H77      1.0000 0.34570  0.74620  0.47120  Biso   1.000  H
  C201     1.0000 0.32510  0.82060  0.42031  Biso   1.000  C
  C202     1.0000 0.33680  0.81180  0.38402  Biso   1.000  C
  H78      1.0000 0.38010  0.83920  0.37390  Biso   1.000  H
  C203     1.0000 0.28480  0.76250  0.36255  Biso   1.000  C
  C204     1.0000 0.22130  0.71910  0.37809  Biso   1.000  C
  H79      1.0000 0.18660  0.68540  0.36380  Biso   1.000  H
  C205     1.0000 0.20910  0.72560  0.41464  Biso   1.000  C
  C206     1.0000 0.26080  0.77690  0.43542  Biso   1.000  C
  H80      1.0000 0.25250  0.78230  0.45980  Biso   1.000  H
  C207     1.0000 0.29560  0.75800  0.32223  Biso   1.000  C
  C208     1.0000 0.13940  0.68010  0.43123  Biso   1.000  C
  Cu17     1.0000 0.31675  0.36430  0.48655  Biso   1.000  Cu
  O65      1.0000 0.21380  0.56860  0.31009  Biso   1.000  O
  O66      1.0000 0.27246  0.51492  0.30304  Biso   1.000  O
  O67      1.0000 0.36965  0.46742  0.41123  Biso   1.000  O
  O68      1.0000 0.30594  0.43303  0.46206  Biso   1.000  O
  C209     1.0000 0.03480  0.41490  0.40377  Biso   1.000  C
  H81      1.0000 0.06290  0.40910  0.38720  Biso   1.000  H
  C210     1.0000 0.05680  0.46160  0.43356  Biso   1.000  C
  C211     1.0000 0.12470  0.50470  0.44360  Biso   1.000  C
  C212     1.0000 0.14520  0.54700  0.47442  Biso   1.000  C
  C213     1.0000 0.21530  0.59240  0.48431  Biso   1.000  C
  H82      1.0000 0.25380  0.59950  0.47120  Biso   1.000  H
  C214     1.0000 0.17940  0.50450  0.42031  Biso   1.000  C
  C215     1.0000 0.18820  0.52500  0.38402  Biso   1.000  C
  H83      1.0000 0.16080  0.54090  0.37390  Biso   1.000  H
  C216     1.0000 0.23750  0.52230  0.36255  Biso   1.000  C
  C217     1.0000 0.28090  0.50220  0.37809  Biso   1.000  C
  H84      1.0000 0.31460  0.50120  0.36380  Biso   1.000  H
  C218     1.0000 0.27440  0.48350  0.41464  Biso   1.000  C
  C219     1.0000 0.22310  0.48390  0.43542  Biso   1.000  C
  H85      1.0000 0.21770  0.47020  0.45980  Biso   1.000  H
  C220     1.0000 0.24200  0.53760  0.32223  Biso   1.000  C
  C221     1.0000 0.31990  0.45930  0.43123  Biso   1.000  C
  Cu18     1.0000 0.63570  0.95245  0.48655  Biso   1.000  Cu
  O69      1.0000 0.43140  0.64520  0.31009  Biso   1.000  O
  O70      1.0000 0.48508  0.75754  0.30304  Biso   1.000  O
  O71      1.0000 0.53258  0.90223  0.41123  Biso   1.000  O
  O72      1.0000 0.56697  0.87291  0.46206  Biso   1.000  O
  C222     1.0000 0.58510  0.61990  0.40377  Biso   1.000  C
  H86      1.0000 0.59090  0.65380  0.38720  Biso   1.000  H
  C223     1.0000 0.53840  0.59520  0.43356  Biso   1.000  C
  C224     1.0000 0.49530  0.62000  0.44360  Biso   1.000  C
  C225     1.0000 0.45300  0.59820  0.47442  Biso   1.000  C
  C226     1.0000 0.40760  0.62290  0.48431  Biso   1.000  C
  H87      1.0000 0.40050  0.65430  0.47120  Biso   1.000  H
  C227     1.0000 0.49550  0.67490  0.42031  Biso   1.000  C
  C228     1.0000 0.47500  0.66320  0.38402  Biso   1.000  C
  H88      1.0000 0.45910  0.61990  0.37390  Biso   1.000  H
  C229     1.0000 0.47770  0.71520  0.36255  Biso   1.000  C
  C230     1.0000 0.49780  0.77870  0.37809  Biso   1.000  C
  H89      1.0000 0.49880  0.81340  0.36380  Biso   1.000  H
  C231     1.0000 0.51650  0.79090  0.41464  Biso   1.000  C
  C232     1.0000 0.51610  0.73920  0.43542  Biso   1.000  C
  H90      1.0000 0.52980  0.74750  0.45980  Biso   1.000  H
  C233     1.0000 0.46240  0.70440  0.32223  Biso   1.000  C
  C234     1.0000 0.54070  0.86060  0.43123  Biso   1.000  C
  Cu19     1.0000 0.31675  0.95245  0.51345  Biso   1.000  Cu
  O73      1.0000 0.21380  0.64520  0.68991  Biso   1.000  O
  O74      1.0000 0.27246  0.75754  0.69696  Biso   1.000  O
  O75      1.0000 0.36965  0.90223  0.58877  Biso   1.000  O
  O76      1.0000 0.30594  0.87291  0.53794  Biso   1.000  O
  C235     1.0000 0.03480  0.61990  0.59623  Biso   1.000  C
  H91      1.0000 0.06290  0.65380  0.61280  Biso   1.000  H
  C236     1.0000 0.05680  0.59520  0.56644  Biso   1.000  C
  C237     1.0000 0.12470  0.62000  0.55640  Biso   1.000  C
  C238     1.0000 0.14520  0.59820  0.52558  Biso   1.000  C
  C239     1.0000 0.21530  0.62290  0.51569  Biso   1.000  C
  H92      1.0000 0.25380  0.65430  0.52880  Biso   1.000  H
  C240     1.0000 0.17940  0.67490  0.57969  Biso   1.000  C
  C241     1.0000 0.18820  0.66320  0.61598  Biso   1.000  C
  H93      1.0000 0.16080  0.61990  0.62610  Biso   1.000  H
  C242     1.0000 0.23750  0.71520  0.63745  Biso   1.000  C
  C243     1.0000 0.28090  0.77870  0.62191  Biso   1.000  C
  H94      1.0000 0.31460  0.81340  0.63620  Biso   1.000  H
  C244     1.0000 0.27440  0.79090  0.58536  Biso   1.000  C
  C245     1.0000 0.22310  0.73920  0.56458  Biso   1.000  C
  H95      1.0000 0.21770  0.74750  0.54020  Biso   1.000  H
  C246     1.0000 0.24200  0.70440  0.67777  Biso   1.000  C
  C247     1.0000 0.31990  0.86060  0.56877  Biso   1.000  C
  Cu20     1.0000 0.63570  0.68325  0.51345  Biso   1.000  Cu
  O77      1.0000 0.43140  0.78620  0.68991  Biso   1.000  O
  O78      1.0000 0.48508  0.72754  0.69696  Biso   1.000  O
  O79      1.0000 0.53258  0.63035  0.58877  Biso   1.000  O
  O80      1.0000 0.56697  0.69406  0.53794  Biso   1.000  O
  C248     1.0000 0.58510  0.96520  0.59623  Biso   1.000  C
  H96      1.0000 0.59090  0.93710  0.61280  Biso   1.000  H
  C249     1.0000 0.53840  0.94320  0.56644  Biso   1.000  C
  C250     1.0000 0.49530  0.87530  0.55640  Biso   1.000  C
  C251     1.0000 0.45300  0.85480  0.52558  Biso   1.000  C
  C252     1.0000 0.40760  0.78470  0.51569  Biso   1.000  C
  H97      1.0000 0.40050  0.74620  0.52880  Biso   1.000  H
  C253     1.0000 0.49550  0.82060  0.57969  Biso   1.000  C
  C254     1.0000 0.47500  0.81180  0.61598  Biso   1.000  C
  H98      1.0000 0.45910  0.83920  0.62610  Biso   1.000  H
  C255     1.0000 0.47770  0.76250  0.63745  Biso   1.000  C
  C256     1.0000 0.49780  0.71910  0.62191  Biso   1.000  C
  H99      1.0000 0.49880  0.68540  0.63620  Biso   1.000  H
  C257     1.0000 0.51650  0.72560  0.58536  Biso   1.000  C
  C258     1.0000 0.51610  0.77690  0.56458  Biso   1.000  C
  H100     1.0000 0.52980  0.78230  0.54020  Biso   1.000  H
  C259     1.0000 0.46240  0.75800  0.67777  Biso   1.000  C
  C260     1.0000 0.54070  0.68010  0.56877  Biso   1.000  C
  Cu21     1.0000 0.04755  0.36430  0.51345  Biso   1.000  Cu
  O81      1.0000 0.35480  0.56860  0.68991  Biso   1.000  O
  O82      1.0000 0.24246  0.51492  0.69696  Biso   1.000  O
  O83      1.0000 0.09777  0.46742  0.58877  Biso   1.000  O
  O84      1.0000 0.12709  0.43303  0.53794  Biso   1.000  O
  C261     1.0000 0.38010  0.41490  0.59623  Biso   1.000  C
  H101     1.0000 0.34620  0.40910  0.61280  Biso   1.000  H
  C262     1.0000 0.40480  0.46160  0.56644  Biso   1.000  C
  C263     1.0000 0.38000  0.50470  0.55640  Biso   1.000  C
  C264     1.0000 0.40180  0.54700  0.52558  Biso   1.000  C
  C265     1.0000 0.37710  0.59240  0.51569  Biso   1.000  C
  H102     1.0000 0.34570  0.59950  0.52880  Biso   1.000  H
  C266     1.0000 0.32510  0.50450  0.57969  Biso   1.000  C
  C267     1.0000 0.33680  0.52500  0.61598  Biso   1.000  C
  H103     1.0000 0.38010  0.54090  0.62610  Biso   1.000  H
  C268     1.0000 0.28480  0.52230  0.63745  Biso   1.000  C
  C269     1.0000 0.22130  0.50220  0.62191  Biso   1.000  C
  H104     1.0000 0.18660  0.50120  0.63620  Biso   1.000  H
  C270     1.0000 0.20910  0.48350  0.58536  Biso   1.000  C
  C271     1.0000 0.26080  0.48390  0.56458  Biso   1.000  C
  H105     1.0000 0.25250  0.47020  0.54020  Biso   1.000  H
  C272     1.0000 0.29560  0.53760  0.67777  Biso   1.000  C
  C273     1.0000 0.13940  0.45930  0.56877  Biso   1.000  C
  Cu22     1.0000 0.68325  0.04755  0.01345  Biso   1.000  Cu
  O85      1.0000 0.78620  0.35480  0.18991  Biso   1.000  O
  O86      1.0000 0.72754  0.24246  0.19696  Biso   1.000  O
  O87      1.0000 0.63035  0.09777  0.08877  Biso   1.000  O
  O88      1.0000 0.69406  0.12709  0.03794  Biso   1.000  O
  C274     1.0000 0.96520  0.38010  0.09623  Biso   1.000  C
  H106     1.0000 0.93710  0.34620  0.11280  Biso   1.000  H
  C275     1.0000 0.94320  0.40480  0.06644  Biso   1.000  C
  C276     1.0000 0.87530  0.38000  0.05640  Biso   1.000  C
  C277     1.0000 0.85480  0.40180  0.02558  Biso   1.000  C
  C278     1.0000 0.78470  0.37710  0.01569  Biso   1.000  C
  H107     1.0000 0.74620  0.34570  0.02880  Biso   1.000  H
  C279     1.0000 0.82060  0.32510  0.07969  Biso   1.000  C
  C280     1.0000 0.81180  0.33680  0.11598  Biso   1.000  C
  H108     1.0000 0.83920  0.38010  0.12610  Biso   1.000  H
  C281     1.0000 0.76250  0.28480  0.13745  Biso   1.000  C
  C282     1.0000 0.71910  0.22130  0.12191  Biso   1.000  C
  H109     1.0000 0.68540  0.18660  0.13620  Biso   1.000  H
  C283     1.0000 0.72560  0.20910  0.08536  Biso   1.000  C
  C284     1.0000 0.77690  0.26080  0.06458  Biso   1.000  C
  H110     1.0000 0.78230  0.25250  0.04020  Biso   1.000  H
  C285     1.0000 0.75800  0.29560  0.17777  Biso   1.000  C
  C286     1.0000 0.68010  0.13940  0.06877  Biso   1.000  C
  Cu23     1.0000 0.36430  0.31675  0.01345  Biso   1.000  Cu
  O89      1.0000 0.56860  0.21380  0.18991  Biso   1.000  O
  O90      1.0000 0.51492  0.27246  0.19696  Biso   1.000  O
  O91      1.0000 0.46742  0.36965  0.08877  Biso   1.000  O
  O92      1.0000 0.43303  0.30594  0.03794  Biso   1.000  O
  C287     1.0000 0.41490  0.03480  0.09623  Biso   1.000  C
  H111     1.0000 0.40910  0.06290  0.11280  Biso   1.000  H
  C288     1.0000 0.46160  0.05680  0.06644  Biso   1.000  C
  C289     1.0000 0.50470  0.12470  0.05640  Biso   1.000  C
  C290     1.0000 0.54700  0.14520  0.02558  Biso   1.000  C
  C291     1.0000 0.59240  0.21530  0.01569  Biso   1.000  C
  H112     1.0000 0.59950  0.25380  0.02880  Biso   1.000  H
  C292     1.0000 0.50450  0.17940  0.07969  Biso   1.000  C
  C293     1.0000 0.52500  0.18820  0.11598  Biso   1.000  C
  H113     1.0000 0.54090  0.16080  0.12610  Biso   1.000  H
  C294     1.0000 0.52230  0.23750  0.13745  Biso   1.000  C
  C295     1.0000 0.50220  0.28090  0.12191  Biso   1.000  C
  H114     1.0000 0.50120  0.31460  0.13620  Biso   1.000  H
  C296     1.0000 0.48350  0.27440  0.08536  Biso   1.000  C
  C297     1.0000 0.48390  0.22310  0.06458  Biso   1.000  C
  H115     1.0000 0.47020  0.21770  0.04020  Biso   1.000  H
  C298     1.0000 0.53760  0.24200  0.17777  Biso   1.000  C
  C299     1.0000 0.45930  0.31990  0.06877  Biso   1.000  C
  Cu24     1.0000 0.95245  0.63570  0.01345  Biso   1.000  Cu
  O93      1.0000 0.64520  0.43140  0.18991  Biso   1.000  O
  O94      1.0000 0.75754  0.48508  0.19696  Biso   1.000  O
  O95      1.0000 0.90223  0.53258  0.08877  Biso   1.000  O
  O96      1.0000 0.87291  0.56697  0.03794  Biso   1.000  O
  C300     1.0000 0.61990  0.58510  0.09623  Biso   1.000  C
  H116     1.0000 0.65380  0.59090  0.11280  Biso   1.000  H
  C301     1.0000 0.59520  0.53840  0.06644  Biso   1.000  C
  C302     1.0000 0.62000  0.49530  0.05640  Biso   1.000  C
  C303     1.0000 0.59820  0.45300  0.02558  Biso   1.000  C
  C304     1.0000 0.62290  0.40760  0.01569  Biso   1.000  C
  H117     1.0000 0.65430  0.40050  0.02880  Biso   1.000  H
  C305     1.0000 0.67490  0.49550  0.07969  Biso   1.000  C
  C306     1.0000 0.66320  0.47500  0.11598  Biso   1.000  C
  H118     1.0000 0.61990  0.45910  0.12610  Biso   1.000  H
  C307     1.0000 0.71520  0.47770  0.13745  Biso   1.000  C
  C308     1.0000 0.77870  0.49780  0.12191  Biso   1.000  C
  H119     1.0000 0.81340  0.49880  0.13620  Biso   1.000  H
  C309     1.0000 0.79090  0.51650  0.08536  Biso   1.000  C
  C310     1.0000 0.73920  0.51610  0.06458  Biso   1.000  C
  H120     1.0000 0.74750  0.52980  0.04020  Biso   1.000  H
  C311     1.0000 0.70440  0.46240  0.17777  Biso   1.000  C
  C312     1.0000 0.86060  0.54070  0.06877  Biso   1.000  C
  Cu25     1.0000 0.00000  0.57961  0.08451  Biso   1.000  Cu
  Cu26     1.0000 0.42039  0.42039  0.08451  Biso   1.000  Cu
  Cu27     1.0000 0.57961  0.00000  0.08451  Biso   1.000  Cu
  Cu28     1.0000 0.00000  0.42039  0.58451  Biso   1.000  Cu
  Cu29     1.0000 0.57961  0.57961  0.58451  Biso   1.000  Cu
  Cu30     1.0000 0.42039  0.00000  0.58451  Biso   1.000  Cu
  Cu31     1.0000 0.57961  0.00000  0.41549  Biso   1.000  Cu
  Cu32     1.0000 0.42039  0.42039  0.41549  Biso   1.000  Cu
  Cu33     1.0000 0.00000  0.57961  0.41549  Biso   1.000  Cu
  Cu34     1.0000 0.42039  0.00000  0.91549  Biso   1.000  Cu
  Cu35     1.0000 0.57961  0.57961  0.91549  Biso   1.000  Cu
  Cu36     1.0000 0.00000  0.42039  0.91549  Biso   1.000  Cu
  Cu37     1.0000 0.24419  0.72968  0.25000  Biso   1.000  Cu
  Cu38     1.0000 0.27032  0.51451  0.25000  Biso   1.000  Cu
  Cu39     1.0000 0.48549  0.75581  0.25000  Biso   1.000  Cu
  Cu40     1.0000 0.75581  0.27032  0.75000  Biso   1.000  Cu
  Cu41     1.0000 0.72968  0.48549  0.75000  Biso   1.000  Cu
  Cu42     1.0000 0.51451  0.24419  0.75000  Biso   1.000  Cu
  Cu43     1.0000 0.72968  0.24419  0.25000  Biso   1.000  Cu
  Cu44     1.0000 0.51451  0.27032  0.25000  Biso   1.000  Cu
  Cu45     1.0000 0.75581  0.48549  0.25000  Biso   1.000  Cu
  Cu46     1.0000 0.27032  0.75581  0.75000  Biso   1.000  Cu
  Cu47     1.0000 0.48549  0.72968  0.75000  Biso   1.000  Cu
  Cu48     1.0000 0.24419  0.51451  0.75000  Biso   1.000  Cu
  Mn1      1.0000 0.50000  0.00000  0.00000  Biso   1.000  Mn
  Mn2      1.0000 0.00000  0.50000  0.00000  Biso   1.000  Mn
  Mn3      1.0000 0.50000  0.50000  0.00000  Biso   1.000  Mn
  Mn4      1.0000 0.50000  0.00000  0.50000  Biso   1.000  Mn
  Mn5      1.0000 0.00000  0.50000  0.50000  Biso   1.000  Mn
  Mn6      1.0000 0.50000  0.50000  0.50000  Biso   1.000  Mn
  O97      1.0000 0.58919  0.00000  0.03094  Biso   1.000  O
  N1       1.0000 0.45520  0.00000  0.04807  Biso   1.000  N
  O98      1.0000 0.00000  0.58919  0.03094  Biso   1.000  O
  N2       1.0000 0.00000  0.45520  0.04807  Biso   1.000  N
  O99      1.0000 0.41081  0.41081  0.03094  Biso   1.000  O
  N3       1.0000 0.54480  0.54480  0.04807  Biso   1.000  N
  O100     1.0000 0.41081  0.00000  0.53094  Biso   1.000  O
  N4       1.0000 0.54480  0.00000  0.54807  Biso   1.000  N
  O101     1.0000 0.00000  0.41081  0.53094  Biso   1.000  O
  N5       1.0000 0.00000  0.54480  0.54807  Biso   1.000  N
  O102     1.0000 0.58919  0.58919  0.53094  Biso   1.000  O
  N6       1.0000 0.45520  0.45520  0.54807  Biso   1.000  N
  O103     1.0000 0.00000  0.58919  0.46906  Biso   1.000  O
  N7       1.0000 0.00000  0.45520  0.45193  Biso   1.000  N
  O104     1.0000 0.58919  0.00000  0.46906  Biso   1.000  O
  N8       1.0000 0.45520  0.00000  0.45193  Biso   1.000  N
  O105     1.0000 0.41081  0.41081  0.46906  Biso   1.000  O
  N9       1.0000 0.54480  0.54480  0.45193  Biso   1.000  N
  O106     1.0000 0.00000  0.41081  0.96906  Biso   1.000  O
  N10      1.0000 0.00000  0.54480  0.95193  Biso   1.000  N
  O107     1.0000 0.41081  0.00000  0.96906  Biso   1.000  O
  N11      1.0000 0.54480  0.00000  0.95193  Biso   1.000  N
  O108     1.0000 0.58919  0.58919  0.96906  Biso   1.000  O
  N12      1.0000 0.45520  0.45520  0.95193  Biso   1.000  N
  N13      1.0000 0.44830  0.89660  0.00000  Biso   1.000  N
  N14      1.0000 0.10340  0.55170  0.00000  Biso   1.000  N
  N15      1.0000 0.44830  0.55170  0.00000  Biso   1.000  N
  N16      1.0000 0.55170  0.10340  0.50000  Biso   1.000  N
  N17      1.0000 0.89660  0.44830  0.50000  Biso   1.000  N
  N18      1.0000 0.55170  0.44830  0.50000  Biso   1.000  N
  N19      1.0000 0.55170  0.10340  0.00000  Biso   1.000  N
  N20      1.0000 0.89660  0.44830  0.00000  Biso   1.000  N
  N21      1.0000 0.55170  0.44830  0.00000  Biso   1.000  N
  N22      1.0000 0.44830  0.89660  0.50000  Biso   1.000  N
  N23      1.0000 0.10340  0.55170  0.50000  Biso   1.000  N
  N24      1.0000 0.44830  0.55170  0.50000  Biso   1.000  N
