data_image0
_cell_length_a       12.6751
_cell_length_b       12.6751
_cell_length_c       32.243
_cell_angle_alpha    90
_cell_angle_beta     90
_cell_angle_gamma    120

_symmetry_space_group_name_H-M    "P 1"
_symmetry_int_tables_number       1

loop_
  _symmetry_equiv_pos_as_xyz
  'x, y, z'

loop_
  _atom_site_label
  _atom_site_occupancy
  _atom_site_fract_x
  _atom_site_fract_y
  _atom_site_fract_z
  _atom_site_thermal_displace_type
  _atom_site_B_iso_or_equiv
  _atom_site_type_symbol
  C1       1.0000 0.04070  0.21390  0.07478  Biso   1.000  C
  C2       1.0000 0.13900  0.39120  0.11938  Biso   1.000  C
  C3       1.0000 0.93470  0.21970  0.13911  Biso   1.000  C
  N1       1.0000 0.21585  0.48808  0.12814  Biso   1.000  N
  C4       1.0000 0.83320  0.10560  0.13113  Biso   1.000  C
  H1       1.0000 0.83180  0.06260  0.10680  Biso   1.000  H
  C5       1.0000 0.93240  0.27970  0.17540  Biso   1.000  C
  H2       1.0000 0.99990  0.35750  0.18170  Biso   1.000  H
  C6       1.0000 0.04000  0.27520  0.11090  Biso   1.000  C
  N2       1.0000 0.03591  0.15919  0.04544  Biso   1.000  N
  C7       1.0000 0.70737  0.54723  0.40811  Biso   1.000  C
  C8       1.0000 0.80567  0.72453  0.45271  Biso   1.000  C
  C9       1.0000 0.60137  0.55303  0.47244  Biso   1.000  C
  N3       1.0000 0.88252  0.82141  0.46147  Biso   1.000  N
  C10      1.0000 0.49987  0.43893  0.46446  Biso   1.000  C
  H3       1.0000 0.49847  0.39593  0.44013  Biso   1.000  H
  C11      1.0000 0.59907  0.61303  0.50873  Biso   1.000  C
  H4       1.0000 0.66657  0.69083  0.51503  Biso   1.000  H
  C12      1.0000 0.70667  0.60853  0.44423  Biso   1.000  C
  N4       1.0000 0.70258  0.49252  0.37877  Biso   1.000  N
  C13      1.0000 0.37403  0.88057  0.74145  Biso   1.000  C
  C14      1.0000 0.47233  0.05787  0.78605  Biso   1.000  C
  C15      1.0000 0.26803  0.88637  0.80578  Biso   1.000  C
  N5       1.0000 0.54918  0.15475  0.79481  Biso   1.000  N
  C16      1.0000 0.16653  0.77227  0.79780  Biso   1.000  C
  H5       1.0000 0.16513  0.72927  0.77347  Biso   1.000  H
  C17      1.0000 0.26573  0.94637  0.84207  Biso   1.000  C
  H6       1.0000 0.33323  0.02417  0.84837  Biso   1.000  H
  C18      1.0000 0.37333  0.94187  0.77757  Biso   1.000  C
  N6       1.0000 0.36924  0.82586  0.71211  Biso   1.000  N
  C19      1.0000 0.78610  0.82680  0.07478  Biso   1.000  C
  C20      1.0000 0.60880  0.74780  0.11938  Biso   1.000  C
  C21      1.0000 0.78030  0.71500  0.13911  Biso   1.000  C
  N7       1.0000 0.51192  0.72777  0.12814  Biso   1.000  N
  C22      1.0000 0.89440  0.72760  0.13113  Biso   1.000  C
  H7       1.0000 0.93740  0.76920  0.10680  Biso   1.000  H
  C23      1.0000 0.72030  0.65270  0.17540  Biso   1.000  C
  H8       1.0000 0.64250  0.64240  0.18170  Biso   1.000  H
  C24      1.0000 0.72480  0.76480  0.11090  Biso   1.000  C
  N8       1.0000 0.84081  0.87672  0.04544  Biso   1.000  N
  C25      1.0000 0.45277  0.16013  0.40811  Biso   1.000  C
  C26      1.0000 0.27547  0.08113  0.45271  Biso   1.000  C
  C27      1.0000 0.44697  0.04833  0.47244  Biso   1.000  C
  N9       1.0000 0.17859  0.06110  0.46147  Biso   1.000  N
  C28      1.0000 0.56107  0.06093  0.46446  Biso   1.000  C
  H9       1.0000 0.60407  0.10253  0.44013  Biso   1.000  H
  C29      1.0000 0.38697  0.98603  0.50873  Biso   1.000  C
  H10      1.0000 0.30917  0.97573  0.51503  Biso   1.000  H
  C30      1.0000 0.39147  0.09813  0.44423  Biso   1.000  C
  N10      1.0000 0.50748  0.21005  0.37877  Biso   1.000  N
  C31      1.0000 0.11943  0.49347  0.74145  Biso   1.000  C
  C32      1.0000 0.94213  0.41447  0.78605  Biso   1.000  C
  C33      1.0000 0.11363  0.38167  0.80578  Biso   1.000  C
  N11      1.0000 0.84525  0.39444  0.79481  Biso   1.000  N
  C34      1.0000 0.22773  0.39427  0.79780  Biso   1.000  C
  H11      1.0000 0.27073  0.43587  0.77347  Biso   1.000  H
  C35      1.0000 0.05363  0.31937  0.84207  Biso   1.000  C
  H12      1.0000 0.97583  0.30907  0.84837  Biso   1.000  H
  C36      1.0000 0.05813  0.43147  0.77757  Biso   1.000  C
  N12      1.0000 0.17414  0.54339  0.71211  Biso   1.000  N
  C37      1.0000 0.17320  0.95930  0.07478  Biso   1.000  C
  C38      1.0000 0.25220  0.86100  0.11938  Biso   1.000  C
  C39      1.0000 0.28500  0.06530  0.13911  Biso   1.000  C
  N13      1.0000 0.27223  0.78415  0.12814  Biso   1.000  N
  C40      1.0000 0.27240  0.16680  0.13113  Biso   1.000  C
  H13      1.0000 0.23080  0.16820  0.10680  Biso   1.000  H
  C41      1.0000 0.34730  0.06760  0.17540  Biso   1.000  C
  H14      1.0000 0.35760  0.00010  0.18170  Biso   1.000  H
  C42      1.0000 0.23520  0.96000  0.11090  Biso   1.000  C
  N14      1.0000 0.12328  0.96409  0.04544  Biso   1.000  N
  C43      1.0000 0.83987  0.29263  0.40811  Biso   1.000  C
  C44      1.0000 0.91887  0.19433  0.45271  Biso   1.000  C
  C45      1.0000 0.95167  0.39863  0.47244  Biso   1.000  C
  N15      1.0000 0.93890  0.11748  0.46147  Biso   1.000  N
  C46      1.0000 0.93907  0.50013  0.46446  Biso   1.000  C
  H15      1.0000 0.89747  0.50153  0.44013  Biso   1.000  H
  C47      1.0000 0.01397  0.40093  0.50873  Biso   1.000  C
  H16      1.0000 0.02427  0.33343  0.51503  Biso   1.000  H
  C48      1.0000 0.90187  0.29333  0.44423  Biso   1.000  C
  N16      1.0000 0.78995  0.29742  0.37877  Biso   1.000  N
  C49      1.0000 0.50653  0.62597  0.74145  Biso   1.000  C
  C50      1.0000 0.58553  0.52767  0.78605  Biso   1.000  C
  C51      1.0000 0.61833  0.73197  0.80578  Biso   1.000  C
  N17      1.0000 0.60556  0.45082  0.79481  Biso   1.000  N
  C52      1.0000 0.60573  0.83347  0.79780  Biso   1.000  C
  H17      1.0000 0.56413  0.83487  0.77347  Biso   1.000  H
  C53      1.0000 0.68063  0.73427  0.84207  Biso   1.000  C
  H18      1.0000 0.69093  0.66677  0.84837  Biso   1.000  H
  C54      1.0000 0.56853  0.62667  0.77757  Biso   1.000  C
  N18      1.0000 0.45661  0.63076  0.71211  Biso   1.000  N
  C55      1.0000 0.95930  0.78610  0.92522  Biso   1.000  C
  C56      1.0000 0.86100  0.60880  0.88062  Biso   1.000  C
  C57      1.0000 0.06530  0.78030  0.86089  Biso   1.000  C
  N19      1.0000 0.78415  0.51192  0.87186  Biso   1.000  N
  C58      1.0000 0.16680  0.89440  0.86887  Biso   1.000  C
  H19      1.0000 0.16820  0.93740  0.89320  Biso   1.000  H
  C59      1.0000 0.06760  0.72030  0.82460  Biso   1.000  C
  H20      1.0000 0.00010  0.64250  0.81830  Biso   1.000  H
  C60      1.0000 0.96000  0.72480  0.88910  Biso   1.000  C
  N20      1.0000 0.96409  0.84081  0.95456  Biso   1.000  N
  C61      1.0000 0.62597  0.11943  0.25855  Biso   1.000  C
  C62      1.0000 0.52767  0.94213  0.21395  Biso   1.000  C
  C63      1.0000 0.73197  0.11363  0.19422  Biso   1.000  C
  N21      1.0000 0.45082  0.84525  0.20519  Biso   1.000  N
  C64      1.0000 0.83347  0.22773  0.20220  Biso   1.000  C
  H21      1.0000 0.83487  0.27073  0.22653  Biso   1.000  H
  C65      1.0000 0.73427  0.05363  0.15793  Biso   1.000  C
  H22      1.0000 0.66677  0.97583  0.15163  Biso   1.000  H
  C66      1.0000 0.62667  0.05813  0.22243  Biso   1.000  C
  N22      1.0000 0.63076  0.17414  0.28789  Biso   1.000  N
  C67      1.0000 0.29263  0.45277  0.59189  Biso   1.000  C
  C68      1.0000 0.19433  0.27547  0.54729  Biso   1.000  C
  C69      1.0000 0.39863  0.44697  0.52756  Biso   1.000  C
  N23      1.0000 0.11748  0.17859  0.53853  Biso   1.000  N
  C70      1.0000 0.50013  0.56107  0.53554  Biso   1.000  C
  H23      1.0000 0.50153  0.60407  0.55987  Biso   1.000  H
  C71      1.0000 0.40093  0.38697  0.49127  Biso   1.000  C
  H24      1.0000 0.33343  0.30917  0.48497  Biso   1.000  H
  C72      1.0000 0.29333  0.39147  0.55577  Biso   1.000  C
  N24      1.0000 0.29742  0.50748  0.62123  Biso   1.000  N
  C73      1.0000 0.21390  0.17320  0.92522  Biso   1.000  C
  C74      1.0000 0.39120  0.25220  0.88062  Biso   1.000  C
  C75      1.0000 0.21970  0.28500  0.86089  Biso   1.000  C
  N25      1.0000 0.48808  0.27223  0.87186  Biso   1.000  N
  C76      1.0000 0.10560  0.27240  0.86887  Biso   1.000  C
  H25      1.0000 0.06260  0.23080  0.89320  Biso   1.000  H
  C77      1.0000 0.27970  0.34730  0.82460  Biso   1.000  C
  H26      1.0000 0.35750  0.35760  0.81830  Biso   1.000  H
  C78      1.0000 0.27520  0.23520  0.88910  Biso   1.000  C
  N26      1.0000 0.15919  0.12328  0.95456  Biso   1.000  N
  C79      1.0000 0.88057  0.50653  0.25855  Biso   1.000  C
  C80      1.0000 0.05787  0.58553  0.21395  Biso   1.000  C
  C81      1.0000 0.88637  0.61833  0.19422  Biso   1.000  C
  N27      1.0000 0.15475  0.60556  0.20519  Biso   1.000  N
  C82      1.0000 0.77227  0.60573  0.20220  Biso   1.000  C
  H27      1.0000 0.72927  0.56413  0.22653  Biso   1.000  H
  C83      1.0000 0.94637  0.68063  0.15793  Biso   1.000  C
  H28      1.0000 0.02417  0.69093  0.15163  Biso   1.000  H
  C84      1.0000 0.94187  0.56853  0.22243  Biso   1.000  C
  N28      1.0000 0.82586  0.45661  0.28789  Biso   1.000  N
  C85      1.0000 0.54723  0.83987  0.59189  Biso   1.000  C
  C86      1.0000 0.72453  0.91887  0.54729  Biso   1.000  C
  C87      1.0000 0.55303  0.95167  0.52756  Biso   1.000  C
  N29      1.0000 0.82141  0.93890  0.53853  Biso   1.000  N
  C88      1.0000 0.43893  0.93907  0.53554  Biso   1.000  C
  H29      1.0000 0.39593  0.89747  0.55987  Biso   1.000  H
  C89      1.0000 0.61303  0.01397  0.49127  Biso   1.000  C
  H30      1.0000 0.69083  0.02427  0.48497  Biso   1.000  H
  C90      1.0000 0.60853  0.90187  0.55577  Biso   1.000  C
  N30      1.0000 0.49252  0.78995  0.62123  Biso   1.000  N
  C91      1.0000 0.82680  0.04070  0.92522  Biso   1.000  C
  C92      1.0000 0.74780  0.13900  0.88062  Biso   1.000  C
  C93      1.0000 0.71500  0.93470  0.86089  Biso   1.000  C
  N31      1.0000 0.72777  0.21585  0.87186  Biso   1.000  N
  C94      1.0000 0.72760  0.83320  0.86887  Biso   1.000  C
  H31      1.0000 0.76920  0.83180  0.89320  Biso   1.000  H
  C95      1.0000 0.65270  0.93240  0.82460  Biso   1.000  C
  H32      1.0000 0.64240  0.99990  0.81830  Biso   1.000  H
  C96      1.0000 0.76480  0.04000  0.88910  Biso   1.000  C
  N32      1.0000 0.87672  0.03591  0.95456  Biso   1.000  N
  C97      1.0000 0.49347  0.37403  0.25855  Biso   1.000  C
  C98      1.0000 0.41447  0.47233  0.21395  Biso   1.000  C
  C99      1.0000 0.38167  0.26803  0.19422  Biso   1.000  C
  N33      1.0000 0.39444  0.54918  0.20519  Biso   1.000  N
  C100     1.0000 0.39427  0.16653  0.20220  Biso   1.000  C
  H33      1.0000 0.43587  0.16513  0.22653  Biso   1.000  H
  C101     1.0000 0.31937  0.26573  0.15793  Biso   1.000  C
  H34      1.0000 0.30907  0.33323  0.15163  Biso   1.000  H
  C102     1.0000 0.43147  0.37333  0.22243  Biso   1.000  C
  N34      1.0000 0.54339  0.36924  0.28789  Biso   1.000  N
  C103     1.0000 0.16013  0.70737  0.59189  Biso   1.000  C
  C104     1.0000 0.08113  0.80567  0.54729  Biso   1.000  C
  C105     1.0000 0.04833  0.60137  0.52756  Biso   1.000  C
  N35      1.0000 0.06110  0.88252  0.53853  Biso   1.000  N
  C106     1.0000 0.06093  0.49987  0.53554  Biso   1.000  C
  H35      1.0000 0.10253  0.49847  0.55987  Biso   1.000  H
  C107     1.0000 0.98603  0.59907  0.49127  Biso   1.000  C
  H36      1.0000 0.97573  0.66657  0.48497  Biso   1.000  H
  C108     1.0000 0.09813  0.70667  0.55577  Biso   1.000  C
  N36      1.0000 0.21005  0.70258  0.62123  Biso   1.000  N
  Cd1      1.0000 0.33333  0.66667  0.16667  Biso   1.000  Cd
  Cd2      1.0000 0.00000  0.00000  0.50000  Biso   1.000  Cd
  Cd3      1.0000 0.66667  0.33333  0.83333  Biso   1.000  Cd
  Cd4      1.0000 0.00000  0.00000  0.00000  Biso   1.000  Cd
  Cd5      1.0000 0.66667  0.33333  0.33333  Biso   1.000  Cd
  Cd6      1.0000 0.33333  0.66667  0.66667  Biso   1.000  Cd
