data_KOBPIB_clean
_audit_creation_date              2014-07-02
_audit_creation_method            'Materials Studio'
_symmetry_space_group_name_H-M    'P1'
_symmetry_Int_Tables_number       1
_symmetry_cell_setting            triclinic
loop_
_symmetry_equiv_pos_as_xyz
  x,y,z
_cell_length_a                    7.8680
_cell_length_b                    11.1320
_cell_length_c                    22.3000
_cell_angle_alpha                 90.0000
_cell_angle_beta                  90.0000
_cell_angle_gamma                 99.1580
loop_
_atom_site_label
_atom_site_type_symbol
_atom_site_fract_x
_atom_site_fract_y
_atom_site_fract_z
_atom_site_U_iso_or_equiv
_atom_site_adp_type
_atom_site_occupancy
Ce1    Ce    0.37958   0.72337   0.72064   0.01267  Uiso   1.00
Ce2    Ce    0.12042   0.27663   0.22064   0.01267  Uiso   1.00
Ce3    Ce    0.62042   0.27663   0.27936   0.01267  Uiso   1.00
Ce4    Ce    0.87958   0.72337   0.77936   0.01267  Uiso   1.00
H1     H     0.23670   0.19920   0.69200   0.01267  Uiso   1.00
H2     H     0.26210   0.11500   0.63740   0.01267  Uiso   1.00
H3     H     0.99370   0.99120   0.67610   0.01267  Uiso   1.00
H4     H     0.04830   0.05870   0.73630   0.01267  Uiso   1.00
H5     H     0.78360   0.21730   0.46180   0.01267  Uiso   1.00
H6     H     0.91040   0.12200   0.46530   0.01267  Uiso   1.00
H7     H     0.03570   0.37300   0.45120   0.01267  Uiso   1.00
H8     H     0.14300   0.26690   0.44220   0.01267  Uiso   1.00
H9     H     0.88200   0.48130   0.68640   0.01267  Uiso   1.00
H10    H     0.80100   0.51070   0.62500   0.01267  Uiso   1.00
H11    H     0.57460   0.36400   0.64660   0.01267  Uiso   1.00
H12    H     0.65350   0.35530   0.71060   0.01267  Uiso   1.00
H13    H     0.26330   0.80080   0.19200   0.01267  Uiso   1.00
H14    H     0.23790   0.88500   0.13740   0.01267  Uiso   1.00
H15    H     0.50630   0.00880   0.17610   0.01267  Uiso   1.00
H16    H     0.45170   0.94130   0.23630   0.01267  Uiso   1.00
H17    H     0.71640   0.78270   0.96180   0.01267  Uiso   1.00
H18    H     0.58960   0.87800   0.96530   0.01267  Uiso   1.00
H19    H     0.46430   0.62700   0.95120   0.01267  Uiso   1.00
H20    H     0.35700   0.73310   0.94220   0.01267  Uiso   1.00
H21    H     0.61800   0.51870   0.18640   0.01267  Uiso   1.00
H22    H     0.69900   0.48930   0.12500   0.01267  Uiso   1.00
H23    H     0.92540   0.63600   0.14660   0.01267  Uiso   1.00
H24    H     0.84650   0.64470   0.21060   0.01267  Uiso   1.00
H25    H     0.76330   0.80080   0.30800   0.01267  Uiso   1.00
H26    H     0.73790   0.88500   0.36260   0.01267  Uiso   1.00
H27    H     0.00630   0.00880   0.32390   0.01267  Uiso   1.00
H28    H     0.95170   0.94130   0.26370   0.01267  Uiso   1.00
H29    H     0.21640   0.78270   0.53820   0.01267  Uiso   1.00
H30    H     0.08960   0.87800   0.53470   0.01267  Uiso   1.00
H31    H     0.96430   0.62700   0.54880   0.01267  Uiso   1.00
H32    H     0.85700   0.73310   0.55780   0.01267  Uiso   1.00
H33    H     0.11800   0.51870   0.31360   0.01267  Uiso   1.00
H34    H     0.19900   0.48930   0.37500   0.01267  Uiso   1.00
H35    H     0.42540   0.63600   0.35340   0.01267  Uiso   1.00
H36    H     0.34650   0.64470   0.28940   0.01267  Uiso   1.00
H37    H     0.73670   0.19920   0.80800   0.01267  Uiso   1.00
H38    H     0.76210   0.11500   0.86260   0.01267  Uiso   1.00
H39    H     0.49370   0.99120   0.82390   0.01267  Uiso   1.00
H40    H     0.54830   0.05870   0.76370   0.01267  Uiso   1.00
H41    H     0.28360   0.21730   0.03820   0.01267  Uiso   1.00
H42    H     0.41040   0.12200   0.03470   0.01267  Uiso   1.00
H43    H     0.53570   0.37300   0.04880   0.01267  Uiso   1.00
H44    H     0.64300   0.26690   0.05780   0.01267  Uiso   1.00
H45    H     0.38200   0.48130   0.81360   0.01267  Uiso   1.00
H46    H     0.30100   0.51070   0.87500   0.01267  Uiso   1.00
H47    H     0.07460   0.36400   0.85340   0.01267  Uiso   1.00
H48    H     0.15350   0.35530   0.78940   0.01267  Uiso   1.00
C1     C     0.03640   0.17230   0.56890   0.01267  Uiso   1.00
C2     C     0.84270   0.31810   0.56380   0.01267  Uiso   1.00
C3     C     0.95700   0.26740   0.65980   0.01267  Uiso   1.00
C4     C     0.17710   0.13970   0.66430   0.01267  Uiso   1.00
C5     C     0.09170   0.03090   0.69890   0.01267  Uiso   1.00
C6     C     0.20660   0.93900   0.71290   0.01267  Uiso   1.00
C7     C     0.89860   0.20590   0.47360   0.01267  Uiso   1.00
C8     C     0.03020   0.29020   0.43690   0.01267  Uiso   1.00
C9     C     0.98360   0.28450   0.37110   0.01267  Uiso   1.00
C10    C     0.80630   0.44700   0.65430   0.01267  Uiso   1.00
C11    C     0.64400   0.41010   0.67730   0.01267  Uiso   1.00
C12    C     0.55090   0.50970   0.69880   0.01267  Uiso   1.00
C13    C     0.46360   0.82770   0.06890   0.01267  Uiso   1.00
C14    C     0.65730   0.68190   0.06380   0.01267  Uiso   1.00
C15    C     0.54300   0.73260   0.15980   0.01267  Uiso   1.00
C16    C     0.32290   0.86030   0.16430   0.01267  Uiso   1.00
C17    C     0.40830   0.96910   0.19890   0.01267  Uiso   1.00
C18    C     0.29340   0.06100   0.21290   0.01267  Uiso   1.00
C19    C     0.60140   0.79410   0.97360   0.01267  Uiso   1.00
C20    C     0.46980   0.70980   0.93690   0.01267  Uiso   1.00
C21    C     0.51640   0.71550   0.87110   0.01267  Uiso   1.00
C22    C     0.69370   0.55300   0.15430   0.01267  Uiso   1.00
C23    C     0.85600   0.58990   0.17730   0.01267  Uiso   1.00
C24    C     0.94910   0.49030   0.19880   0.01267  Uiso   1.00
C25    C     0.96360   0.82770   0.43110   0.01267  Uiso   1.00
C26    C     0.15730   0.68190   0.43620   0.01267  Uiso   1.00
C27    C     0.04300   0.73260   0.34020   0.01267  Uiso   1.00
C28    C     0.82290   0.86030   0.33570   0.01267  Uiso   1.00
C29    C     0.90830   0.96910   0.30110   0.01267  Uiso   1.00
C30    C     0.79340   0.06100   0.28710   0.01267  Uiso   1.00
C31    C     0.10140   0.79410   0.52640   0.01267  Uiso   1.00
C32    C     0.96980   0.70980   0.56310   0.01267  Uiso   1.00
C33    C     0.01640   0.71550   0.62890   0.01267  Uiso   1.00
C34    C     0.19370   0.55300   0.34570   0.01267  Uiso   1.00
C35    C     0.35600   0.58990   0.32270   0.01267  Uiso   1.00
C36    C     0.44910   0.49030   0.30120   0.01267  Uiso   1.00
C37    C     0.53640   0.17230   0.93110   0.01267  Uiso   1.00
C38    C     0.34270   0.31810   0.93620   0.01267  Uiso   1.00
C39    C     0.45700   0.26740   0.84020   0.01267  Uiso   1.00
C40    C     0.67710   0.13970   0.83570   0.01267  Uiso   1.00
C41    C     0.59170   0.03090   0.80110   0.01267  Uiso   1.00
C42    C     0.70660   0.93900   0.78710   0.01267  Uiso   1.00
C43    C     0.39860   0.20590   0.02640   0.01267  Uiso   1.00
C44    C     0.53020   0.29020   0.06310   0.01267  Uiso   1.00
C45    C     0.48360   0.28450   0.12890   0.01267  Uiso   1.00
C46    C     0.30630   0.44700   0.84570   0.01267  Uiso   1.00
C47    C     0.14400   0.41010   0.82270   0.01267  Uiso   1.00
C48    C     0.05090   0.50970   0.80120   0.01267  Uiso   1.00
N1     N     0.05330   0.19590   0.62950   0.01267  Uiso   1.00
N2     N     0.92120   0.22950   0.53830   0.01267  Uiso   1.00
N3     N     0.88160   0.34540   0.62500   0.01267  Uiso   1.00
N4     N     0.44670   0.80410   0.12950   0.01267  Uiso   1.00
N5     N     0.57880   0.77050   0.03830   0.01267  Uiso   1.00
N6     N     0.61840   0.65460   0.12500   0.01267  Uiso   1.00
N7     N     0.94670   0.80410   0.37050   0.01267  Uiso   1.00
N8     N     0.07880   0.77050   0.46170   0.01267  Uiso   1.00
N9     N     0.11840   0.65460   0.37500   0.01267  Uiso   1.00
N10    N     0.55330   0.19590   0.87050   0.01267  Uiso   1.00
N11    N     0.42120   0.22950   0.96170   0.01267  Uiso   1.00
N12    N     0.38160   0.34540   0.87500   0.01267  Uiso   1.00
O1     O     0.76150   0.38050   0.53400   0.01267  Uiso   1.00
O2     O     0.96000   0.27660   0.71380   0.01267  Uiso   1.00
O3     O     0.11950   0.10500   0.54350   0.01267  Uiso   1.00
O4     O     0.34530   0.93940   0.68550   0.01267  Uiso   1.00
O5     O     0.15510   0.85670   0.75210   0.01267  Uiso   1.00
O6     O     0.09920   0.26660   0.33434   0.01267  Uiso   1.00
O7     O     0.83420   0.30140   0.35750   0.01267  Uiso   1.00
O8     O     0.62270   0.59350   0.73390   0.01267  Uiso   1.00
O9     O     0.40130   0.50890   0.68210   0.01267  Uiso   1.00
O10    O     0.73850   0.61950   0.03400   0.01267  Uiso   1.00
O11    O     0.54000   0.72340   0.21380   0.01267  Uiso   1.00
O12    O     0.38050   0.89500   0.04350   0.01267  Uiso   1.00
O13    O     0.15470   0.06060   0.18550   0.01267  Uiso   1.00
O14    O     0.34490   0.14330   0.25210   0.01267  Uiso   1.00
O15    O     0.40080   0.73340   0.83434   0.01267  Uiso   1.00
O16    O     0.66580   0.69860   0.85750   0.01267  Uiso   1.00
O17    O     0.87730   0.40650   0.23390   0.01267  Uiso   1.00
O18    O     0.09870   0.49110   0.18210   0.01267  Uiso   1.00
O19    O     0.23850   0.61950   0.46600   0.01267  Uiso   1.00
O20    O     0.04000   0.72340   0.28620   0.01267  Uiso   1.00
O21    O     0.88050   0.89500   0.45650   0.01267  Uiso   1.00
O22    O     0.65470   0.06060   0.31450   0.01267  Uiso   1.00
O23    O     0.84490   0.14330   0.24790   0.01267  Uiso   1.00
O24    O     0.90080   0.73340   0.66566   0.01267  Uiso   1.00
O25    O     0.16580   0.69860   0.64250   0.01267  Uiso   1.00
O26    O     0.37730   0.40650   0.26610   0.01267  Uiso   1.00
O27    O     0.59870   0.49110   0.31790   0.01267  Uiso   1.00
O28    O     0.26150   0.38050   0.96600   0.01267  Uiso   1.00
O29    O     0.46000   0.27660   0.78620   0.01267  Uiso   1.00
O30    O     0.61950   0.10500   0.95650   0.01267  Uiso   1.00
O31    O     0.84530   0.93940   0.81450   0.01267  Uiso   1.00
O32    O     0.65510   0.85670   0.74790   0.01267  Uiso   1.00
O33    O     0.59920   0.26660   0.16566   0.01267  Uiso   1.00
O34    O     0.33420   0.30140   0.14250   0.01267  Uiso   1.00
O35    O     0.12270   0.59350   0.76610   0.01267  Uiso   1.00
O36    O     0.90130   0.50890   0.81790   0.01267  Uiso   1.00
