data_KOBPUN_clean
_audit_creation_date              2014-07-02
_audit_creation_method            'Materials Studio'
_symmetry_space_group_name_H-M    'P1'
_symmetry_Int_Tables_number       1
_symmetry_cell_setting            triclinic
loop_
_symmetry_equiv_pos_as_xyz
  x,y,z
_cell_length_a                    7.6440
_cell_length_b                    11.1480
_cell_length_c                    22.2620
_cell_angle_alpha                 90.0000
_cell_angle_beta                  90.0000
_cell_angle_gamma                 98.8280
loop_
_atom_site_label
_atom_site_type_symbol
_atom_site_fract_x
_atom_site_fract_y
_atom_site_fract_z
_atom_site_U_iso_or_equiv
_atom_site_adp_type
_atom_site_occupancy
Gd1    Gd    0.60511   0.26633   0.77882   0.01267  Uiso   1.00
Gd2    Gd    0.89489   0.73367   0.27882   0.01267  Uiso   1.00
Gd3    Gd    0.39489   0.73367   0.22118   0.01267  Uiso   1.00
Gd4    Gd    0.10511   0.26633   0.72118   0.01267  Uiso   1.00
H1     H     0.40460   0.12260   0.53560   0.01267  Uiso   1.00
H2     H     0.27070   0.21590   0.53840   0.01267  Uiso   1.00
H3     H     0.52190   0.37270   0.55220   0.01267  Uiso   1.00
H4     H     0.63750   0.26890   0.56050   0.01267  Uiso   1.00
H5     H     0.30390   0.51650   0.37460   0.01267  Uiso   1.00
H6     H     0.41130   0.48400   0.31780   0.01267  Uiso   1.00
H7     H     0.09820   0.37140   0.33980   0.01267  Uiso   1.00
H8     H     0.20310   0.39020   0.27980   0.01267  Uiso   1.00
H9     H     0.76840   0.11460   0.36670   0.01267  Uiso   1.00
H10    H     0.75040   0.20180   0.31250   0.01267  Uiso   1.00
H11    H     0.56270   0.06520   0.26390   0.01267  Uiso   1.00
H12    H     0.49860   0.99440   0.32250   0.01267  Uiso   1.00
H13    H     0.09540   0.87740   0.03560   0.01267  Uiso   1.00
H14    H     0.22930   0.78410   0.03840   0.01267  Uiso   1.00
H15    H     0.97810   0.62730   0.05220   0.01267  Uiso   1.00
H16    H     0.86250   0.73110   0.06050   0.01267  Uiso   1.00
H17    H     0.19610   0.48350   0.87460   0.01267  Uiso   1.00
H18    H     0.08870   0.51600   0.81780   0.01267  Uiso   1.00
H19    H     0.40180   0.62860   0.83980   0.01267  Uiso   1.00
H20    H     0.29690   0.60980   0.77980   0.01267  Uiso   1.00
H21    H     0.73160   0.88540   0.86670   0.01267  Uiso   1.00
H22    H     0.74960   0.79820   0.81250   0.01267  Uiso   1.00
H23    H     0.93730   0.93480   0.76390   0.01267  Uiso   1.00
H24    H     0.00140   0.00560   0.82250   0.01267  Uiso   1.00
H25    H     0.59540   0.87740   0.46440   0.01267  Uiso   1.00
H26    H     0.72930   0.78410   0.46160   0.01267  Uiso   1.00
H27    H     0.47810   0.62730   0.44780   0.01267  Uiso   1.00
H28    H     0.36250   0.73110   0.43950   0.01267  Uiso   1.00
H29    H     0.69610   0.48350   0.62540   0.01267  Uiso   1.00
H30    H     0.58870   0.51600   0.68220   0.01267  Uiso   1.00
H31    H     0.90180   0.62860   0.66020   0.01267  Uiso   1.00
H32    H     0.79690   0.60980   0.72020   0.01267  Uiso   1.00
H33    H     0.23160   0.88540   0.63330   0.01267  Uiso   1.00
H34    H     0.24960   0.79820   0.68750   0.01267  Uiso   1.00
H35    H     0.43730   0.93480   0.73610   0.01267  Uiso   1.00
H36    H     0.50140   0.00560   0.67750   0.01267  Uiso   1.00
H37    H     0.90460   0.12260   0.96440   0.01267  Uiso   1.00
H38    H     0.77070   0.21590   0.96160   0.01267  Uiso   1.00
H39    H     0.02190   0.37270   0.94780   0.01267  Uiso   1.00
H40    H     0.13750   0.26890   0.93950   0.01267  Uiso   1.00
H41    H     0.80390   0.51650   0.12540   0.01267  Uiso   1.00
H42    H     0.91130   0.48400   0.18220   0.01267  Uiso   1.00
H43    H     0.59820   0.37140   0.16020   0.01267  Uiso   1.00
H44    H     0.70310   0.39020   0.22020   0.01267  Uiso   1.00
H45    H     0.26840   0.11460   0.13330   0.01267  Uiso   1.00
H46    H     0.25040   0.20180   0.18750   0.01267  Uiso   1.00
H47    H     0.06270   0.06520   0.23610   0.01267  Uiso   1.00
H48    H     0.99860   0.99440   0.17750   0.01267  Uiso   1.00
C1     C     0.53910   0.17380   0.43320   0.01267  Uiso   1.00
C2     C     0.32300   0.31100   0.43770   0.01267  Uiso   1.00
C3     C     0.45600   0.26500   0.34190   0.01267  Uiso   1.00
C4     C     0.39050   0.20600   0.52740   0.01267  Uiso   1.00
C5     C     0.51950   0.28950   0.56540   0.01267  Uiso   1.00
C6     C     0.46700   0.27860   0.63090   0.01267  Uiso   1.00
C7     C     0.31300   0.45540   0.34430   0.01267  Uiso   1.00
C8     C     0.17500   0.43100   0.31630   0.01267  Uiso   1.00
C9     C     0.06760   0.52580   0.29800   0.01267  Uiso   1.00
C10    C     0.68500   0.14130   0.33870   0.01267  Uiso   1.00
C11    C     0.60240   0.03490   0.30150   0.01267  Uiso   1.00
C12    C     0.72030   0.94370   0.28790   0.01267  Uiso   1.00
C13    C     0.96090   0.82620   0.93320   0.01267  Uiso   1.00
C14    C     0.17700   0.68900   0.93770   0.01267  Uiso   1.00
C15    C     0.04400   0.73500   0.84190   0.01267  Uiso   1.00
C16    C     0.10950   0.79400   0.02740   0.01267  Uiso   1.00
C17    C     0.98050   0.71050   0.06540   0.01267  Uiso   1.00
C18    C     0.03300   0.72140   0.13090   0.01267  Uiso   1.00
C19    C     0.18700   0.54460   0.84430   0.01267  Uiso   1.00
C20    C     0.32500   0.56900   0.81630   0.01267  Uiso   1.00
C21    C     0.43240   0.47420   0.79800   0.01267  Uiso   1.00
C22    C     0.81500   0.85870   0.83870   0.01267  Uiso   1.00
C23    C     0.89760   0.96510   0.80150   0.01267  Uiso   1.00
C24    C     0.77970   0.05630   0.78790   0.01267  Uiso   1.00
C25    C     0.46090   0.82620   0.56680   0.01267  Uiso   1.00
C26    C     0.67700   0.68900   0.56230   0.01267  Uiso   1.00
C27    C     0.54400   0.73500   0.65810   0.01267  Uiso   1.00
C28    C     0.60950   0.79400   0.47260   0.01267  Uiso   1.00
C29    C     0.48050   0.71050   0.43460   0.01267  Uiso   1.00
C30    C     0.53300   0.72140   0.36910   0.01267  Uiso   1.00
C31    C     0.68700   0.54460   0.65570   0.01267  Uiso   1.00
C32    C     0.82500   0.56900   0.68370   0.01267  Uiso   1.00
C33    C     0.93240   0.47420   0.70200   0.01267  Uiso   1.00
C34    C     0.31500   0.85870   0.66130   0.01267  Uiso   1.00
C35    C     0.39760   0.96510   0.69850   0.01267  Uiso   1.00
C36    C     0.27970   0.05630   0.71210   0.01267  Uiso   1.00
C37    C     0.03910   0.17380   0.06680   0.01267  Uiso   1.00
C38    C     0.82300   0.31100   0.06230   0.01267  Uiso   1.00
C39    C     0.95600   0.26500   0.15810   0.01267  Uiso   1.00
C40    C     0.89050   0.20600   0.97260   0.01267  Uiso   1.00
C41    C     0.01950   0.28950   0.93460   0.01267  Uiso   1.00
C42    C     0.96700   0.27860   0.86910   0.01267  Uiso   1.00
C43    C     0.81300   0.45540   0.15570   0.01267  Uiso   1.00
C44    C     0.67500   0.43100   0.18370   0.01267  Uiso   1.00
C45    C     0.56760   0.52580   0.20200   0.01267  Uiso   1.00
C46    C     0.18500   0.14130   0.16130   0.01267  Uiso   1.00
C47    C     0.10240   0.03490   0.19850   0.01267  Uiso   1.00
C48    C     0.22030   0.94370   0.21210   0.01267  Uiso   1.00
N1     N     0.41620   0.23010   0.46350   0.01267  Uiso   1.00
N2     N     0.33700   0.31900   0.37630   0.01267  Uiso   1.00
N3     N     0.55360   0.19660   0.37230   0.01267  Uiso   1.00
N4     N     0.08380   0.76990   0.96350   0.01267  Uiso   1.00
N5     N     0.16300   0.68100   0.87630   0.01267  Uiso   1.00
N6     N     0.94640   0.80340   0.87230   0.01267  Uiso   1.00
N7     N     0.58380   0.76990   0.53650   0.01267  Uiso   1.00
N8     N     0.66300   0.68100   0.62370   0.01267  Uiso   1.00
N9     N     0.44640   0.80340   0.62770   0.01267  Uiso   1.00
N10    N     0.91620   0.23010   0.03650   0.01267  Uiso   1.00
N11    N     0.83700   0.31900   0.12370   0.01267  Uiso   1.00
N12    N     0.05360   0.19660   0.12770   0.01267  Uiso   1.00
O1     O     0.46000   0.27580   0.28770   0.01267  Uiso   1.00
O2     O     0.62680   0.10960   0.45870   0.01267  Uiso   1.00
O3     O     0.22900   0.36700   0.46640   0.01267  Uiso   1.00
O4     O     0.58370   0.26080   0.66900   0.01267  Uiso   1.00
O5     O     0.31210   0.29110   0.64340   0.01267  Uiso   1.00
O6     O     0.91370   0.52280   0.31580   0.01267  Uiso   1.00
O7     O     0.13520   0.61040   0.26310   0.01267  Uiso   1.00
O8     O     0.66970   0.86110   0.24840   0.01267  Uiso   1.00
O9     O     0.86290   0.94230   0.31440   0.01267  Uiso   1.00
O10    O     0.04000   0.72420   0.78770   0.01267  Uiso   1.00
O11    O     0.87320   0.89040   0.95870   0.01267  Uiso   1.00
O12    O     0.27100   0.63300   0.96640   0.01267  Uiso   1.00
O13    O     0.91630   0.73920   0.16900   0.01267  Uiso   1.00
O14    O     0.18790   0.70890   0.14340   0.01267  Uiso   1.00
O15    O     0.58630   0.47720   0.81580   0.01267  Uiso   1.00
O16    O     0.36480   0.38960   0.76310   0.01267  Uiso   1.00
O17    O     0.83030   0.13890   0.74840   0.01267  Uiso   1.00
O18    O     0.63710   0.05770   0.81440   0.01267  Uiso   1.00
O19    O     0.54000   0.72420   0.71230   0.01267  Uiso   1.00
O20    O     0.37320   0.89040   0.54130   0.01267  Uiso   1.00
O21    O     0.77100   0.63300   0.53360   0.01267  Uiso   1.00
O22    O     0.41630   0.73920   0.33100   0.01267  Uiso   1.00
O23    O     0.68790   0.70890   0.35660   0.01267  Uiso   1.00
O24    O     0.08630   0.47720   0.68420   0.01267  Uiso   1.00
O25    O     0.86480   0.38960   0.73690   0.01267  Uiso   1.00
O26    O     0.33030   0.13890   0.75160   0.01267  Uiso   1.00
O27    O     0.13710   0.05770   0.68560   0.01267  Uiso   1.00
O28    O     0.96000   0.27580   0.21230   0.01267  Uiso   1.00
O29    O     0.12680   0.10960   0.04130   0.01267  Uiso   1.00
O30    O     0.72900   0.36700   0.03360   0.01267  Uiso   1.00
O31    O     0.08370   0.26080   0.83100   0.01267  Uiso   1.00
O32    O     0.81210   0.29110   0.85660   0.01267  Uiso   1.00
O33    O     0.41370   0.52280   0.18420   0.01267  Uiso   1.00
O34    O     0.63520   0.61040   0.23690   0.01267  Uiso   1.00
O35    O     0.16970   0.86110   0.25160   0.01267  Uiso   1.00
O36    O     0.36290   0.94230   0.18560   0.01267  Uiso   1.00
