data_image0
_cell_length_a       9.3028
_cell_length_b       14.9043
_cell_length_c       15.2092
_cell_angle_alpha    70.594
_cell_angle_beta     83.472
_cell_angle_gamma    84.978

_symmetry_space_group_name_H-M    "P 1"
_symmetry_int_tables_number       1

loop_
  _symmetry_equiv_pos_as_xyz
  'x, y, z'

loop_
  _atom_site_label
  _atom_site_occupancy
  _atom_site_fract_x
  _atom_site_fract_y
  _atom_site_fract_z
  _atom_site_thermal_displace_type
  _atom_site_B_iso_or_equiv
  _atom_site_type_symbol
  Cd1      1.0000 0.65692  0.72132  0.03472  Biso   1.000  Cd
  O1       1.0000 0.46920  0.81985  0.96240  Biso   1.000  O
  O2       1.0000 0.67420  0.88614  0.95700  Biso   1.000  O
  O3       1.0000 0.67420  0.61568  0.94734  Biso   1.000  O
  O4       1.0000 0.86780  0.68860  0.94640  Biso   1.000  O
  O5       1.0000 0.52350  0.49959  0.14368  Biso   1.000  O
  O6       1.0000 0.50940  0.64498  0.15702  Biso   1.000  O
  N1       1.0000 0.16250  0.27560  0.87040  Biso   1.000  N
  H1       1.0000 0.19720  0.22050  0.90240  Biso   1.000  H
  H2       1.0000 0.10490  0.30850  0.89780  Biso   1.000  H
  C1       1.0000 0.35590  0.16430  0.78110  Biso   1.000  C
  C2       1.0000 0.47870  0.98770  0.88330  Biso   1.000  C
  C3       1.0000 0.44510  0.51440  0.29110  Biso   1.000  C
  C4       1.0000 0.80910  0.62780  0.92420  Biso   1.000  C
  C5       1.0000 0.54670  0.89320  0.93670  Biso   1.000  C
  C6       1.0000 0.05950  0.46440  0.77080  Biso   1.000  C
  C7       1.0000 0.19270  0.44200  0.62630  Biso   1.000  C
  H3       1.0000 0.15590  0.50200  0.59220  Biso   1.000  H
  C8       1.0000 0.34260  0.53280  0.43740  Biso   1.000  C
  H4       1.0000 0.30890  0.57240  0.47220  Biso   1.000  H
  C9       1.0000 0.28880  0.39150  0.58010  Biso   1.000  C
  C10      1.0000 0.56120  0.06640  0.85190  Biso   1.000  C
  H5       1.0000 0.65770  0.06060  0.86470  Biso   1.000  H
  C11      1.0000 0.39380  0.57230  0.34440  Biso   1.000  C
  H6       1.0000 0.39400  0.63820  0.31730  Biso   1.000  H
  C12      1.0000 0.89480  0.57240  0.86960  Biso   1.000  C
  C13      1.0000 0.29400  0.25930  0.72730  Biso   1.000  C
  C14      1.0000 0.34100  0.43380  0.47970  Biso   1.000  C
  C15      1.0000 0.50040  0.15480  0.80110  Biso   1.000  C
  H7       1.0000 0.55640  0.20780  0.78040  Biso   1.000  H
  C16      1.0000 0.49630  0.55610  0.18940  Biso   1.000  C
  C17      1.0000 0.33840  0.30020  0.63210  Biso   1.000  C
  H8       1.0000 0.40290  0.26560  0.60270  Biso   1.000  H
  C18      1.0000 0.20070  0.31260  0.77160  Biso   1.000  C
  C19      1.0000 0.44700  0.41660  0.33270  Biso   1.000  C
  H9       1.0000 0.48280  0.37720  0.29800  Biso   1.000  H
  C20      1.0000 0.33360  0.99700  0.86440  Biso   1.000  C
  H10      1.0000 0.27710  0.94420  0.88580  Biso   1.000  H
  C21      1.0000 0.39570  0.37680  0.42570  Biso   1.000  C
  H11      1.0000 0.39790  0.31090  0.45270  Biso   1.000  H
  C22      1.0000 0.15040  0.40560  0.72130  Biso   1.000  C
  C23      1.0000 0.04230  0.55810  0.87600  Biso   1.000  C
  H12      1.0000 0.08750  0.58510  0.91190  Biso   1.000  H
  C24      1.0000 0.27420  0.08450  0.81410  Biso   1.000  C
  H13      1.0000 0.17740  0.09010  0.80210  Biso   1.000  H
  C25      1.0000 0.82990  0.53840  0.81160  Biso   1.000  C
  H14      1.0000 0.73090  0.55010  0.80600  Biso   1.000  H
  C26      1.0000 0.91200  0.48610  0.76110  Biso   1.000  C
  H15      1.0000 0.86760  0.46530  0.72010  Biso   1.000  H
  C27      1.0000 0.12270  0.50280  0.82810  Biso   1.000  C
  H16      1.0000 0.22150  0.49130  0.83440  Biso   1.000  H
  Cd2      1.0000 0.34308  0.27868  0.96528  Biso   1.000  Cd
  O7       1.0000 0.53080  0.18015  0.03760  Biso   1.000  O
  O8       1.0000 0.32580  0.11386  0.04300  Biso   1.000  O
  O9       1.0000 0.32580  0.38432  0.05266  Biso   1.000  O
  O10      1.0000 0.13220  0.31140  0.05360  Biso   1.000  O
  O11      1.0000 0.47650  0.50041  0.85632  Biso   1.000  O
  O12      1.0000 0.49060  0.35502  0.84298  Biso   1.000  O
  N2       1.0000 0.83750  0.72440  0.12960  Biso   1.000  N
  H17      1.0000 0.80280  0.77950  0.09760  Biso   1.000  H
  H18      1.0000 0.89510  0.69150  0.10220  Biso   1.000  H
  C28      1.0000 0.64410  0.83570  0.21890  Biso   1.000  C
  C29      1.0000 0.52130  0.01230  0.11670  Biso   1.000  C
  C30      1.0000 0.55490  0.48560  0.70890  Biso   1.000  C
  C31      1.0000 0.19090  0.37220  0.07580  Biso   1.000  C
  C32      1.0000 0.45330  0.10680  0.06330  Biso   1.000  C
  C33      1.0000 0.94050  0.53560  0.22920  Biso   1.000  C
  C34      1.0000 0.80730  0.55800  0.37370  Biso   1.000  C
  H19      1.0000 0.84410  0.49800  0.40780  Biso   1.000  H
  C35      1.0000 0.65740  0.46720  0.56260  Biso   1.000  C
  H20      1.0000 0.69110  0.42760  0.52780  Biso   1.000  H
  C36      1.0000 0.71120  0.60850  0.41990  Biso   1.000  C
  C37      1.0000 0.43880  0.93360  0.14810  Biso   1.000  C
  H21      1.0000 0.34230  0.93940  0.13530  Biso   1.000  H
  C38      1.0000 0.60620  0.42770  0.65560  Biso   1.000  C
  H22      1.0000 0.60600  0.36180  0.68270  Biso   1.000  H
  C39      1.0000 0.10520  0.42760  0.13040  Biso   1.000  C
  C40      1.0000 0.70600  0.74070  0.27270  Biso   1.000  C
  C41      1.0000 0.65900  0.56620  0.52030  Biso   1.000  C
  C42      1.0000 0.49960  0.84520  0.19890  Biso   1.000  C
  H23      1.0000 0.44360  0.79220  0.21960  Biso   1.000  H
  C43      1.0000 0.50370  0.44390  0.81060  Biso   1.000  C
  C44      1.0000 0.66160  0.69980  0.36790  Biso   1.000  C
  H24      1.0000 0.59710  0.73440  0.39730  Biso   1.000  H
  C45      1.0000 0.79930  0.68740  0.22840  Biso   1.000  C
  C46      1.0000 0.55300  0.58340  0.66730  Biso   1.000  C
  H25      1.0000 0.51720  0.62280  0.70200  Biso   1.000  H
  C47      1.0000 0.66640  0.00300  0.13560  Biso   1.000  C
  H26      1.0000 0.72290  0.05580  0.11420  Biso   1.000  H
  C48      1.0000 0.60430  0.62320  0.57430  Biso   1.000  C
  H27      1.0000 0.60210  0.68910  0.54730  Biso   1.000  H
  C49      1.0000 0.84960  0.59440  0.27870  Biso   1.000  C
  C50      1.0000 0.95770  0.44190  0.12400  Biso   1.000  C
  H28      1.0000 0.91250  0.41490  0.08810  Biso   1.000  H
  C51      1.0000 0.72580  0.91550  0.18590  Biso   1.000  C
  H29      1.0000 0.82260  0.90990  0.19790  Biso   1.000  H
  C52      1.0000 0.17010  0.46160  0.18840  Biso   1.000  C
  H30      1.0000 0.26910  0.44990  0.19400  Biso   1.000  H
  C53      1.0000 0.08800  0.51390  0.23890  Biso   1.000  C
  H31      1.0000 0.13240  0.53470  0.27990  Biso   1.000  H
  C54      1.0000 0.87730  0.49720  0.17190  Biso   1.000  C
  H32      1.0000 0.77850  0.50870  0.16560  Biso   1.000  H
  Cd3      1.0000 0.50000  0.50000  0.00000  Biso   1.000  Cd
