data_image0
_cell_length_a       13.854
_cell_length_b       11.411
_cell_length_c       17.71
_cell_angle_alpha    90
_cell_angle_beta     128.109
_cell_angle_gamma    90

_symmetry_space_group_name_H-M    "P 1"
_symmetry_int_tables_number       1

loop_
  _symmetry_equiv_pos_as_xyz
  'x, y, z'

loop_
  _atom_site_label
  _atom_site_occupancy
  _atom_site_fract_x
  _atom_site_fract_y
  _atom_site_fract_z
  _atom_site_thermal_displace_type
  _atom_site_B_iso_or_equiv
  _atom_site_type_symbol
  Ni1      1.0000 0.87858  0.27598  0.69859  Biso   1.000  Ni
  O1       1.0000 0.92530  0.13850  0.11800  Biso   1.000  O
  O2       1.0000 0.08810  0.08480  0.12860  Biso   1.000  O
  O3       1.0000 0.91690  0.30600  0.32510  Biso   1.000  O
  O4       1.0000 0.07560  0.38480  0.46370  Biso   1.000  O
  O5       1.0000 0.85290  0.11870  0.62750  Biso   1.000  O
  O6       1.0000 0.70810  0.00190  0.51100  Biso   1.000  O
  O7       1.0000 0.82100  0.43160  0.72560  Biso   1.000  O
  O8       1.0000 0.65270  0.53070  0.67830  Biso   1.000  O
  N1       1.0000 0.06080  0.22500  0.28900  Biso   1.000  N
  N2       1.0000 0.69850  0.26600  0.60600  Biso   1.000  N
  C1       1.0000 0.03970  0.12880  0.16170  Biso   1.000  C
  C2       1.0000 0.02870  0.32730  0.38860  Biso   1.000  C
  C3       1.0000 0.74250  0.08890  0.56270  Biso   1.000  C
  C4       1.0000 0.70540  0.44490  0.67350  Biso   1.000  C
  C5       1.0000 0.12170  0.17970  0.26050  Biso   1.000  C
  C6       1.0000 0.25020  0.18500  0.32090  Biso   1.000  C
  H1       1.0000 0.29480  0.15370  0.30110  Biso   1.000  H
  C7       1.0000 0.31170  0.23790  0.41170  Biso   1.000  C
  C8       1.0000 0.24210  0.29220  0.43510  Biso   1.000  C
  H2       1.0000 0.28120  0.33480  0.49330  Biso   1.000  H
  C9       1.0000 0.11510  0.28250  0.37150  Biso   1.000  C
  C10      1.0000 0.64730  0.17230  0.54720  Biso   1.000  C
  C11      1.0000 0.52210  0.16240  0.48260  Biso   1.000  C
  H3       1.0000 0.48640  0.09630  0.44120  Biso   1.000  H
  C12      1.0000 0.44700  0.24870  0.47730  Biso   1.000  C
  C13      1.0000 0.50330  0.34660  0.53850  Biso   1.000  C
  H4       1.0000 0.45490  0.40830  0.53550  Biso   1.000  H
  C14      1.0000 0.63070  0.35150  0.60340  Biso   1.000  C
  Ni2      1.0000 0.12142  0.77598  0.80141  Biso   1.000  Ni
  O9       1.0000 0.07470  0.63850  0.38200  Biso   1.000  O
  O10      1.0000 0.91190  0.58480  0.37140  Biso   1.000  O
  O11      1.0000 0.08310  0.80600  0.17490  Biso   1.000  O
  O12      1.0000 0.92440  0.88480  0.03630  Biso   1.000  O
  O13      1.0000 0.14710  0.61870  0.87250  Biso   1.000  O
  O14      1.0000 0.29190  0.50190  0.98900  Biso   1.000  O
  O15      1.0000 0.17900  0.93160  0.77440  Biso   1.000  O
  O16      1.0000 0.34730  0.03070  0.82170  Biso   1.000  O
  N3       1.0000 0.93920  0.72500  0.21100  Biso   1.000  N
  N4       1.0000 0.30150  0.76600  0.89400  Biso   1.000  N
  C15      1.0000 0.96030  0.62880  0.33830  Biso   1.000  C
  C16      1.0000 0.97130  0.82730  0.11140  Biso   1.000  C
  C17      1.0000 0.25750  0.58890  0.93730  Biso   1.000  C
  C18      1.0000 0.29460  0.94490  0.82650  Biso   1.000  C
  C19      1.0000 0.87830  0.67970  0.23950  Biso   1.000  C
  C20      1.0000 0.74980  0.68500  0.17910  Biso   1.000  C
  H5       1.0000 0.70520  0.65370  0.19890  Biso   1.000  H
  C21      1.0000 0.68830  0.73790  0.08830  Biso   1.000  C
  C22      1.0000 0.75790  0.79220  0.06490  Biso   1.000  C
  H6       1.0000 0.71880  0.83480  0.00670  Biso   1.000  H
  C23      1.0000 0.88490  0.78250  0.12850  Biso   1.000  C
  C24      1.0000 0.35270  0.67230  0.95280  Biso   1.000  C
  C25      1.0000 0.47790  0.66240  0.01740  Biso   1.000  C
  H7       1.0000 0.51360  0.59630  0.05880  Biso   1.000  H
  C26      1.0000 0.55300  0.74870  0.02270  Biso   1.000  C
  C27      1.0000 0.49670  0.84660  0.96150  Biso   1.000  C
  H8       1.0000 0.54510  0.90830  0.96450  Biso   1.000  H
  C28      1.0000 0.36930  0.85150  0.89660  Biso   1.000  C
  Ni3      1.0000 0.12142  0.72402  0.30141  Biso   1.000  Ni
  O17      1.0000 0.07470  0.86150  0.88200  Biso   1.000  O
  O18      1.0000 0.91190  0.91520  0.87140  Biso   1.000  O
  O19      1.0000 0.08310  0.69400  0.67490  Biso   1.000  O
  O20      1.0000 0.92440  0.61520  0.53630  Biso   1.000  O
  O21      1.0000 0.14710  0.88130  0.37250  Biso   1.000  O
  O22      1.0000 0.29190  0.99810  0.48900  Biso   1.000  O
  O23      1.0000 0.17900  0.56840  0.27440  Biso   1.000  O
  O24      1.0000 0.34730  0.46930  0.32170  Biso   1.000  O
  N5       1.0000 0.93920  0.77500  0.71100  Biso   1.000  N
  N6       1.0000 0.30150  0.73400  0.39400  Biso   1.000  N
  C29      1.0000 0.96030  0.87120  0.83830  Biso   1.000  C
  C30      1.0000 0.97130  0.67270  0.61140  Biso   1.000  C
  C31      1.0000 0.25750  0.91110  0.43730  Biso   1.000  C
  C32      1.0000 0.29460  0.55510  0.32650  Biso   1.000  C
  C33      1.0000 0.87830  0.82030  0.73950  Biso   1.000  C
  C34      1.0000 0.74980  0.81500  0.67910  Biso   1.000  C
  H9       1.0000 0.70520  0.84630  0.69890  Biso   1.000  H
  C35      1.0000 0.68830  0.76210  0.58830  Biso   1.000  C
  C36      1.0000 0.75790  0.70780  0.56490  Biso   1.000  C
  H10      1.0000 0.71880  0.66520  0.50670  Biso   1.000  H
  C37      1.0000 0.88490  0.71750  0.62850  Biso   1.000  C
  C38      1.0000 0.35270  0.82770  0.45280  Biso   1.000  C
  C39      1.0000 0.47790  0.83760  0.51740  Biso   1.000  C
  H11      1.0000 0.51360  0.90370  0.55880  Biso   1.000  H
  C40      1.0000 0.55300  0.75130  0.52270  Biso   1.000  C
  C41      1.0000 0.49670  0.65340  0.46150  Biso   1.000  C
  H12      1.0000 0.54510  0.59170  0.46450  Biso   1.000  H
  C42      1.0000 0.36930  0.64850  0.39660  Biso   1.000  C
  Ni4      1.0000 0.87858  0.22402  0.19859  Biso   1.000  Ni
  O25      1.0000 0.92530  0.36150  0.61800  Biso   1.000  O
  O26      1.0000 0.08810  0.41520  0.62860  Biso   1.000  O
  O27      1.0000 0.91690  0.19400  0.82510  Biso   1.000  O
  O28      1.0000 0.07560  0.11520  0.96370  Biso   1.000  O
  O29      1.0000 0.85290  0.38130  0.12750  Biso   1.000  O
  O30      1.0000 0.70810  0.49810  0.01100  Biso   1.000  O
  O31      1.0000 0.82100  0.06840  0.22560  Biso   1.000  O
  O32      1.0000 0.65270  0.96930  0.17830  Biso   1.000  O
  N7       1.0000 0.06080  0.27500  0.78900  Biso   1.000  N
  N8       1.0000 0.69850  0.23400  0.10600  Biso   1.000  N
  C43      1.0000 0.03970  0.37120  0.66170  Biso   1.000  C
  C44      1.0000 0.02870  0.17270  0.88860  Biso   1.000  C
  C45      1.0000 0.74250  0.41110  0.06270  Biso   1.000  C
  C46      1.0000 0.70540  0.05510  0.17350  Biso   1.000  C
  C47      1.0000 0.12170  0.32030  0.76050  Biso   1.000  C
  C48      1.0000 0.25020  0.31500  0.82090  Biso   1.000  C
  H13      1.0000 0.29480  0.34630  0.80110  Biso   1.000  H
  C49      1.0000 0.31170  0.26210  0.91170  Biso   1.000  C
  C50      1.0000 0.24210  0.20780  0.93510  Biso   1.000  C
  H14      1.0000 0.28120  0.16520  0.99330  Biso   1.000  H
  C51      1.0000 0.11510  0.21750  0.87150  Biso   1.000  C
  C52      1.0000 0.64730  0.32770  0.04720  Biso   1.000  C
  C53      1.0000 0.52210  0.33760  0.98260  Biso   1.000  C
  H15      1.0000 0.48640  0.40370  0.94120  Biso   1.000  H
  C54      1.0000 0.44700  0.25130  0.97730  Biso   1.000  C
  C55      1.0000 0.50330  0.15340  0.03850  Biso   1.000  C
  H16      1.0000 0.45490  0.09170  0.03550  Biso   1.000  H
  C56      1.0000 0.63070  0.14850  0.10340  Biso   1.000  C
  Ni5      1.0000 0.00000  0.00000  0.00000  Biso   1.000  Ni
  Ni6      1.0000 0.00000  0.50000  0.50000  Biso   1.000  Ni
