data_KOGJOG_clean
_audit_creation_date              2014-07-02
_audit_creation_method            'Materials Studio'
_symmetry_space_group_name_H-M    'P1'
_symmetry_Int_Tables_number       1
_symmetry_cell_setting            triclinic
loop_
_symmetry_equiv_pos_as_xyz
  x,y,z
_cell_length_a                    8.6839
_cell_length_b                    9.2922
_cell_length_c                    31.7290
_cell_angle_alpha                 90.0000
_cell_angle_beta                  90.0000
_cell_angle_gamma                 98.5140
loop_
_atom_site_label
_atom_site_type_symbol
_atom_site_fract_x
_atom_site_fract_y
_atom_site_fract_z
_atom_site_U_iso_or_equiv
_atom_site_adp_type
_atom_site_occupancy
Gd1    Gd    0.56198   0.20044   0.78310   0.01267  Uiso   1.00
Gd2    Gd    0.24532   0.68662   0.02980   0.01267  Uiso   1.00
Gd3    Gd    0.93802   0.29956   0.28310   0.01267  Uiso   1.00
Gd4    Gd    0.25468   0.81338   0.52980   0.01267  Uiso   1.00
Gd5    Gd    0.43802   0.79956   0.21690   0.01267  Uiso   1.00
Gd6    Gd    0.75468   0.31338   0.97020   0.01267  Uiso   1.00
Gd7    Gd    0.06198   0.70044   0.71690   0.01267  Uiso   1.00
Gd8    Gd    0.74532   0.18662   0.47020   0.01267  Uiso   1.00
P1     P     0.24600   0.43540   0.77453   0.01267  Uiso   1.00
P2     P     0.07630   0.56280   0.92489   0.01267  Uiso   1.00
P3     P     0.25400   0.06460   0.27453   0.01267  Uiso   1.00
P4     P     0.42370   0.93720   0.42489   0.01267  Uiso   1.00
P5     P     0.75400   0.56460   0.22547   0.01267  Uiso   1.00
P6     P     0.92370   0.43720   0.07511   0.01267  Uiso   1.00
P7     P     0.74600   0.93540   0.72547   0.01267  Uiso   1.00
P8     P     0.57630   0.06280   0.57511   0.01267  Uiso   1.00
H1     H     0.13220   0.73950   0.88970   0.01267  Uiso   1.00
H2     H     0.29100   0.35320   0.85690   0.01267  Uiso   1.00
H3     H     0.34540   0.58220   0.83020   0.01267  Uiso   1.00
H4     H     0.16570   0.58540   0.82590   0.01267  Uiso   1.00
H5     H     0.32620   0.53600   0.90530   0.01267  Uiso   1.00
H6     H     0.23980   0.38870   0.92240   0.01267  Uiso   1.00
H7     H     0.97850   0.36460   0.85150   0.01267  Uiso   1.00
H8     H     0.04620   0.24120   0.87610   0.01267  Uiso   1.00
H9     H     0.16110   0.17250   0.81330   0.01267  Uiso   1.00
H10    H     0.97950   0.15600   0.80880   0.01267  Uiso   1.00
H11    H     0.36780   0.76050   0.38970   0.01267  Uiso   1.00
H12    H     0.20900   0.14680   0.35690   0.01267  Uiso   1.00
H13    H     0.15460   0.91780   0.33020   0.01267  Uiso   1.00
H14    H     0.33430   0.91460   0.32590   0.01267  Uiso   1.00
H15    H     0.17380   0.96400   0.40530   0.01267  Uiso   1.00
H16    H     0.26020   0.11130   0.42240   0.01267  Uiso   1.00
H17    H     0.52150   0.13540   0.35150   0.01267  Uiso   1.00
H18    H     0.45380   0.25880   0.37610   0.01267  Uiso   1.00
H19    H     0.33890   0.32750   0.31330   0.01267  Uiso   1.00
H20    H     0.52050   0.34400   0.30880   0.01267  Uiso   1.00
H21    H     0.86780   0.26050   0.11030   0.01267  Uiso   1.00
H22    H     0.70900   0.64680   0.14310   0.01267  Uiso   1.00
H23    H     0.65460   0.41780   0.16980   0.01267  Uiso   1.00
H24    H     0.83430   0.41460   0.17410   0.01267  Uiso   1.00
H25    H     0.67380   0.46400   0.09470   0.01267  Uiso   1.00
H26    H     0.76020   0.61130   0.07760   0.01267  Uiso   1.00
H27    H     0.02150   0.63540   0.14850   0.01267  Uiso   1.00
H28    H     0.95380   0.75880   0.12390   0.01267  Uiso   1.00
H29    H     0.83890   0.82750   0.18670   0.01267  Uiso   1.00
H30    H     0.02050   0.84400   0.19120   0.01267  Uiso   1.00
H31    H     0.63220   0.23950   0.61030   0.01267  Uiso   1.00
H32    H     0.79100   0.85320   0.64310   0.01267  Uiso   1.00
H33    H     0.84540   0.08220   0.66980   0.01267  Uiso   1.00
H34    H     0.66570   0.08540   0.67410   0.01267  Uiso   1.00
H35    H     0.82620   0.03600   0.59470   0.01267  Uiso   1.00
H36    H     0.73980   0.88870   0.57760   0.01267  Uiso   1.00
H37    H     0.47850   0.86460   0.64850   0.01267  Uiso   1.00
H38    H     0.54620   0.74120   0.62390   0.01267  Uiso   1.00
H39    H     0.66110   0.67250   0.68670   0.01267  Uiso   1.00
H40    H     0.47950   0.65600   0.69120   0.01267  Uiso   1.00
C1     C     0.24540   0.52250   0.82530   0.01267  Uiso   1.00
C2     C     0.22930   0.46920   0.90370   0.01267  Uiso   1.00
C3     C     0.06450   0.30900   0.85280   0.01267  Uiso   1.00
C4     C     0.07340   0.22600   0.81200   0.01267  Uiso   1.00
C5     C     0.78840   0.42990   0.72710   0.01267  Uiso   1.00
C6     C     0.82060   0.48390   0.77280   0.01267  Uiso   1.00
C7     C     0.55650   0.26120   0.88430   0.01267  Uiso   1.00
C8     C     0.68780   0.16980   0.87780   0.01267  Uiso   1.00
C9     C     0.45250   0.43060   0.00980   0.01267  Uiso   1.00
C10    C     0.25460   0.97750   0.32530   0.01267  Uiso   1.00
C11    C     0.27070   0.03080   0.40370   0.01267  Uiso   1.00
C12    C     0.43550   0.19100   0.35280   0.01267  Uiso   1.00
C13    C     0.42660   0.27400   0.31200   0.01267  Uiso   1.00
C14    C     0.71160   0.07010   0.22710   0.01267  Uiso   1.00
C15    C     0.67940   0.01610   0.27280   0.01267  Uiso   1.00
C16    C     0.94350   0.23880   0.38430   0.01267  Uiso   1.00
C17    C     0.81220   0.33020   0.37780   0.01267  Uiso   1.00
C18    C     0.04750   0.06940   0.50980   0.01267  Uiso   1.00
C19    C     0.75460   0.47750   0.17470   0.01267  Uiso   1.00
C20    C     0.77070   0.53080   0.09630   0.01267  Uiso   1.00
C21    C     0.93550   0.69100   0.14720   0.01267  Uiso   1.00
C22    C     0.92660   0.77400   0.18800   0.01267  Uiso   1.00
C23    C     0.21160   0.57010   0.27290   0.01267  Uiso   1.00
C24    C     0.17940   0.51610   0.22720   0.01267  Uiso   1.00
C25    C     0.44350   0.73880   0.11570   0.01267  Uiso   1.00
C26    C     0.31220   0.83020   0.12220   0.01267  Uiso   1.00
C27    C     0.54750   0.56940   0.99020   0.01267  Uiso   1.00
C28    C     0.74540   0.02250   0.67470   0.01267  Uiso   1.00
C29    C     0.72930   0.96920   0.59630   0.01267  Uiso   1.00
C30    C     0.56450   0.80900   0.64720   0.01267  Uiso   1.00
C31    C     0.57340   0.72600   0.68800   0.01267  Uiso   1.00
C32    C     0.28840   0.92990   0.77290   0.01267  Uiso   1.00
C33    C     0.32060   0.98390   0.72720   0.01267  Uiso   1.00
C34    C     0.05650   0.76120   0.61570   0.01267  Uiso   1.00
C35    C     0.18780   0.66980   0.62220   0.01267  Uiso   1.00
C36    C     0.95250   0.93060   0.49020   0.01267  Uiso   1.00
N1     N     0.21450   0.40980   0.85960   0.01267  Uiso   1.00
N2     N     0.28550   0.09020   0.35960   0.01267  Uiso   1.00
N3     N     0.78550   0.59020   0.14040   0.01267  Uiso   1.00
N4     N     0.71450   0.90980   0.64040   0.01267  Uiso   1.00
O1     O     0.38390   0.35890   0.77220   0.01267  Uiso   1.00
O2     O     0.09090   0.32150   0.77520   0.01267  Uiso   1.00
O3     O     0.22750   0.54210   0.74050   0.01267  Uiso   1.00
O4     O     0.14420   0.62930   0.96440   0.01267  Uiso   1.00
O5     O     0.05190   0.68130   0.89190   0.01267  Uiso   1.00
O6     O     0.92580   0.46270   0.92800   0.01267  Uiso   1.00
O7     O     0.68460   0.32290   0.72220   0.01267  Uiso   1.00
O8     O     0.86960   0.50030   0.69910   0.01267  Uiso   1.00
O9     O     0.74670   0.41000   0.80160   0.01267  Uiso   1.00
O10    O     0.91780   0.59700   0.77790   0.01267  Uiso   1.00
O11    O     0.54290   0.31590   0.91920   0.01267  Uiso   1.00
O12    O     0.46680   0.26790   0.85320   0.01267  Uiso   1.00
O13    O     0.77320   0.15860   0.90900   0.01267  Uiso   1.00
O14    O     0.70080   0.11580   0.84220   0.01267  Uiso   1.00
O15    O     0.32220   0.44380   0.02560   0.01267  Uiso   1.00
O16    O     0.51490   0.31590   0.00920   0.01267  Uiso   1.00
O17    O     0.11610   0.14110   0.27220   0.01267  Uiso   1.00
O18    O     0.40910   0.17850   0.27520   0.01267  Uiso   1.00
O19    O     0.27250   0.95790   0.24050   0.01267  Uiso   1.00
O20    O     0.35580   0.87070   0.46440   0.01267  Uiso   1.00
O21    O     0.44810   0.81870   0.39190   0.01267  Uiso   1.00
O22    O     0.57420   0.03730   0.42800   0.01267  Uiso   1.00
O23    O     0.81540   0.17710   0.22220   0.01267  Uiso   1.00
O24    O     0.63040   0.99970   0.19910   0.01267  Uiso   1.00
O25    O     0.75330   0.09000   0.30160   0.01267  Uiso   1.00
O26    O     0.58220   0.90300   0.27790   0.01267  Uiso   1.00
O27    O     0.95710   0.18410   0.41920   0.01267  Uiso   1.00
O28    O     0.03320   0.23210   0.35320   0.01267  Uiso   1.00
O29    O     0.72680   0.34140   0.40900   0.01267  Uiso   1.00
O30    O     0.79920   0.38420   0.34220   0.01267  Uiso   1.00
O31    O     0.17780   0.05620   0.52560   0.01267  Uiso   1.00
O32    O     0.98510   0.18410   0.50920   0.01267  Uiso   1.00
O33    O     0.61610   0.64110   0.22780   0.01267  Uiso   1.00
O34    O     0.90910   0.67850   0.22480   0.01267  Uiso   1.00
O35    O     0.77250   0.45790   0.25950   0.01267  Uiso   1.00
O36    O     0.85580   0.37070   0.03560   0.01267  Uiso   1.00
O37    O     0.94810   0.31870   0.10810   0.01267  Uiso   1.00
O38    O     0.07420   0.53730   0.07200   0.01267  Uiso   1.00
O39    O     0.31540   0.67710   0.27780   0.01267  Uiso   1.00
O40    O     0.13040   0.49970   0.30090   0.01267  Uiso   1.00
O41    O     0.25330   0.59000   0.19840   0.01267  Uiso   1.00
O42    O     0.08220   0.40300   0.22210   0.01267  Uiso   1.00
O43    O     0.45710   0.68410   0.08080   0.01267  Uiso   1.00
O44    O     0.53320   0.73210   0.14680   0.01267  Uiso   1.00
O45    O     0.22680   0.84140   0.09100   0.01267  Uiso   1.00
O46    O     0.29920   0.88420   0.15780   0.01267  Uiso   1.00
O47    O     0.67780   0.55620   0.97440   0.01267  Uiso   1.00
O48    O     0.48510   0.68410   0.99080   0.01267  Uiso   1.00
O49    O     0.88390   0.85890   0.72780   0.01267  Uiso   1.00
O50    O     0.59090   0.82150   0.72480   0.01267  Uiso   1.00
O51    O     0.72750   0.04210   0.75950   0.01267  Uiso   1.00
O52    O     0.64420   0.12930   0.53560   0.01267  Uiso   1.00
O53    O     0.55190   0.18130   0.60810   0.01267  Uiso   1.00
O54    O     0.42580   0.96270   0.57200   0.01267  Uiso   1.00
O55    O     0.18460   0.82290   0.77780   0.01267  Uiso   1.00
O56    O     0.36960   0.00030   0.80090   0.01267  Uiso   1.00
O57    O     0.24670   0.91000   0.69840   0.01267  Uiso   1.00
O58    O     0.41780   0.09700   0.72210   0.01267  Uiso   1.00
O59    O     0.04290   0.81590   0.58080   0.01267  Uiso   1.00
O60    O     0.96680   0.76790   0.64680   0.01267  Uiso   1.00
O61    O     0.27320   0.65860   0.59100   0.01267  Uiso   1.00
O62    O     0.20080   0.61580   0.65780   0.01267  Uiso   1.00
O63    O     0.82220   0.94380   0.47440   0.01267  Uiso   1.00
O64    O     0.01490   0.81590   0.49080   0.01267  Uiso   1.00
