data_image0
_cell_length_a       15.083
_cell_length_b       20.531
_cell_length_c       3.6656
_cell_angle_alpha    90
_cell_angle_beta     90
_cell_angle_gamma    90

_symmetry_space_group_name_H-M    "P 1"
_symmetry_int_tables_number       1

loop_
  _symmetry_equiv_pos_as_xyz
  'x, y, z'

loop_
  _atom_site_label
  _atom_site_occupancy
  _atom_site_fract_x
  _atom_site_fract_y
  _atom_site_fract_z
  _atom_site_thermal_displace_type
  _atom_site_B_iso_or_equiv
  _atom_site_type_symbol
  N1       1.0000 0.66910  0.58890  0.46580  Biso   1.000  N
  C1       1.0000 0.61830  0.63840  0.35740  Biso   1.000  C
  H1       1.0000 0.56040  0.62950  0.28570  Biso   1.000  H
  C2       1.0000 0.64710  0.70150  0.34630  Biso   1.000  C
  H2       1.0000 0.60950  0.73430  0.26490  Biso   1.000  H
  C3       1.0000 0.73190  0.71630  0.45600  Biso   1.000  C
  C4       1.0000 0.78590  0.66400  0.56790  Biso   1.000  C
  H3       1.0000 0.84450  0.67130  0.63650  Biso   1.000  H
  C5       1.0000 0.75120  0.60240  0.57450  Biso   1.000  C
  H4       1.0000 0.78650  0.56840  0.65870  Biso   1.000  H
  N2       1.0000 0.16910  0.08890  0.46580  Biso   1.000  N
  C6       1.0000 0.11830  0.13840  0.35740  Biso   1.000  C
  H5       1.0000 0.06040  0.12950  0.28570  Biso   1.000  H
  C7       1.0000 0.14710  0.20150  0.34630  Biso   1.000  C
  H6       1.0000 0.10950  0.23430  0.26490  Biso   1.000  H
  C8       1.0000 0.23190  0.21630  0.45600  Biso   1.000  C
  C9       1.0000 0.28590  0.16400  0.56790  Biso   1.000  C
  H7       1.0000 0.34450  0.17130  0.63650  Biso   1.000  H
  C10      1.0000 0.25120  0.10240  0.57450  Biso   1.000  C
  H8       1.0000 0.28650  0.06840  0.65870  Biso   1.000  H
  N3       1.0000 0.33090  0.41110  0.46580  Biso   1.000  N
  C11      1.0000 0.38170  0.36160  0.35740  Biso   1.000  C
  H9       1.0000 0.43960  0.37050  0.28570  Biso   1.000  H
  C12      1.0000 0.35290  0.29850  0.34630  Biso   1.000  C
  H10      1.0000 0.39050  0.26570  0.26490  Biso   1.000  H
  C13      1.0000 0.26810  0.28370  0.45600  Biso   1.000  C
  C14      1.0000 0.21410  0.33600  0.56790  Biso   1.000  C
  H11      1.0000 0.15550  0.32870  0.63650  Biso   1.000  H
  C15      1.0000 0.24880  0.39760  0.57450  Biso   1.000  C
  H12      1.0000 0.21350  0.43160  0.65870  Biso   1.000  H
  N4       1.0000 0.83090  0.91110  0.46580  Biso   1.000  N
  C16      1.0000 0.88170  0.86160  0.35740  Biso   1.000  C
  H13      1.0000 0.93960  0.87050  0.28570  Biso   1.000  H
  C17      1.0000 0.85290  0.79850  0.34630  Biso   1.000  C
  H14      1.0000 0.89050  0.76570  0.26490  Biso   1.000  H
  C18      1.0000 0.76810  0.78370  0.45600  Biso   1.000  C
  C19      1.0000 0.71410  0.83600  0.56790  Biso   1.000  C
  H15      1.0000 0.65550  0.82870  0.63650  Biso   1.000  H
  C20      1.0000 0.74880  0.89760  0.57450  Biso   1.000  C
  H16      1.0000 0.71350  0.93160  0.65870  Biso   1.000  H
  N5       1.0000 0.33090  0.58890  0.53420  Biso   1.000  N
  C21      1.0000 0.38170  0.63840  0.64260  Biso   1.000  C
  H17      1.0000 0.43960  0.62950  0.71430  Biso   1.000  H
  C22      1.0000 0.35290  0.70150  0.65370  Biso   1.000  C
  H18      1.0000 0.39050  0.73430  0.73510  Biso   1.000  H
  C23      1.0000 0.26810  0.71630  0.54400  Biso   1.000  C
  C24      1.0000 0.21410  0.66400  0.43210  Biso   1.000  C
  H19      1.0000 0.15550  0.67130  0.36350  Biso   1.000  H
  C25      1.0000 0.24880  0.60240  0.42550  Biso   1.000  C
  H20      1.0000 0.21350  0.56840  0.34130  Biso   1.000  H
  N6       1.0000 0.83090  0.08890  0.53420  Biso   1.000  N
  C26      1.0000 0.88170  0.13840  0.64260  Biso   1.000  C
  H21      1.0000 0.93960  0.12950  0.71430  Biso   1.000  H
  C27      1.0000 0.85290  0.20150  0.65370  Biso   1.000  C
  H22      1.0000 0.89050  0.23430  0.73510  Biso   1.000  H
  C28      1.0000 0.76810  0.21630  0.54400  Biso   1.000  C
  C29      1.0000 0.71410  0.16400  0.43210  Biso   1.000  C
  H23      1.0000 0.65550  0.17130  0.36350  Biso   1.000  H
  C30      1.0000 0.74880  0.10240  0.42550  Biso   1.000  C
  H24      1.0000 0.71350  0.06840  0.34130  Biso   1.000  H
  N7       1.0000 0.66910  0.41110  0.53420  Biso   1.000  N
  C31      1.0000 0.61830  0.36160  0.64260  Biso   1.000  C
  H25      1.0000 0.56040  0.37050  0.71430  Biso   1.000  H
  C32      1.0000 0.64710  0.29850  0.65370  Biso   1.000  C
  H26      1.0000 0.60950  0.26570  0.73510  Biso   1.000  H
  C33      1.0000 0.73190  0.28370  0.54400  Biso   1.000  C
  C34      1.0000 0.78590  0.33600  0.43210  Biso   1.000  C
  H27      1.0000 0.84450  0.32870  0.36350  Biso   1.000  H
  C35      1.0000 0.75120  0.39760  0.42550  Biso   1.000  C
  H28      1.0000 0.78650  0.43160  0.34130  Biso   1.000  H
  N8       1.0000 0.16910  0.91110  0.53420  Biso   1.000  N
  C36      1.0000 0.11830  0.86160  0.64260  Biso   1.000  C
  H29      1.0000 0.06040  0.87050  0.71430  Biso   1.000  H
  C37      1.0000 0.14710  0.79850  0.65370  Biso   1.000  C
  H30      1.0000 0.10950  0.76570  0.73510  Biso   1.000  H
  C38      1.0000 0.23190  0.78370  0.54400  Biso   1.000  C
  C39      1.0000 0.28590  0.83600  0.43210  Biso   1.000  C
  H31      1.0000 0.34450  0.82870  0.36350  Biso   1.000  H
  C40      1.0000 0.25120  0.89760  0.42550  Biso   1.000  C
  H32      1.0000 0.28650  0.93160  0.34130  Biso   1.000  H
  Cu1      1.0000 0.62178  0.50000  0.50000  Biso   1.000  Cu
  Cu2      1.0000 0.12178  0.00000  0.50000  Biso   1.000  Cu
  Cu3      1.0000 0.37822  0.50000  0.50000  Biso   1.000  Cu
  Cu4      1.0000 0.87822  0.00000  0.50000  Biso   1.000  Cu
  Cl1      1.0000 0.50000  0.50000  0.00000  Biso   1.000  Cl
  Cl2      1.0000 0.00000  0.00000  0.00000  Biso   1.000  Cl
