data_image0
_cell_length_a       12.8539
_cell_length_b       14.4578
_cell_length_c       30.453
_cell_angle_alpha    90
_cell_angle_beta     96.497
_cell_angle_gamma    90

_symmetry_space_group_name_H-M    "P 1"
_symmetry_int_tables_number       1

loop_
  _symmetry_equiv_pos_as_xyz
  'x, y, z'

loop_
  _atom_site_label
  _atom_site_occupancy
  _atom_site_fract_x
  _atom_site_fract_y
  _atom_site_fract_z
  _atom_site_thermal_displace_type
  _atom_site_B_iso_or_equiv
  _atom_site_type_symbol
  Ni1      1.0000 0.87276  0.78238  0.06641  Biso   1.000  Ni
  Ni2      1.0000 0.19672  0.90705  0.11183  Biso   1.000  Ni
  Ni3      1.0000 0.12926  0.70616  0.11907  Biso   1.000  Ni
  Ni4      1.0000 0.97333  0.80990  0.16113  Biso   1.000  Ni
  O1       1.0000 0.14677  0.79637  0.06652  Biso   1.000  O
  O2       1.0000 0.07542  0.10210  0.89223  Biso   1.000  O
  O3       1.0000 0.97009  0.71444  0.11129  Biso   1.000  O
  H1       1.0000 0.93870  0.65630  0.11980  Biso   1.000  H
  O4       1.0000 0.28879  0.69812  0.13018  Biso   1.000  O
  O5       1.0000 0.00766  0.71096  0.20889  Biso   1.000  O
  O6       1.0000 0.11999  0.62570  0.17397  Biso   1.000  O
  O7       1.0000 0.12734  0.82823  0.15373  Biso   1.000  O
  H2       1.0000 0.17070  0.82350  0.18220  Biso   1.000  H
  O8       1.0000 0.93606  0.01960  0.90828  Biso   1.000  O
  O9       1.0000 0.16740  0.33457  0.97129  Biso   1.000  O
  O10      1.0000 0.98763  0.80313  0.02689  Biso   1.000  O
  O11      1.0000 0.81930  0.78606  0.16834  Biso   1.000  O
  O12      1.0000 0.74457  0.75890  0.09889  Biso   1.000  O
  O13      1.0000 0.33918  0.84726  0.13071  Biso   1.000  O
  N1       1.0000 0.03130  0.41444  0.29302  Biso   1.000  N
  N2       1.0000 0.26190  0.87440  0.94441  Biso   1.000  N
  C1       1.0000 0.64790  0.72810  0.15889  Biso   1.000  C
  N3       1.0000 0.14170  0.58650  0.08277  Biso   1.000  N
  C2       1.0000 0.19610  0.51500  0.10262  Biso   1.000  C
  H3       1.0000 0.22280  0.52090  0.13220  Biso   1.000  H
  N4       1.0000 0.56580  0.63810  0.21166  Biso   1.000  N
  O14      1.0000 0.21670  0.26460  0.03623  Biso   1.000  O
  C3       1.0000 0.10290  0.96030  0.93190  Biso   1.000  C
  C4       1.0000 0.12460  0.49820  0.01592  Biso   1.000  C
  H4       1.0000 0.10100  0.49520  0.98590  Biso   1.000  H
  C5       1.0000 0.46110  0.73200  0.15889  Biso   1.000  C
  C6       1.0000 0.06620  0.91530  0.96661  Biso   1.000  C
  H5       1.0000 0.99800  0.92590  0.97270  Biso   1.000  H
  C7       1.0000 0.98390  0.49580  0.29767  Biso   1.000  C
  H6       1.0000 0.94230  0.50200  0.32060  Biso   1.000  H
  C8       1.0000 0.03300  0.03290  0.90852  Biso   1.000  C
  C9       1.0000 0.08460  0.81390  0.03197  Biso   1.000  C
  C10      1.0000 0.35330  0.76170  0.13828  Biso   1.000  C
  C11      1.0000 0.06130  0.63880  0.20368  Biso   1.000  C
  C12      1.0000 0.99310  0.56980  0.27080  Biso   1.000  C
  H7       1.0000 0.95970  0.62530  0.27580  Biso   1.000  H
  C13      1.0000 0.22940  0.83470  0.98083  Biso   1.000  C
  C14      1.0000 0.74490  0.76010  0.14061  Biso   1.000  C
  C15      1.0000 0.12910  0.85430  0.99276  Biso   1.000  C
  C16      1.0000 0.17700  0.42370  0.03682  Biso   1.000  C
  C17      1.0000 0.05300  0.56150  0.23566  Biso   1.000  C
  C18      1.0000 0.10770  0.57740  0.04003  Biso   1.000  C
  H8       1.0000 0.07100  0.62620  0.02570  Biso   1.000  H
  C19      1.0000 0.65210  0.66600  0.19423  Biso   1.000  C
  C20      1.0000 0.20270  0.93800  0.92100  Biso   1.000  C
  C21      1.0000 0.54990  0.76090  0.14154  Biso   1.000  C
  H9       1.0000 0.54440  0.80240  0.11810  Biso   1.000  H
  C22      1.0000 0.08960  0.40570  0.25931  Biso   1.000  C
  H10      1.0000 0.12300  0.34970  0.25540  Biso   1.000  H
  C23      1.0000 0.10170  0.47700  0.23028  Biso   1.000  C
  H11      1.0000 0.14220  0.46870  0.20720  Biso   1.000  H
  C24      1.0000 0.18850  0.33340  0.01260  Biso   1.000  C
  C25      1.0000 0.24960  0.97850  0.88235  Biso   1.000  C
  H12      1.0000 0.31740  0.95190  0.88060  Biso   1.000  H
  H13      1.0000 0.25640  0.04430  0.88610  Biso   1.000  H
  H14      1.0000 0.20500  0.96540  0.85560  Biso   1.000  H
  C26      1.0000 0.30410  0.76970  0.00583  Biso   1.000  C
  H15      1.0000 0.36860  0.76880  0.99270  Biso   1.000  H
  H16      1.0000 0.27440  0.70870  0.00490  Biso   1.000  H
  H17      1.0000 0.31740  0.78970  0.03600  Biso   1.000  H
  C27      1.0000 0.75370  0.62380  0.21507  Biso   1.000  C
  H18      1.0000 0.73980  0.58380  0.23890  Biso   1.000  H
  H19      1.0000 0.80070  0.67210  0.22630  Biso   1.000  H
  H20      1.0000 0.78510  0.58870  0.19330  Biso   1.000  H
  C28      1.0000 0.21360  0.43380  0.08098  Biso   1.000  C
  H21      1.0000 0.25010  0.38580  0.09610  Biso   1.000  H
  C29      1.0000 0.47100  0.67030  0.19427  Biso   1.000  C
  C30      1.0000 0.37960  0.63960  0.21753  Biso   1.000  C
  H22      1.0000 0.40360  0.59780  0.24100  Biso   1.000  H
  H23      1.0000 0.32910  0.60890  0.19690  Biso   1.000  H
  H24      1.0000 0.34770  0.69260  0.22950  Biso   1.000  H
  Ni5      1.0000 0.12724  0.28238  0.43359  Biso   1.000  Ni
  Ni6      1.0000 0.80328  0.40705  0.38817  Biso   1.000  Ni
  Ni7      1.0000 0.87074  0.20616  0.38093  Biso   1.000  Ni
  Ni8      1.0000 0.02667  0.30990  0.33887  Biso   1.000  Ni
  O15      1.0000 0.85323  0.29637  0.43348  Biso   1.000  O
  O16      1.0000 0.92458  0.60210  0.60777  Biso   1.000  O
  O17      1.0000 0.02991  0.21444  0.38871  Biso   1.000  O
  H25      1.0000 0.06130  0.15630  0.38020  Biso   1.000  H
  O18      1.0000 0.71121  0.19812  0.36982  Biso   1.000  O
  O19      1.0000 0.99234  0.21096  0.29111  Biso   1.000  O
  O20      1.0000 0.88001  0.12570  0.32603  Biso   1.000  O
  O21      1.0000 0.87266  0.32823  0.34627  Biso   1.000  O
  H26      1.0000 0.82930  0.32350  0.31780  Biso   1.000  H
  O22      1.0000 0.06394  0.51960  0.59172  Biso   1.000  O
  O23      1.0000 0.83260  0.83457  0.52871  Biso   1.000  O
  O24      1.0000 0.01237  0.30313  0.47311  Biso   1.000  O
  O25      1.0000 0.18070  0.28606  0.33166  Biso   1.000  O
  O26      1.0000 0.25543  0.25890  0.40111  Biso   1.000  O
  O27      1.0000 0.66082  0.34726  0.36929  Biso   1.000  O
  N5       1.0000 0.96870  0.91444  0.20698  Biso   1.000  N
  N6       1.0000 0.73810  0.37440  0.55559  Biso   1.000  N
  C31      1.0000 0.35210  0.22810  0.34111  Biso   1.000  C
  N7       1.0000 0.85830  0.08650  0.41723  Biso   1.000  N
  C32      1.0000 0.80390  0.01500  0.39738  Biso   1.000  C
  H27      1.0000 0.77720  0.02090  0.36780  Biso   1.000  H
  N8       1.0000 0.43420  0.13810  0.28834  Biso   1.000  N
  O28      1.0000 0.78330  0.76460  0.46377  Biso   1.000  O
  C33      1.0000 0.89710  0.46030  0.56810  Biso   1.000  C
  C34      1.0000 0.87540  0.99820  0.48408  Biso   1.000  C
  H28      1.0000 0.89900  0.99520  0.51410  Biso   1.000  H
  C35      1.0000 0.53890  0.23200  0.34111  Biso   1.000  C
  C36      1.0000 0.93380  0.41530  0.53339  Biso   1.000  C
  H29      1.0000 0.00200  0.42590  0.52730  Biso   1.000  H
  C37      1.0000 0.01610  0.99580  0.20233  Biso   1.000  C
  H30      1.0000 0.05770  0.00200  0.17940  Biso   1.000  H
  C38      1.0000 0.96700  0.53290  0.59148  Biso   1.000  C
  C39      1.0000 0.91540  0.31390  0.46803  Biso   1.000  C
  C40      1.0000 0.64670  0.26170  0.36172  Biso   1.000  C
  C41      1.0000 0.93870  0.13880  0.29632  Biso   1.000  C
  C42      1.0000 0.00690  0.06980  0.22920  Biso   1.000  C
  H31      1.0000 0.04030  0.12530  0.22420  Biso   1.000  H
  C43      1.0000 0.77060  0.33470  0.51917  Biso   1.000  C
  C44      1.0000 0.25510  0.26010  0.35939  Biso   1.000  C
  C45      1.0000 0.87090  0.35430  0.50724  Biso   1.000  C
  C46      1.0000 0.82300  0.92370  0.46318  Biso   1.000  C
  C47      1.0000 0.94700  0.06150  0.26434  Biso   1.000  C
  C48      1.0000 0.89230  0.07740  0.45997  Biso   1.000  C
  H32      1.0000 0.92900  0.12620  0.47430  Biso   1.000  H
  C49      1.0000 0.34790  0.16600  0.30577  Biso   1.000  C
  C50      1.0000 0.79730  0.43800  0.57900  Biso   1.000  C
  C51      1.0000 0.45010  0.26090  0.35846  Biso   1.000  C
  H33      1.0000 0.45560  0.30240  0.38190  Biso   1.000  H
  C52      1.0000 0.91040  0.90570  0.24069  Biso   1.000  C
  H34      1.0000 0.87700  0.84970  0.24460  Biso   1.000  H
  C53      1.0000 0.89830  0.97700  0.26972  Biso   1.000  C
  H35      1.0000 0.85780  0.96870  0.29280  Biso   1.000  H
  C54      1.0000 0.81150  0.83340  0.48740  Biso   1.000  C
  C55      1.0000 0.75040  0.47850  0.61765  Biso   1.000  C
  H36      1.0000 0.68260  0.45190  0.61940  Biso   1.000  H
  H37      1.0000 0.74360  0.54430  0.61390  Biso   1.000  H
  H38      1.0000 0.79500  0.46540  0.64440  Biso   1.000  H
  C56      1.0000 0.69590  0.26970  0.49417  Biso   1.000  C
  H39      1.0000 0.63140  0.26880  0.50730  Biso   1.000  H
  H40      1.0000 0.72560  0.20870  0.49510  Biso   1.000  H
  H41      1.0000 0.68260  0.28970  0.46400  Biso   1.000  H
  C57      1.0000 0.24630  0.12380  0.28493  Biso   1.000  C
  H42      1.0000 0.26020  0.08380  0.26110  Biso   1.000  H
  H43      1.0000 0.19930  0.17210  0.27370  Biso   1.000  H
  H44      1.0000 0.21490  0.08870  0.30670  Biso   1.000  H
  C58      1.0000 0.78640  0.93380  0.41902  Biso   1.000  C
  H45      1.0000 0.74990  0.88580  0.40390  Biso   1.000  H
  C59      1.0000 0.52900  0.17030  0.30573  Biso   1.000  C
  C60      1.0000 0.62040  0.13960  0.28247  Biso   1.000  C
  H46      1.0000 0.59640  0.09780  0.25900  Biso   1.000  H
  H47      1.0000 0.67090  0.10890  0.30310  Biso   1.000  H
  H48      1.0000 0.65230  0.19260  0.27050  Biso   1.000  H
  Ni9      1.0000 0.12724  0.21762  0.93359  Biso   1.000  Ni
  Ni10     1.0000 0.80328  0.09295  0.88817  Biso   1.000  Ni
  Ni11     1.0000 0.87074  0.29384  0.88093  Biso   1.000  Ni
  Ni12     1.0000 0.02667  0.19010  0.83887  Biso   1.000  Ni
  O29      1.0000 0.85323  0.20363  0.93348  Biso   1.000  O
  O30      1.0000 0.92458  0.89790  0.10777  Biso   1.000  O
  O31      1.0000 0.02991  0.28556  0.88871  Biso   1.000  O
  H49      1.0000 0.06130  0.34370  0.88020  Biso   1.000  H
  O32      1.0000 0.71121  0.30188  0.86982  Biso   1.000  O
  O33      1.0000 0.99234  0.28904  0.79111  Biso   1.000  O
  O34      1.0000 0.88001  0.37430  0.82603  Biso   1.000  O
  O35      1.0000 0.87266  0.17177  0.84627  Biso   1.000  O
  H50      1.0000 0.82930  0.17650  0.81780  Biso   1.000  H
  O36      1.0000 0.06394  0.98040  0.09172  Biso   1.000  O
  O37      1.0000 0.83260  0.66543  0.02871  Biso   1.000  O
  O38      1.0000 0.01237  0.19687  0.97311  Biso   1.000  O
  O39      1.0000 0.18070  0.21394  0.83166  Biso   1.000  O
  O40      1.0000 0.25543  0.24110  0.90111  Biso   1.000  O
  O41      1.0000 0.66082  0.15274  0.86929  Biso   1.000  O
  N9       1.0000 0.96870  0.58556  0.70698  Biso   1.000  N
  N10      1.0000 0.73810  0.12560  0.05559  Biso   1.000  N
  C61      1.0000 0.35210  0.27190  0.84111  Biso   1.000  C
  N11      1.0000 0.85830  0.41350  0.91723  Biso   1.000  N
  C62      1.0000 0.80390  0.48500  0.89738  Biso   1.000  C
  H51      1.0000 0.77720  0.47910  0.86780  Biso   1.000  H
  N12      1.0000 0.43420  0.36190  0.78834  Biso   1.000  N
  O42      1.0000 0.78330  0.73540  0.96377  Biso   1.000  O
  C63      1.0000 0.89710  0.03970  0.06810  Biso   1.000  C
  C64      1.0000 0.87540  0.50180  0.98408  Biso   1.000  C
  H52      1.0000 0.89900  0.50480  0.01410  Biso   1.000  H
  C65      1.0000 0.53890  0.26800  0.84111  Biso   1.000  C
  C66      1.0000 0.93380  0.08470  0.03339  Biso   1.000  C
  H53      1.0000 0.00200  0.07410  0.02730  Biso   1.000  H
  C67      1.0000 0.01610  0.50420  0.70233  Biso   1.000  C
  H54      1.0000 0.05770  0.49800  0.67940  Biso   1.000  H
  C68      1.0000 0.96700  0.96710  0.09148  Biso   1.000  C
  C69      1.0000 0.91540  0.18610  0.96803  Biso   1.000  C
  C70      1.0000 0.64670  0.23830  0.86172  Biso   1.000  C
  C71      1.0000 0.93870  0.36120  0.79632  Biso   1.000  C
  C72      1.0000 0.00690  0.43020  0.72920  Biso   1.000  C
  H55      1.0000 0.04030  0.37470  0.72420  Biso   1.000  H
  C73      1.0000 0.77060  0.16530  0.01917  Biso   1.000  C
  C74      1.0000 0.25510  0.23990  0.85939  Biso   1.000  C
  C75      1.0000 0.87090  0.14570  0.00724  Biso   1.000  C
  C76      1.0000 0.82300  0.57630  0.96318  Biso   1.000  C
  C77      1.0000 0.94700  0.43850  0.76434  Biso   1.000  C
  C78      1.0000 0.89230  0.42260  0.95997  Biso   1.000  C
  H56      1.0000 0.92900  0.37380  0.97430  Biso   1.000  H
  C79      1.0000 0.34790  0.33400  0.80577  Biso   1.000  C
  C80      1.0000 0.79730  0.06200  0.07900  Biso   1.000  C
  C81      1.0000 0.45010  0.23910  0.85846  Biso   1.000  C
  H57      1.0000 0.45560  0.19760  0.88190  Biso   1.000  H
  C82      1.0000 0.91040  0.59430  0.74069  Biso   1.000  C
  H58      1.0000 0.87700  0.65030  0.74460  Biso   1.000  H
  C83      1.0000 0.89830  0.52300  0.76972  Biso   1.000  C
  H59      1.0000 0.85780  0.53130  0.79280  Biso   1.000  H
  C84      1.0000 0.81150  0.66660  0.98740  Biso   1.000  C
  C85      1.0000 0.75040  0.02150  0.11765  Biso   1.000  C
  H60      1.0000 0.68260  0.04810  0.11940  Biso   1.000  H
  H61      1.0000 0.74360  0.95570  0.11390  Biso   1.000  H
  H62      1.0000 0.79500  0.03460  0.14440  Biso   1.000  H
  C86      1.0000 0.69590  0.23030  0.99417  Biso   1.000  C
  H63      1.0000 0.63140  0.23120  0.00730  Biso   1.000  H
  H64      1.0000 0.72560  0.29130  0.99510  Biso   1.000  H
  H65      1.0000 0.68260  0.21030  0.96400  Biso   1.000  H
  C87      1.0000 0.24630  0.37620  0.78493  Biso   1.000  C
  H66      1.0000 0.26020  0.41620  0.76110  Biso   1.000  H
  H67      1.0000 0.19930  0.32790  0.77370  Biso   1.000  H
  H68      1.0000 0.21490  0.41130  0.80670  Biso   1.000  H
  C88      1.0000 0.78640  0.56620  0.91902  Biso   1.000  C
  H69      1.0000 0.74990  0.61420  0.90390  Biso   1.000  H
  C89      1.0000 0.52900  0.32970  0.80573  Biso   1.000  C
  C90      1.0000 0.62040  0.36040  0.78247  Biso   1.000  C
  H70      1.0000 0.59640  0.40220  0.75900  Biso   1.000  H
  H71      1.0000 0.67090  0.39110  0.80310  Biso   1.000  H
  H72      1.0000 0.65230  0.30740  0.77050  Biso   1.000  H
  Ni13     1.0000 0.87276  0.71762  0.56641  Biso   1.000  Ni
  Ni14     1.0000 0.19672  0.59295  0.61183  Biso   1.000  Ni
  Ni15     1.0000 0.12926  0.79384  0.61907  Biso   1.000  Ni
  Ni16     1.0000 0.97333  0.69010  0.66113  Biso   1.000  Ni
  O43      1.0000 0.14677  0.70363  0.56652  Biso   1.000  O
  O44      1.0000 0.07542  0.39790  0.39223  Biso   1.000  O
  O45      1.0000 0.97009  0.78556  0.61129  Biso   1.000  O
  H73      1.0000 0.93870  0.84370  0.61980  Biso   1.000  H
  O46      1.0000 0.28879  0.80188  0.63018  Biso   1.000  O
  O47      1.0000 0.00766  0.78904  0.70889  Biso   1.000  O
  O48      1.0000 0.11999  0.87430  0.67397  Biso   1.000  O
  O49      1.0000 0.12734  0.67177  0.65373  Biso   1.000  O
  H74      1.0000 0.17070  0.67650  0.68220  Biso   1.000  H
  O50      1.0000 0.93606  0.48040  0.40828  Biso   1.000  O
  O51      1.0000 0.16740  0.16543  0.47129  Biso   1.000  O
  O52      1.0000 0.98763  0.69687  0.52689  Biso   1.000  O
  O53      1.0000 0.81930  0.71394  0.66834  Biso   1.000  O
  O54      1.0000 0.74457  0.74110  0.59889  Biso   1.000  O
  O55      1.0000 0.33918  0.65274  0.63071  Biso   1.000  O
  N13      1.0000 0.03130  0.08556  0.79302  Biso   1.000  N
  N14      1.0000 0.26190  0.62560  0.44441  Biso   1.000  N
  C91      1.0000 0.64790  0.77190  0.65889  Biso   1.000  C
  N15      1.0000 0.14170  0.91350  0.58277  Biso   1.000  N
  C92      1.0000 0.19610  0.98500  0.60262  Biso   1.000  C
  H75      1.0000 0.22280  0.97910  0.63220  Biso   1.000  H
  N16      1.0000 0.56580  0.86190  0.71166  Biso   1.000  N
  O56      1.0000 0.21670  0.23540  0.53623  Biso   1.000  O
  C93      1.0000 0.10290  0.53970  0.43190  Biso   1.000  C
  C94      1.0000 0.12460  0.00180  0.51592  Biso   1.000  C
  H76      1.0000 0.10100  0.00480  0.48590  Biso   1.000  H
  C95      1.0000 0.46110  0.76800  0.65889  Biso   1.000  C
  C96      1.0000 0.06620  0.58470  0.46661  Biso   1.000  C
  H77      1.0000 0.99800  0.57410  0.47270  Biso   1.000  H
  C97      1.0000 0.98390  0.00420  0.79767  Biso   1.000  C
  H78      1.0000 0.94230  0.99800  0.82060  Biso   1.000  H
  C98      1.0000 0.03300  0.46710  0.40852  Biso   1.000  C
  C99      1.0000 0.08460  0.68610  0.53197  Biso   1.000  C
  C100     1.0000 0.35330  0.73830  0.63828  Biso   1.000  C
  C101     1.0000 0.06130  0.86120  0.70368  Biso   1.000  C
  C102     1.0000 0.99310  0.93020  0.77080  Biso   1.000  C
  H79      1.0000 0.95970  0.87470  0.77580  Biso   1.000  H
  C103     1.0000 0.22940  0.66530  0.48083  Biso   1.000  C
  C104     1.0000 0.74490  0.73990  0.64061  Biso   1.000  C
  C105     1.0000 0.12910  0.64570  0.49276  Biso   1.000  C
  C106     1.0000 0.17700  0.07630  0.53682  Biso   1.000  C
  C107     1.0000 0.05300  0.93850  0.73566  Biso   1.000  C
  C108     1.0000 0.10770  0.92260  0.54003  Biso   1.000  C
  H80      1.0000 0.07100  0.87380  0.52570  Biso   1.000  H
  C109     1.0000 0.65210  0.83400  0.69423  Biso   1.000  C
  C110     1.0000 0.20270  0.56200  0.42100  Biso   1.000  C
  C111     1.0000 0.54990  0.73910  0.64154  Biso   1.000  C
  H81      1.0000 0.54440  0.69760  0.61810  Biso   1.000  H
  C112     1.0000 0.08960  0.09430  0.75931  Biso   1.000  C
  H82      1.0000 0.12300  0.15030  0.75540  Biso   1.000  H
  C113     1.0000 0.10170  0.02300  0.73028  Biso   1.000  C
  H83      1.0000 0.14220  0.03130  0.70720  Biso   1.000  H
  C114     1.0000 0.18850  0.16660  0.51260  Biso   1.000  C
  C115     1.0000 0.24960  0.52150  0.38235  Biso   1.000  C
  H84      1.0000 0.31740  0.54810  0.38060  Biso   1.000  H
  H85      1.0000 0.25640  0.45570  0.38610  Biso   1.000  H
  H86      1.0000 0.20500  0.53460  0.35560  Biso   1.000  H
  C116     1.0000 0.30410  0.73030  0.50583  Biso   1.000  C
  H87      1.0000 0.36860  0.73120  0.49270  Biso   1.000  H
  H88      1.0000 0.27440  0.79130  0.50490  Biso   1.000  H
  H89      1.0000 0.31740  0.71030  0.53600  Biso   1.000  H
  C117     1.0000 0.75370  0.87620  0.71507  Biso   1.000  C
  H90      1.0000 0.73980  0.91620  0.73890  Biso   1.000  H
  H91      1.0000 0.80070  0.82790  0.72630  Biso   1.000  H
  H92      1.0000 0.78510  0.91130  0.69330  Biso   1.000  H
  C118     1.0000 0.21360  0.06620  0.58098  Biso   1.000  C
  H93      1.0000 0.25010  0.11420  0.59610  Biso   1.000  H
  C119     1.0000 0.47100  0.82970  0.69427  Biso   1.000  C
  C120     1.0000 0.37960  0.86040  0.71753  Biso   1.000  C
  H94      1.0000 0.40360  0.90220  0.74100  Biso   1.000  H
  H95      1.0000 0.32910  0.89110  0.69690  Biso   1.000  H
  H96      1.0000 0.34770  0.80740  0.72950  Biso   1.000  H
