data_KOJZEP_clean5b
_audit_creation_date              2014-07-02
_audit_creation_method            'Materials Studio'
_symmetry_space_group_name_H-M    'P1'
_symmetry_Int_Tables_number       1
_symmetry_cell_setting            triclinic
loop_
_symmetry_equiv_pos_as_xyz
  x,y,z
_cell_length_a                    12.2618
_cell_length_b                    25.7328
_cell_length_c                    25.7328
_cell_angle_alpha                 62.4736
_cell_angle_beta                  80.8607
_cell_angle_gamma                 99.1393
loop_
_atom_site_label
_atom_site_type_symbol
_atom_site_fract_x
_atom_site_fract_y
_atom_site_fract_z
_atom_site_U_iso_or_equiv
_atom_site_adp_type
_atom_site_occupancy
Cu1    Cu    0.59513   0.54069   0.45931   0.01267  Uiso   1.00
Cu2    Cu    0.05444   0.45931   0.00000   0.01267  Uiso   1.00
Cu3    Cu    0.05444   1.00000   0.54069   0.01267  Uiso   1.00
Cu4    Cu    0.94556   0.00000   0.45931   0.01267  Uiso   1.00
Cu5    Cu    0.94556   0.54069  -0.00000   0.01267  Uiso   1.00
Cu6    Cu    0.40487   0.45931   0.54069   0.01267  Uiso   1.00
H7     H     0.48380   0.43085   0.70490   0.01267  Uiso   1.00
H8     H     0.79192   0.55983   0.57239   0.01267  Uiso   1.00
H9     H     0.18869   0.70490   0.86426   0.01267  Uiso   1.00
H10    H     0.36564   0.57263   0.86731   0.01267  Uiso   1.00
H11    H     0.05295   0.86425   0.43085   0.01267  Uiso   1.00
H12    H     0.23295   0.86731   0.56007   0.01267  Uiso   1.00
H13    H     0.81131   0.86426   0.70490   0.01267  Uiso   1.00
H14    H     0.63569   0.86778   0.57239   0.01267  Uiso   1.00
H15    H     0.94705   0.43085   0.86425   0.01267  Uiso   1.00
H16    H     0.76705   0.56007   0.86731   0.01267  Uiso   1.00
H17    H     0.51620   0.70490   0.43085   0.01267  Uiso   1.00
H18    H     0.20699   0.57263   0.56007   0.01267  Uiso   1.00
H19    H     0.51620   0.56915   0.29510   0.01267  Uiso   1.00
H20    H     0.20699   0.43993   0.42737   0.01267  Uiso   1.00
H21    H     0.81131   0.29510   0.13574   0.01267  Uiso   1.00
H22    H     0.63569   0.42761   0.13222   0.01267  Uiso   1.00
H23    H     0.94705   0.13575   0.56915   0.01267  Uiso   1.00
H24    H     0.76705   0.13269   0.43993   0.01267  Uiso   1.00
H25    H     0.18869   0.13574   0.29510   0.01267  Uiso   1.00
H26    H     0.36564   0.13269   0.42737   0.01267  Uiso   1.00
H27    H     0.05295   0.56915   0.13575   0.01267  Uiso   1.00
H28    H     0.23295   0.43993   0.13269   0.01267  Uiso   1.00
H29    H     0.48380   0.29510   0.56915   0.01267  Uiso   1.00
H30    H     0.79301   0.42737   0.43993   0.01267  Uiso   1.00
C31    C     0.63286   0.49707   0.63394   0.01267  Uiso   1.00
C32    C     0.57286   0.46143   0.69265   0.01267  Uiso   1.00
C33    C     0.61569   0.46027   0.74000   0.01267  Uiso   1.00
C34    C     0.72349   0.49457   0.72795   0.01267  Uiso   1.00
C35    C     0.78464   0.52979   0.66867   0.01267  Uiso   1.00
C36    C     0.73874   0.53050   0.62168   0.01267  Uiso   1.00
C37    C     0.58328   0.49731   0.58369   0.01267  Uiso   1.00
C38    C     0.56010   0.41390   0.80160   0.01267  Uiso   1.00
C39    C     0.26680   0.63394   0.86899   0.01267  Uiso   1.00
C40    C     0.26551   0.69265   0.84592   0.01267  Uiso   1.00
C41    C     0.35569   0.74000   0.79973   0.01267  Uiso   1.00
C42    C     0.45144   0.72795   0.77748   0.01267  Uiso   1.00
C43    C     0.45331   0.66867   0.80154   0.01267  Uiso   1.00
C44    C     0.36042   0.62168   0.84782   0.01267  Uiso   1.00
C45    C     0.16697   0.58369   0.91900   0.01267  Uiso   1.00
C46    C     0.36170   0.80160   0.78450   0.01267  Uiso   1.00
C47    C     0.13579   0.86899   0.49707   0.01267  Uiso   1.00
C48    C     0.11143   0.84592   0.46143   0.01267  Uiso   1.00
C49    C     0.15542   0.79973   0.46027   0.01267  Uiso   1.00
C50    C     0.22892   0.77748   0.49457   0.01267  Uiso   1.00
C51    C     0.25485   0.80154   0.52979   0.01267  Uiso   1.00
C52    C     0.20824   0.84782   0.53050   0.01267  Uiso   1.00
C53    C     0.08597   0.91900   0.49731   0.01267  Uiso   1.00
C54    C     0.14620   0.78450   0.41390   0.01267  Uiso   1.00
C55    C     0.73320   0.86899   0.63394   0.01267  Uiso   1.00
C56    C     0.73449   0.84592   0.69265   0.01267  Uiso   1.00
C57    C     0.64431   0.79973   0.74000   0.01267  Uiso   1.00
C58    C     0.54856   0.77748   0.72795   0.01267  Uiso   1.00
C59    C     0.54669   0.80154   0.66867   0.01267  Uiso   1.00
C60    C     0.63958   0.84782   0.62168   0.01267  Uiso   1.00
C61    C     0.83303   0.91900   0.58369   0.01267  Uiso   1.00
C62    C     0.63830   0.78450   0.80160   0.01267  Uiso   1.00
C63    C     0.86421   0.49707   0.86899   0.01267  Uiso   1.00
C64    C     0.88857   0.46143   0.84592   0.01267  Uiso   1.00
C65    C     0.84458   0.46027   0.79973   0.01267  Uiso   1.00
C66    C     0.77108   0.49457   0.77748   0.01267  Uiso   1.00
C67    C     0.74515   0.52979   0.80154   0.01267  Uiso   1.00
C68    C     0.79176   0.53050   0.84782   0.01267  Uiso   1.00
C69    C     0.91403   0.49731   0.91900   0.01267  Uiso   1.00
C70    C     0.85380   0.41390   0.78450   0.01267  Uiso   1.00
C71    C     0.36714   0.63394   0.49707   0.01267  Uiso   1.00
C72    C     0.42714   0.69265   0.46143   0.01267  Uiso   1.00
C73    C     0.38431   0.74000   0.46027   0.01267  Uiso   1.00
C74    C     0.27651   0.72795   0.49457   0.01267  Uiso   1.00
C75    C     0.21536   0.66867   0.52979   0.01267  Uiso   1.00
C76    C     0.26126   0.62168   0.53050   0.01267  Uiso   1.00
C77    C     0.41672   0.58369   0.49731   0.01267  Uiso   1.00
C78    C     0.43990   0.80160   0.41390   0.01267  Uiso   1.00
C79    C     0.36714   0.50293   0.36606   0.01267  Uiso   1.00
C80    C     0.42714   0.53857   0.30735   0.01267  Uiso   1.00
C81    C     0.38431   0.53973   0.26000   0.01267  Uiso   1.00
C82    C     0.27651   0.50543   0.27205   0.01267  Uiso   1.00
C83    C     0.21536   0.47021   0.33133   0.01267  Uiso   1.00
C84    C     0.26126   0.46950   0.37832   0.01267  Uiso   1.00
C85    C     0.41672   0.50269   0.41631   0.01267  Uiso   1.00
C86    C     0.43990   0.58610   0.19840   0.01267  Uiso   1.00
C87    C     0.73320   0.36606   0.13101   0.01267  Uiso   1.00
C88    C     0.73449   0.30735   0.15408   0.01267  Uiso   1.00
C89    C     0.64431   0.26000   0.20027   0.01267  Uiso   1.00
C90    C     0.54856   0.27205   0.22252   0.01267  Uiso   1.00
C91    C     0.54669   0.33133   0.19846   0.01267  Uiso   1.00
C92    C     0.63958   0.37832   0.15218   0.01267  Uiso   1.00
C93    C     0.83303   0.41631   0.08100   0.01267  Uiso   1.00
C94    C     0.63830   0.19840   0.21550   0.01267  Uiso   1.00
C95    C     0.86421   0.13101   0.50293   0.01267  Uiso   1.00
C96    C     0.88857   0.15408   0.53857   0.01267  Uiso   1.00
C97    C     0.84458   0.20027   0.53973   0.01267  Uiso   1.00
C98    C     0.77108   0.22252   0.50543   0.01267  Uiso   1.00
C99    C     0.74515   0.19846   0.47021   0.01267  Uiso   1.00
C100   C     0.79176   0.15218   0.46950   0.01267  Uiso   1.00
C101   C     0.91403   0.08100   0.50269   0.01267  Uiso   1.00
C102   C     0.85380   0.21550   0.58610   0.01267  Uiso   1.00
C103   C     0.26680   0.13101   0.36606   0.01267  Uiso   1.00
C104   C     0.26551   0.15408   0.30735   0.01267  Uiso   1.00
C105   C     0.35569   0.20027   0.26000   0.01267  Uiso   1.00
C106   C     0.45144   0.22252   0.27205   0.01267  Uiso   1.00
C107   C     0.45331   0.19846   0.33133   0.01267  Uiso   1.00
C108   C     0.36042   0.15218   0.37832   0.01267  Uiso   1.00
C109   C     0.16697   0.08100   0.41631   0.01267  Uiso   1.00
C110   C     0.36170   0.21550   0.19840   0.01267  Uiso   1.00
C111   C     0.13579   0.50293   0.13101   0.01267  Uiso   1.00
C112   C     0.11143   0.53857   0.15408   0.01267  Uiso   1.00
C113   C     0.15542   0.53973   0.20027   0.01267  Uiso   1.00
C114   C     0.22892   0.50543   0.22252   0.01267  Uiso   1.00
C115   C     0.25485   0.47021   0.19846   0.01267  Uiso   1.00
C116   C     0.20824   0.46950   0.15218   0.01267  Uiso   1.00
C117   C     0.08597   0.50269   0.08100   0.01267  Uiso   1.00
C118   C     0.14620   0.58610   0.21550   0.01267  Uiso   1.00
C119   C     0.63286   0.36606   0.50293   0.01267  Uiso   1.00
C120   C     0.57286   0.30735   0.53857   0.01267  Uiso   1.00
C121   C     0.61569   0.26000   0.53973   0.01267  Uiso   1.00
C122   C     0.72349   0.27205   0.50543   0.01267  Uiso   1.00
C123   C     0.78464   0.33133   0.47021   0.01267  Uiso   1.00
C124   C     0.73874   0.37832   0.46950   0.01267  Uiso   1.00
C125   C     0.58328   0.41631   0.50269   0.01267  Uiso   1.00
C126   C     0.56010   0.19840   0.58610   0.01267  Uiso   1.00
N127   N     0.51120   0.37860   0.85300   0.01267  Uiso   1.00
N128   N     0.36420   0.85300   0.76840   0.01267  Uiso   1.00
N129   N     0.13260   0.76840   0.37860   0.01267  Uiso   1.00
N130   N     0.63580   0.76840   0.85300   0.01267  Uiso   1.00
N131   N     0.86740   0.37860   0.76840   0.01267  Uiso   1.00
N132   N     0.48880   0.85300   0.37860   0.01267  Uiso   1.00
N133   N     0.48880   0.62140   0.14700   0.01267  Uiso   1.00
N134   N     0.63580   0.14700   0.23160   0.01267  Uiso   1.00
N135   N     0.86740   0.23160   0.62140   0.01267  Uiso   1.00
N136   N     0.36420   0.23160   0.14700   0.01267  Uiso   1.00
N137   N     0.13260   0.62140   0.23160   0.01267  Uiso   1.00
N138   N     0.51120   0.14700   0.62140   0.01267  Uiso   1.00
O139   O     0.64543   0.53164   0.53093   0.01267  Uiso   1.00
O140   O     0.48517   0.46333   0.59954   0.01267  Uiso   1.00
O141   O     0.17636   0.53093   0.93743   0.01267  Uiso   1.00
O142   O     0.08471   0.59954   0.93713   0.01267  Uiso   1.00
O143   O     0.11379   0.93743   0.53164   0.01267  Uiso   1.00
O144   O     0.02184   0.93713   0.46333   0.01267  Uiso   1.00
O145   O     0.82364   0.93743   0.53093   0.01267  Uiso   1.00
O146   O     0.91529   0.93713   0.59954   0.01267  Uiso   1.00
O147   O     0.88621   0.53164   0.93743   0.01267  Uiso   1.00
O148   O     0.97816   0.46333   0.93713   0.01267  Uiso   1.00
O149   O     0.35457   0.53093   0.53164   0.01267  Uiso   1.00
O150   O     0.51483   0.59954   0.46333   0.01267  Uiso   1.00
O151   O     0.35457   0.46836   0.46907   0.01267  Uiso   1.00
O152   O     0.51483   0.53667   0.40046   0.01267  Uiso   1.00
O153   O     0.82364   0.46907   0.06257   0.01267  Uiso   1.00
O154   O     0.91529   0.40046   0.06287   0.01267  Uiso   1.00
O155   O     0.88621   0.06257   0.46836   0.01267  Uiso   1.00
O156   O     0.97816   0.06287   0.53667   0.01267  Uiso   1.00
O157   O     0.17636   0.06257   0.46907   0.01267  Uiso   1.00
O158   O     0.08471   0.06287   0.40046   0.01267  Uiso   1.00
O159   O     0.11379   0.46836   0.06257   0.01267  Uiso   1.00
O160   O     0.02184   0.53667   0.06287   0.01267  Uiso   1.00
O161   O     0.64543   0.46907   0.46836   0.01267  Uiso   1.00
O162   O     0.48517   0.40046   0.53667   0.01267  Uiso   1.00
H163   H     0.87471   0.55940   0.65640   0.00000  Uiso   1.00
H164   H     0.53111   0.65640   0.78420   0.00000  Uiso   1.00
H165   H     0.31531   0.78420   0.55940   0.00000  Uiso   1.00
H166   H     0.46889   0.78420   0.65640   0.00000  Uiso   1.00
H167   H     0.68469   0.55940   0.78420   0.00000  Uiso   1.00
H168   H     0.12529   0.65640   0.55940   0.00000  Uiso   1.00
H169   H     0.12529   0.44060   0.34360   0.00000  Uiso   1.00
H170   H     0.46889   0.34360   0.21580   0.00000  Uiso   1.00
H171   H     0.68469   0.21580   0.44060   0.00000  Uiso   1.00
H172   H     0.53111   0.21580   0.34360   0.00000  Uiso   1.00
H173   H     0.31531   0.44060   0.21580   0.00000  Uiso   1.00
H174   H     0.87471   0.34360   0.44060   0.00000  Uiso   1.00
loop_
_geom_bond_atom_site_label_1
_geom_bond_atom_site_label_2
_geom_bond_distance
_geom_bond_site_symmetry_2
_ccdc_geom_bond_type
Cu1    Cu6     2.656   .     S
Cu1    O139    1.960   .     S
Cu1    O150    1.965   .     S
Cu1    O152    1.965   .     S
Cu1    O161    1.960   .     S
Cu2    O159    1.960   .     S
Cu2    Cu5     2.656   1_455 S
Cu2    O141    1.960   1_554 S
Cu2    O148    1.965   1_454 S
Cu2    O154    1.965   1_455 S
Cu3    O143    1.960   .     S
Cu3    Cu4     2.656   1_465 S
Cu3    O146    1.965   1_455 S
Cu3    O156    1.965   1_465 S
Cu3    O157    1.960   1_565 S
Cu4    O155    1.960   .     S
Cu4    Cu3     2.656   1_645 S
Cu4    O144    1.965   1_645 S
Cu4    O145    1.960   1_545 S
Cu4    O158    1.965   1_655 S
Cu5    O153    1.960   .     S
Cu5    Cu2     2.656   1_655 S
Cu5    O142    1.965   1_654 S
Cu5    O147    1.960   1_554 S
Cu5    O160    1.965   1_655 S
Cu6    O140    1.965   .     S
Cu6    O149    1.960   .     S
Cu6    O151    1.960   .     S
Cu6    O162    1.965   .     S
H7     C32     1.140   .     S
H8     C36     1.140   .     S
H9     C40     1.140   .     S
H10    C44     1.140   .     S
H11    C48     1.140   .     S
H12    C52     1.140   .     S
H13    C56     1.140   .     S
H14    C60     1.140   .     S
H15    C64     1.140   .     S
H16    C68     1.140   .     S
H17    C72     1.140   .     S
H18    C76     1.140   .     S
H19    C80     1.140   .     S
H20    C84     1.140   .     S
H21    C88     1.140   .     S
H22    C92     1.140   .     S
H23    C96     1.140   .     S
H24    C100    1.140   .     S
H25    C104    1.140   .     S
H26    C108    1.140   .     S
H27    C112    1.140   .     S
H28    C116    1.140   .     S
H29    C120    1.140   .     S
H30    C124    1.140   .     S
C31    C32     1.348   .     A
C31    C36     1.338   .     A
C31    C37     1.512   .     S
C32    C33     1.391   .     A
C33    C34     1.367   .     A
C33    C38     1.432   .     S
C34    C35     1.361   .     A
C34    C66     1.484   .     S
C35    C36     1.407   .     A
C35    H163    1.140   .     S
C37    O139    1.246   .     A
C37    O140    1.248   .     A
C38    N127    1.183   .     T
C39    C40     1.348   .     A
C39    C44     1.338   .     S
C39    C45     1.512   .     S
C40    C41     1.391   .     A
C41    C42     1.367   .     A
C41    C46     1.432   .     S
C42    C43     1.361   .     A
C42    C58     1.484   .     S
C43    C44     1.407   .     A
C43    H164    1.140   .     S
C45    O141    1.246   .     A
C45    O142    1.248   .     A
C46    N128    1.183   .     T
C47    C48     1.348   .     A
C47    C52     1.338   .     A
C47    C53     1.512   .     S
C48    C49     1.391   .     A
C49    C50     1.367   .     A
C49    C54     1.432   .     S
C50    C51     1.361   .     A
C50    C74     1.484   .     S
C51    C52     1.407   .     A
C51    H165    1.140   .     S
C53    O143    1.246   .     A
C53    O144    1.248   .     A
C54    N129    1.183   .     T
C55    C56     1.348   .     A
C55    C60     1.338   .     A
C55    C61     1.512   .     S
C56    C57     1.391   .     A
C57    C58     1.367   .     A
C57    C62     1.432   .     S
C58    C59     1.361   .     A
C59    C60     1.407   .     A
C59    H166    1.140   .     S
C61    O145    1.246   .     A
C61    O146    1.248   .     A
C62    N130    1.183   .     T
C63    C64     1.348   .     A
C63    C68     1.338   .     A
C63    C69     1.512   .     S
C64    C65     1.391   .     A
C65    C66     1.367   .     A
C65    C70     1.432   .     S
C66    C67     1.361   .     A
C67    C68     1.407   .     A
C67    H167    1.140   .     S
C69    O147    1.246   .     A
C69    O148    1.248   .     A
C70    N131    1.183   .     T
C71    C72     1.348   .     A
C71    C76     1.338   .     A
C71    C77     1.512   .     S
C72    C73     1.391   .     A
C73    C74     1.367   .     A
C73    C78     1.432   .     S
C74    C75     1.361   .     A
C75    C76     1.407   .     A
C75    H168    1.140   .     S
C77    O149    1.246   .     A
C77    O150    1.248   .     A
C78    N132    1.183   .     T
C79    C80     1.348   .     A
C79    C84     1.338   .     A
C79    C85     1.512   .     S
C80    C81     1.391   .     A
C81    C82     1.367   .     A
C81    C86     1.432   .     S
C82    C83     1.361   .     A
C82    C114    1.484   .     S
C83    C84     1.407   .     A
C83    H169    1.140   .     S
C85    O151    1.246   .     A
C85    O152    1.248   .     A
C86    N133    1.183   .     T
C87    C88     1.348   .     A
C87    C92     1.338   .     A
C87    C93     1.512   .     S
C88    C89     1.391   .     A
C89    C90     1.367   .     A
C89    C94     1.432   .     S
C90    C91     1.361   .     A
C90    C106    1.484   .     S
C91    C92     1.407   .     A
C91    H170    1.140   .     S
C93    O153    1.246   .     A
C93    O154    1.248   .     A
C94    N134    1.183   .     T
C95    C96     1.348   .     A
C95    C100    1.338   .     A
C95    C101    1.512   .     S
C96    C97     1.391   .     A
C97    C98     1.367   .     A
C97    C102    1.432   .     S
C98    C99     1.361   .     A
C98    C122    1.484   .     S
C99    C100    1.407   .     A
C99    H171    1.140   .     S
C101   O155    1.246   .     A
C101   O156    1.248   .     A
C102   N135    1.183   .     T
C103   C104    1.348   .     A
C103   C108    1.338   .     A
C103   C109    1.512   .     S
C104   C105    1.391   .     A
C105   C106    1.367   .     A
C105   C110    1.432   .     S
C106   C107    1.361   .     A
C107   C108    1.407   .     A
C107   H172    1.140   .     S
C109   O157    1.246   .     A
C109   O158    1.248   .     A
C110   N136    1.183   .     T
C111   C112    1.348   .     A
C111   C116    1.338   .     A
C111   C117    1.512   .     S
C112   C113    1.391   .     A
C113   C114    1.367   .     A
C113   C118    1.432   .     S
C114   C115    1.361   .     A
C115   C116    1.407   .     A
C115   H173    1.140   .     S
C117   O159    1.246   .     A
C117   O160    1.248   .     A
C118   N137    1.183   .     T
C119   C120    1.348   .     A
C119   C124    1.338   .     S
C119   C125    1.512   .     S
C120   C121    1.391   .     A
C121   C122    1.367   .     A
C121   C126    1.432   .     S
C122   C123    1.361   .     A
C123   C124    1.407   .     A
C123   H174    1.140   .     S
C125   O161    1.246   .     A
C125   O162    1.248   .     A
C126   N138    1.183   .     T
O141   Cu2     1.960   1_556 S
O142   Cu5     1.965   1_456 S
O144   Cu4     1.965   1_465 S
O145   Cu4     1.960   1_565 S
O146   Cu3     1.965   1_655 S
O147   Cu5     1.960   1_556 S
O148   Cu2     1.965   1_656 S
O154   Cu2     1.965   1_655 S
O156   Cu3     1.965   1_645 S
O157   Cu3     1.960   1_545 S
O158   Cu4     1.965   1_455 S
O160   Cu5     1.965   1_455 S
