data_image0
_cell_length_a       24.1636
_cell_length_b       17.671
_cell_length_c       10.1065
_cell_angle_alpha    90
_cell_angle_beta     113.969
_cell_angle_gamma    90

_symmetry_space_group_name_H-M    "P 1"
_symmetry_int_tables_number       1

loop_
  _symmetry_equiv_pos_as_xyz
  'x, y, z'

loop_
  _atom_site_label
  _atom_site_occupancy
  _atom_site_fract_x
  _atom_site_fract_y
  _atom_site_fract_z
  _atom_site_thermal_displace_type
  _atom_site_B_iso_or_equiv
  _atom_site_type_symbol
  Cu1      1.0000 0.27646  0.19298  0.96543  Biso   1.000  Cu
  O1       1.0000 0.21980  0.12900  0.00260  Biso   1.000  O
  O2       1.0000 0.17510  0.22590  0.06300  Biso   1.000  O
  O3       1.0000 0.21300  0.20950  0.76980  Biso   1.000  O
  O4       1.0000 0.16920  0.30680  0.83010  Biso   1.000  O
  C1       1.0000 0.17980  0.15650  0.03430  Biso   1.000  C
  C2       1.0000 0.12900  0.10810  0.03490  Biso   1.000  C
  C3       1.0000 0.13720  0.03670  0.09780  Biso   1.000  C
  C4       1.0000 0.08730  0.99380  0.08650  Biso   1.000  C
  H1       1.0000 0.09280  0.94550  0.12910  Biso   1.000  H
  C5       1.0000 0.02910  0.02230  0.01240  Biso   1.000  C
  C6       1.0000 0.02090  0.09370  0.94950  Biso   1.000  C
  H2       1.0000 0.98160  0.11290  0.89930  Biso   1.000  H
  C7       1.0000 0.07090  0.13660  0.96080  Biso   1.000  C
  H3       1.0000 0.06530  0.18490  0.91820  Biso   1.000  H
  C8       1.0000 0.20160  0.00530  0.18200  Biso   1.000  C
  H4       1.0000 0.23010  0.04690  0.21590  Biso   1.000  H
  H5       1.0000 0.21260  0.97290  0.11910  Biso   1.000  H
  H6       1.0000 0.20260  0.97620  0.26450  Biso   1.000  H
  C9       1.0000 0.17270  0.25790  0.74330  Biso   1.000  C
  C10      1.0000 0.12140  0.25770  0.59510  Biso   1.000  C
  C11      1.0000 0.06500  0.28440  0.57960  Biso   1.000  C
  C12      1.0000 0.01710  0.28550  0.44380  Biso   1.000  C
  H7       1.0000 0.97900  0.30350  0.43340  Biso   1.000  H
  C13      1.0000 0.02570  0.25980  0.32340  Biso   1.000  C
  C14      1.0000 0.08210  0.23310  0.33890  Biso   1.000  C
  H8       1.0000 0.08790  0.21580  0.25750  Biso   1.000  H
  C15      1.0000 0.12990  0.23200  0.47470  Biso   1.000  C
  C16      1.0000 0.04270  0.30940  0.69700  Biso   1.000  C
  H9       1.0000 0.00080  0.32590  0.65110  Biso   1.000  H
  H10      1.0000 0.06760  0.35090  0.75320  Biso   1.000  H
  H11      1.0000 0.04570  0.26720  0.76120  Biso   1.000  H
  C17      1.0000 0.18910  0.20000  0.47100  Biso   1.000  C
  H12      1.0000 0.19100  0.21330  0.38020  Biso   1.000  H
  H13      1.0000 0.18950  0.14540  0.48090  Biso   1.000  H
  H14      1.0000 0.22370  0.22130  0.55080  Biso   1.000  H
  Cu2      1.0000 0.77646  0.69298  0.96543  Biso   1.000  Cu
  O5       1.0000 0.71980  0.62900  0.00260  Biso   1.000  O
  O6       1.0000 0.67510  0.72590  0.06300  Biso   1.000  O
  O7       1.0000 0.71300  0.70950  0.76980  Biso   1.000  O
  O8       1.0000 0.66920  0.80680  0.83010  Biso   1.000  O
  C18      1.0000 0.67980  0.65650  0.03430  Biso   1.000  C
  C19      1.0000 0.62900  0.60810  0.03490  Biso   1.000  C
  C20      1.0000 0.63720  0.53670  0.09780  Biso   1.000  C
  C21      1.0000 0.58730  0.49380  0.08650  Biso   1.000  C
  H15      1.0000 0.59280  0.44550  0.12910  Biso   1.000  H
  C22      1.0000 0.52910  0.52230  0.01240  Biso   1.000  C
  C23      1.0000 0.52090  0.59370  0.94950  Biso   1.000  C
  H16      1.0000 0.48160  0.61290  0.89930  Biso   1.000  H
  C24      1.0000 0.57090  0.63660  0.96080  Biso   1.000  C
  H17      1.0000 0.56530  0.68490  0.91820  Biso   1.000  H
  C25      1.0000 0.70160  0.50530  0.18200  Biso   1.000  C
  H18      1.0000 0.73010  0.54690  0.21590  Biso   1.000  H
  H19      1.0000 0.71260  0.47290  0.11910  Biso   1.000  H
  H20      1.0000 0.70260  0.47620  0.26450  Biso   1.000  H
  C26      1.0000 0.67270  0.75790  0.74330  Biso   1.000  C
  C27      1.0000 0.62140  0.75770  0.59510  Biso   1.000  C
  C28      1.0000 0.56500  0.78440  0.57960  Biso   1.000  C
  C29      1.0000 0.51710  0.78550  0.44380  Biso   1.000  C
  H21      1.0000 0.47900  0.80350  0.43340  Biso   1.000  H
  C30      1.0000 0.52570  0.75980  0.32340  Biso   1.000  C
  C31      1.0000 0.58210  0.73310  0.33890  Biso   1.000  C
  H22      1.0000 0.58790  0.71580  0.25750  Biso   1.000  H
  C32      1.0000 0.62990  0.73200  0.47470  Biso   1.000  C
  C33      1.0000 0.54270  0.80940  0.69700  Biso   1.000  C
  H23      1.0000 0.50080  0.82590  0.65110  Biso   1.000  H
  H24      1.0000 0.56760  0.85090  0.75320  Biso   1.000  H
  H25      1.0000 0.54570  0.76720  0.76120  Biso   1.000  H
  C34      1.0000 0.68910  0.70000  0.47100  Biso   1.000  C
  H26      1.0000 0.69100  0.71330  0.38020  Biso   1.000  H
  H27      1.0000 0.68950  0.64540  0.48090  Biso   1.000  H
  H28      1.0000 0.72370  0.72130  0.55080  Biso   1.000  H
  Cu3      1.0000 0.72354  0.19298  0.53457  Biso   1.000  Cu
  O9       1.0000 0.78020  0.12900  0.49740  Biso   1.000  O
  O10      1.0000 0.82490  0.22590  0.43700  Biso   1.000  O
  O11      1.0000 0.78700  0.20950  0.73020  Biso   1.000  O
  O12      1.0000 0.83080  0.30680  0.66990  Biso   1.000  O
  C35      1.0000 0.82020  0.15650  0.46570  Biso   1.000  C
  C36      1.0000 0.87100  0.10810  0.46510  Biso   1.000  C
  C37      1.0000 0.86280  0.03670  0.40220  Biso   1.000  C
  C38      1.0000 0.91270  0.99380  0.41350  Biso   1.000  C
  H29      1.0000 0.90720  0.94550  0.37090  Biso   1.000  H
  C39      1.0000 0.97090  0.02230  0.48760  Biso   1.000  C
  C40      1.0000 0.97910  0.09370  0.55050  Biso   1.000  C
  H30      1.0000 0.01840  0.11290  0.60070  Biso   1.000  H
  C41      1.0000 0.92910  0.13660  0.53920  Biso   1.000  C
  H31      1.0000 0.93470  0.18490  0.58180  Biso   1.000  H
  C42      1.0000 0.79840  0.00530  0.31800  Biso   1.000  C
  H32      1.0000 0.76990  0.04690  0.28410  Biso   1.000  H
  H33      1.0000 0.78740  0.97290  0.38090  Biso   1.000  H
  H34      1.0000 0.79740  0.97620  0.23550  Biso   1.000  H
  C43      1.0000 0.82730  0.25790  0.75670  Biso   1.000  C
  C44      1.0000 0.87860  0.25770  0.90490  Biso   1.000  C
  C45      1.0000 0.93500  0.28440  0.92040  Biso   1.000  C
  C46      1.0000 0.98290  0.28550  0.05620  Biso   1.000  C
  H35      1.0000 0.02100  0.30350  0.06660  Biso   1.000  H
  C47      1.0000 0.97430  0.25980  0.17660  Biso   1.000  C
  C48      1.0000 0.91790  0.23310  0.16110  Biso   1.000  C
  H36      1.0000 0.91210  0.21580  0.24250  Biso   1.000  H
  C49      1.0000 0.87010  0.23200  0.02530  Biso   1.000  C
  C50      1.0000 0.95730  0.30940  0.80300  Biso   1.000  C
  H37      1.0000 0.99920  0.32590  0.84890  Biso   1.000  H
  H38      1.0000 0.93240  0.35090  0.74680  Biso   1.000  H
  H39      1.0000 0.95430  0.26720  0.73880  Biso   1.000  H
  C51      1.0000 0.81090  0.20000  0.02900  Biso   1.000  C
  H40      1.0000 0.80900  0.21330  0.11980  Biso   1.000  H
  H41      1.0000 0.81050  0.14540  0.01910  Biso   1.000  H
  H42      1.0000 0.77630  0.22130  0.94920  Biso   1.000  H
  Cu4      1.0000 0.22354  0.69298  0.53457  Biso   1.000  Cu
  O13      1.0000 0.28020  0.62900  0.49740  Biso   1.000  O
  O14      1.0000 0.32490  0.72590  0.43700  Biso   1.000  O
  O15      1.0000 0.28700  0.70950  0.73020  Biso   1.000  O
  O16      1.0000 0.33080  0.80680  0.66990  Biso   1.000  O
  C52      1.0000 0.32020  0.65650  0.46570  Biso   1.000  C
  C53      1.0000 0.37100  0.60810  0.46510  Biso   1.000  C
  C54      1.0000 0.36280  0.53670  0.40220  Biso   1.000  C
  C55      1.0000 0.41270  0.49380  0.41350  Biso   1.000  C
  H43      1.0000 0.40720  0.44550  0.37090  Biso   1.000  H
  C56      1.0000 0.47090  0.52230  0.48760  Biso   1.000  C
  C57      1.0000 0.47910  0.59370  0.55050  Biso   1.000  C
  H44      1.0000 0.51840  0.61290  0.60070  Biso   1.000  H
  C58      1.0000 0.42910  0.63660  0.53920  Biso   1.000  C
  H45      1.0000 0.43470  0.68490  0.58180  Biso   1.000  H
  C59      1.0000 0.29840  0.50530  0.31800  Biso   1.000  C
  H46      1.0000 0.26990  0.54690  0.28410  Biso   1.000  H
  H47      1.0000 0.28740  0.47290  0.38090  Biso   1.000  H
  H48      1.0000 0.29740  0.47620  0.23550  Biso   1.000  H
  C60      1.0000 0.32730  0.75790  0.75670  Biso   1.000  C
  C61      1.0000 0.37860  0.75770  0.90490  Biso   1.000  C
  C62      1.0000 0.43500  0.78440  0.92040  Biso   1.000  C
  C63      1.0000 0.48290  0.78550  0.05620  Biso   1.000  C
  H49      1.0000 0.52100  0.80350  0.06660  Biso   1.000  H
  C64      1.0000 0.47430  0.75980  0.17660  Biso   1.000  C
  C65      1.0000 0.41790  0.73310  0.16110  Biso   1.000  C
  H50      1.0000 0.41210  0.71580  0.24250  Biso   1.000  H
  C66      1.0000 0.37010  0.73200  0.02530  Biso   1.000  C
  C67      1.0000 0.45730  0.80940  0.80300  Biso   1.000  C
  H51      1.0000 0.49920  0.82590  0.84890  Biso   1.000  H
  H52      1.0000 0.43240  0.85090  0.74680  Biso   1.000  H
  H53      1.0000 0.45430  0.76720  0.73880  Biso   1.000  H
  C68      1.0000 0.31090  0.70000  0.02900  Biso   1.000  C
  H54      1.0000 0.30900  0.71330  0.11980  Biso   1.000  H
  H55      1.0000 0.31050  0.64540  0.01910  Biso   1.000  H
  H56      1.0000 0.27630  0.72130  0.94920  Biso   1.000  H
  Cu5      1.0000 0.72354  0.80702  0.03457  Biso   1.000  Cu
  O17      1.0000 0.78020  0.87100  0.99740  Biso   1.000  O
  O18      1.0000 0.82490  0.77410  0.93700  Biso   1.000  O
  O19      1.0000 0.78700  0.79050  0.23020  Biso   1.000  O
  O20      1.0000 0.83080  0.69320  0.16990  Biso   1.000  O
  C69      1.0000 0.82020  0.84350  0.96570  Biso   1.000  C
  C70      1.0000 0.87100  0.89190  0.96510  Biso   1.000  C
  C71      1.0000 0.86280  0.96330  0.90220  Biso   1.000  C
  C72      1.0000 0.91270  0.00620  0.91350  Biso   1.000  C
  H57      1.0000 0.90720  0.05450  0.87090  Biso   1.000  H
  C73      1.0000 0.97090  0.97770  0.98760  Biso   1.000  C
  C74      1.0000 0.97910  0.90630  0.05050  Biso   1.000  C
  H58      1.0000 0.01840  0.88710  0.10070  Biso   1.000  H
  C75      1.0000 0.92910  0.86340  0.03920  Biso   1.000  C
  H59      1.0000 0.93470  0.81510  0.08180  Biso   1.000  H
  C76      1.0000 0.79840  0.99470  0.81800  Biso   1.000  C
  H60      1.0000 0.76990  0.95310  0.78410  Biso   1.000  H
  H61      1.0000 0.78740  0.02710  0.88090  Biso   1.000  H
  H62      1.0000 0.79740  0.02380  0.73550  Biso   1.000  H
  C77      1.0000 0.82730  0.74210  0.25670  Biso   1.000  C
  C78      1.0000 0.87860  0.74230  0.40490  Biso   1.000  C
  C79      1.0000 0.93500  0.71560  0.42040  Biso   1.000  C
  C80      1.0000 0.98290  0.71450  0.55620  Biso   1.000  C
  H63      1.0000 0.02100  0.69650  0.56660  Biso   1.000  H
  C81      1.0000 0.97430  0.74020  0.67660  Biso   1.000  C
  C82      1.0000 0.91790  0.76690  0.66110  Biso   1.000  C
  H64      1.0000 0.91210  0.78420  0.74250  Biso   1.000  H
  C83      1.0000 0.87010  0.76800  0.52530  Biso   1.000  C
  C84      1.0000 0.95730  0.69060  0.30300  Biso   1.000  C
  H65      1.0000 0.99920  0.67410  0.34890  Biso   1.000  H
  H66      1.0000 0.93240  0.64910  0.24680  Biso   1.000  H
  H67      1.0000 0.95430  0.73280  0.23880  Biso   1.000  H
  C85      1.0000 0.81090  0.80000  0.52900  Biso   1.000  C
  H68      1.0000 0.80900  0.78670  0.61980  Biso   1.000  H
  H69      1.0000 0.81050  0.85460  0.51910  Biso   1.000  H
  H70      1.0000 0.77630  0.77870  0.44920  Biso   1.000  H
  Cu6      1.0000 0.22354  0.30702  0.03457  Biso   1.000  Cu
  O21      1.0000 0.28020  0.37100  0.99740  Biso   1.000  O
  O22      1.0000 0.32490  0.27410  0.93700  Biso   1.000  O
  O23      1.0000 0.28700  0.29050  0.23020  Biso   1.000  O
  O24      1.0000 0.33080  0.19320  0.16990  Biso   1.000  O
  C86      1.0000 0.32020  0.34350  0.96570  Biso   1.000  C
  C87      1.0000 0.37100  0.39190  0.96510  Biso   1.000  C
  C88      1.0000 0.36280  0.46330  0.90220  Biso   1.000  C
  C89      1.0000 0.41270  0.50620  0.91350  Biso   1.000  C
  H71      1.0000 0.40720  0.55450  0.87090  Biso   1.000  H
  C90      1.0000 0.47090  0.47770  0.98760  Biso   1.000  C
  C91      1.0000 0.47910  0.40630  0.05050  Biso   1.000  C
  H72      1.0000 0.51840  0.38710  0.10070  Biso   1.000  H
  C92      1.0000 0.42910  0.36340  0.03920  Biso   1.000  C
  H73      1.0000 0.43470  0.31510  0.08180  Biso   1.000  H
  C93      1.0000 0.29840  0.49470  0.81800  Biso   1.000  C
  H74      1.0000 0.26990  0.45310  0.78410  Biso   1.000  H
  H75      1.0000 0.28740  0.52710  0.88090  Biso   1.000  H
  H76      1.0000 0.29740  0.52380  0.73550  Biso   1.000  H
  C94      1.0000 0.32730  0.24210  0.25670  Biso   1.000  C
  C95      1.0000 0.37860  0.24230  0.40490  Biso   1.000  C
  C96      1.0000 0.43500  0.21560  0.42040  Biso   1.000  C
  C97      1.0000 0.48290  0.21450  0.55620  Biso   1.000  C
  H77      1.0000 0.52100  0.19650  0.56660  Biso   1.000  H
  C98      1.0000 0.47430  0.24020  0.67660  Biso   1.000  C
  C99      1.0000 0.41790  0.26690  0.66110  Biso   1.000  C
  H78      1.0000 0.41210  0.28420  0.74250  Biso   1.000  H
  C100     1.0000 0.37010  0.26800  0.52530  Biso   1.000  C
  C101     1.0000 0.45730  0.19060  0.30300  Biso   1.000  C
  H79      1.0000 0.49920  0.17410  0.34890  Biso   1.000  H
  H80      1.0000 0.43240  0.14910  0.24680  Biso   1.000  H
  H81      1.0000 0.45430  0.23280  0.23880  Biso   1.000  H
  C102     1.0000 0.31090  0.30000  0.52900  Biso   1.000  C
  H82      1.0000 0.30900  0.28670  0.61980  Biso   1.000  H
  H83      1.0000 0.31050  0.35460  0.51910  Biso   1.000  H
  H84      1.0000 0.27630  0.27870  0.44920  Biso   1.000  H
  Cu7      1.0000 0.27646  0.80702  0.46543  Biso   1.000  Cu
  O25      1.0000 0.21980  0.87100  0.50260  Biso   1.000  O
  O26      1.0000 0.17510  0.77410  0.56300  Biso   1.000  O
  O27      1.0000 0.21300  0.79050  0.26980  Biso   1.000  O
  O28      1.0000 0.16920  0.69320  0.33010  Biso   1.000  O
  C103     1.0000 0.17980  0.84350  0.53430  Biso   1.000  C
  C104     1.0000 0.12900  0.89190  0.53490  Biso   1.000  C
  C105     1.0000 0.13720  0.96330  0.59780  Biso   1.000  C
  C106     1.0000 0.08730  0.00620  0.58650  Biso   1.000  C
  H85      1.0000 0.09280  0.05450  0.62910  Biso   1.000  H
  C107     1.0000 0.02910  0.97770  0.51240  Biso   1.000  C
  C108     1.0000 0.02090  0.90630  0.44950  Biso   1.000  C
  H86      1.0000 0.98160  0.88710  0.39930  Biso   1.000  H
  C109     1.0000 0.07090  0.86340  0.46080  Biso   1.000  C
  H87      1.0000 0.06530  0.81510  0.41820  Biso   1.000  H
  C110     1.0000 0.20160  0.99470  0.68200  Biso   1.000  C
  H88      1.0000 0.23010  0.95310  0.71590  Biso   1.000  H
  H89      1.0000 0.21260  0.02710  0.61910  Biso   1.000  H
  H90      1.0000 0.20260  0.02380  0.76450  Biso   1.000  H
  C111     1.0000 0.17270  0.74210  0.24330  Biso   1.000  C
  C112     1.0000 0.12140  0.74230  0.09510  Biso   1.000  C
  C113     1.0000 0.06500  0.71560  0.07960  Biso   1.000  C
  C114     1.0000 0.01710  0.71450  0.94380  Biso   1.000  C
  H91      1.0000 0.97900  0.69650  0.93340  Biso   1.000  H
  C115     1.0000 0.02570  0.74020  0.82340  Biso   1.000  C
  C116     1.0000 0.08210  0.76690  0.83890  Biso   1.000  C
  H92      1.0000 0.08790  0.78420  0.75750  Biso   1.000  H
  C117     1.0000 0.12990  0.76800  0.97470  Biso   1.000  C
  C118     1.0000 0.04270  0.69060  0.19700  Biso   1.000  C
  H93      1.0000 0.00080  0.67410  0.15110  Biso   1.000  H
  H94      1.0000 0.06760  0.64910  0.25320  Biso   1.000  H
  H95      1.0000 0.04570  0.73280  0.26120  Biso   1.000  H
  C119     1.0000 0.18910  0.80000  0.97100  Biso   1.000  C
  H96      1.0000 0.19100  0.78670  0.88020  Biso   1.000  H
  H97      1.0000 0.18950  0.85460  0.98090  Biso   1.000  H
  H98      1.0000 0.22370  0.77870  0.05080  Biso   1.000  H
  Cu8      1.0000 0.77646  0.30702  0.46543  Biso   1.000  Cu
  O29      1.0000 0.71980  0.37100  0.50260  Biso   1.000  O
  O30      1.0000 0.67510  0.27410  0.56300  Biso   1.000  O
  O31      1.0000 0.71300  0.29050  0.26980  Biso   1.000  O
  O32      1.0000 0.66920  0.19320  0.33010  Biso   1.000  O
  C120     1.0000 0.67980  0.34350  0.53430  Biso   1.000  C
  C121     1.0000 0.62900  0.39190  0.53490  Biso   1.000  C
  C122     1.0000 0.63720  0.46330  0.59780  Biso   1.000  C
  C123     1.0000 0.58730  0.50620  0.58650  Biso   1.000  C
  H99      1.0000 0.59280  0.55450  0.62910  Biso   1.000  H
  C124     1.0000 0.52910  0.47770  0.51240  Biso   1.000  C
  C125     1.0000 0.52090  0.40630  0.44950  Biso   1.000  C
  H100     1.0000 0.48160  0.38710  0.39930  Biso   1.000  H
  C126     1.0000 0.57090  0.36340  0.46080  Biso   1.000  C
  H101     1.0000 0.56530  0.31510  0.41820  Biso   1.000  H
  C127     1.0000 0.70160  0.49470  0.68200  Biso   1.000  C
  H102     1.0000 0.73010  0.45310  0.71590  Biso   1.000  H
  H103     1.0000 0.71260  0.52710  0.61910  Biso   1.000  H
  H104     1.0000 0.70260  0.52380  0.76450  Biso   1.000  H
  C128     1.0000 0.67270  0.24210  0.24330  Biso   1.000  C
  C129     1.0000 0.62140  0.24230  0.09510  Biso   1.000  C
  C130     1.0000 0.56500  0.21560  0.07960  Biso   1.000  C
  C131     1.0000 0.51710  0.21450  0.94380  Biso   1.000  C
  H105     1.0000 0.47900  0.19650  0.93340  Biso   1.000  H
  C132     1.0000 0.52570  0.24020  0.82340  Biso   1.000  C
  C133     1.0000 0.58210  0.26690  0.83890  Biso   1.000  C
  H106     1.0000 0.58790  0.28420  0.75750  Biso   1.000  H
  C134     1.0000 0.62990  0.26800  0.97470  Biso   1.000  C
  C135     1.0000 0.54270  0.19060  0.19700  Biso   1.000  C
  H107     1.0000 0.50080  0.17410  0.15110  Biso   1.000  H
  H108     1.0000 0.56760  0.14910  0.25320  Biso   1.000  H
  H109     1.0000 0.54570  0.23280  0.26120  Biso   1.000  H
  C136     1.0000 0.68910  0.30000  0.97100  Biso   1.000  C
  H110     1.0000 0.69100  0.28670  0.88020  Biso   1.000  H
  H111     1.0000 0.68950  0.35460  0.98090  Biso   1.000  H
  H112     1.0000 0.72370  0.27870  0.05080  Biso   1.000  H
