data_KOJZIT_clean
_audit_creation_date              2014-07-02
_audit_creation_method            'Materials Studio'
_symmetry_space_group_name_H-M    'P1'
_symmetry_Int_Tables_number       1
_symmetry_cell_setting            triclinic
loop_
_symmetry_equiv_pos_as_xyz
  x,y,z
_cell_length_a                    10.4693
_cell_length_b                    26.9783
_cell_length_c                    26.9783
_cell_angle_alpha                 61.6471
_cell_angle_beta                  82.5677
_cell_angle_gamma                 97.4323
loop_
_atom_site_label
_atom_site_type_symbol
_atom_site_fract_x
_atom_site_fract_y
_atom_site_fract_z
_atom_site_U_iso_or_equiv
_atom_site_adp_type
_atom_site_occupancy
Cu1    Cu    0.42073   1.00000   0.46571   0.01267  Uiso   1.00
Cu2    Cu    0.88644   0.46571   0.53429   0.01267  Uiso   1.00
Cu3    Cu    0.42073   0.53429   0.00000   0.01267  Uiso   1.00
Cu4    Cu    0.11356   0.53429   0.46571   0.01267  Uiso   1.00
Cu5    Cu    0.57927   0.00000   0.53429   0.01267  Uiso   1.00
Cu6    Cu    0.57927   0.46571   0.00000   0.01267  Uiso   1.00
H1     H     0.44750   0.12590   0.57310   0.01267  Uiso   1.00
H2     H     0.25710   0.14320   0.45000   0.01267  Uiso   1.00
H3     H     0.34030   0.23550   0.59390   0.01267  Uiso   1.00
H4     H     0.47020   0.21240   0.59360   0.01267  Uiso   1.00
H5     H     0.33720   0.17000   0.63490   0.01267  Uiso   1.00
H6     H     0.02060   0.57310   0.30100   0.01267  Uiso   1.00
H7     H     0.70710   0.45000   0.40680   0.01267  Uiso   1.00
H8     H     0.93420   0.59390   0.17060   0.01267  Uiso   1.00
H9     H     0.06380   0.59360   0.19400   0.01267  Uiso   1.00
H10    H     0.97210   0.63490   0.19510   0.01267  Uiso   1.00
H11    H     0.32160   0.30100   0.12590   0.01267  Uiso   1.00
H12    H     0.11390   0.40680   0.14320   0.01267  Uiso   1.00
H13    H     0.10480   0.17060   0.23550   0.01267  Uiso   1.00
H14    H     0.25780   0.19400   0.21240   0.01267  Uiso   1.00
H15    H     0.16720   0.19510   0.17000   0.01267  Uiso   1.00
H16    H     0.97940   0.30100   0.57310   0.01267  Uiso   1.00
H17    H     0.29290   0.40680   0.45000   0.01267  Uiso   1.00
H18    H     0.06580   0.17060   0.59390   0.01267  Uiso   1.00
H19    H     0.93620   0.19400   0.59360   0.01267  Uiso   1.00
H20    H     0.02790   0.19510   0.63490   0.01267  Uiso   1.00
H21    H     0.67840   0.12590   0.30100   0.01267  Uiso   1.00
H22    H     0.88610   0.14320   0.40680   0.01267  Uiso   1.00
H23    H     0.89520   0.23550   0.17060   0.01267  Uiso   1.00
H24    H     0.74220   0.21240   0.19400   0.01267  Uiso   1.00
H25    H     0.83280   0.17000   0.19510   0.01267  Uiso   1.00
H26    H     0.55250   0.57310   0.12590   0.01267  Uiso   1.00
H27    H     0.74290   0.45000   0.14320   0.01267  Uiso   1.00
H28    H     0.65970   0.59390   0.23550   0.01267  Uiso   1.00
H29    H     0.52980   0.59360   0.21240   0.01267  Uiso   1.00
H30    H     0.66280   0.63490   0.17000   0.01267  Uiso   1.00
H31    H     0.55250   0.87410   0.42690   0.01267  Uiso   1.00
H32    H     0.74290   0.85680   0.55000   0.01267  Uiso   1.00
H33    H     0.65970   0.76450   0.40610   0.01267  Uiso   1.00
H34    H     0.52980   0.78760   0.40640   0.01267  Uiso   1.00
H35    H     0.66280   0.83000   0.36510   0.01267  Uiso   1.00
H36    H     0.97940   0.42690   0.69900   0.01267  Uiso   1.00
H37    H     0.29290   0.55000   0.59320   0.01267  Uiso   1.00
H38    H     0.06580   0.40610   0.82940   0.01267  Uiso   1.00
H39    H     0.93620   0.40640   0.80600   0.01267  Uiso   1.00
H40    H     0.02790   0.36510   0.80490   0.01267  Uiso   1.00
H41    H     0.67840   0.69900   0.87410   0.01267  Uiso   1.00
H42    H     0.88610   0.59320   0.85680   0.01267  Uiso   1.00
H43    H     0.89520   0.82940   0.76450   0.01267  Uiso   1.00
H44    H     0.74220   0.80600   0.78760   0.01267  Uiso   1.00
H45    H     0.83280   0.80490   0.83000   0.01267  Uiso   1.00
H46    H     0.02060   0.69900   0.42690   0.01267  Uiso   1.00
H47    H     0.70710   0.59320   0.55000   0.01267  Uiso   1.00
H48    H     0.93420   0.82940   0.40610   0.01267  Uiso   1.00
H49    H     0.06380   0.80600   0.40640   0.01267  Uiso   1.00
H50    H     0.97210   0.80490   0.36510   0.01267  Uiso   1.00
H51    H     0.32160   0.87410   0.69900   0.01267  Uiso   1.00
H52    H     0.11390   0.85680   0.59320   0.01267  Uiso   1.00
H53    H     0.10480   0.76450   0.82940   0.01267  Uiso   1.00
H54    H     0.25780   0.78760   0.80600   0.01267  Uiso   1.00
H55    H     0.16720   0.83000   0.80490   0.01267  Uiso   1.00
H56    H     0.44750   0.42690   0.87410   0.01267  Uiso   1.00
H57    H     0.25710   0.55000   0.85680   0.01267  Uiso   1.00
H58    H     0.34030   0.40610   0.76450   0.01267  Uiso   1.00
H59    H     0.47020   0.40640   0.78760   0.01267  Uiso   1.00
H60    H     0.33720   0.36510   0.83000   0.01267  Uiso   1.00
C1     C     0.35843   0.12638   0.51169   0.01267  Uiso   1.00
C2     C     0.39285   0.14441   0.54886   0.01267  Uiso   1.00
C3     C     0.34734   0.19032   0.55130   0.01267  Uiso   1.00
C4     C     0.26691   0.21741   0.51488   0.01267  Uiso   1.00
C5     C     0.22952   0.19910   0.47764   0.01267  Uiso   1.00
C6     C     0.27883   0.15443   0.47614   0.01267  Uiso   1.00
C7     C     0.41020   0.07786   0.50946   0.01267  Uiso   1.00
C8     C     0.37641   0.20323   0.59760   0.01267  Uiso   1.00
C9     C     0.87012   0.51169   0.36193   0.01267  Uiso   1.00
C10    C     0.94171   0.54886   0.30673   0.01267  Uiso   1.00
C11    C     0.89864   0.55130   0.25838   0.01267  Uiso   1.00
C12    C     0.78179   0.51488   0.26771   0.01267  Uiso   1.00
C13    C     0.70716   0.47764   0.32326   0.01267  Uiso   1.00
C14    C     0.75497   0.47614   0.36943   0.01267  Uiso   1.00
C15    C     0.91966   0.50946   0.41268   0.01267  Uiso   1.00
C16    C     0.97401   0.59760   0.19917   0.01267  Uiso   1.00
C17    C     0.23205   0.36193   0.12638   0.01267  Uiso   1.00
C18    C     0.24844   0.30673   0.14441   0.01267  Uiso   1.00
C19    C     0.15702   0.25838   0.19032   0.01267  Uiso   1.00
C20    C     0.04950   0.26771   0.21741   0.01267  Uiso   1.00
C21    C     0.03042   0.32326   0.19910   0.01267  Uiso   1.00
C22    C     0.12440   0.36943   0.15443   0.01267  Uiso   1.00
C23    C     0.33234   0.41268   0.07786   0.01267  Uiso   1.00
C24    C     0.17318   0.19917   0.20323   0.01267  Uiso   1.00
C25    C     0.12988   0.36193   0.51169   0.01267  Uiso   1.00
C26    C     0.05829   0.30673   0.54886   0.01267  Uiso   1.00
C27    C     0.10136   0.25838   0.55130   0.01267  Uiso   1.00
C28    C     0.21821   0.26771   0.51488   0.01267  Uiso   1.00
C29    C     0.29284   0.32326   0.47764   0.01267  Uiso   1.00
C30    C     0.24503   0.36943   0.47614   0.01267  Uiso   1.00
C31    C     0.08034   0.41268   0.50946   0.01267  Uiso   1.00
C32    C     0.02599   0.19917   0.59760   0.01267  Uiso   1.00
C33    C     0.76795   0.12638   0.36193   0.01267  Uiso   1.00
C34    C     0.75156   0.14441   0.30673   0.01267  Uiso   1.00
C35    C     0.84298   0.19032   0.25838   0.01267  Uiso   1.00
C36    C     0.95050   0.21741   0.26771   0.01267  Uiso   1.00
C37    C     0.96958   0.19910   0.32326   0.01267  Uiso   1.00
C38    C     0.87560   0.15443   0.36943   0.01267  Uiso   1.00
C39    C     0.66766   0.07786   0.41268   0.01267  Uiso   1.00
C40    C     0.82682   0.20323   0.19917   0.01267  Uiso   1.00
C41    C     0.64157   0.51169   0.12638   0.01267  Uiso   1.00
C42    C     0.60715   0.54886   0.14441   0.01267  Uiso   1.00
C43    C     0.65266   0.55130   0.19032   0.01267  Uiso   1.00
C44    C     0.73309   0.51488   0.21741   0.01267  Uiso   1.00
C45    C     0.77048   0.47764   0.19910   0.01267  Uiso   1.00
C46    C     0.72117   0.47614   0.15443   0.01267  Uiso   1.00
C47    C     0.58980   0.50946   0.07786   0.01267  Uiso   1.00
C48    C     0.62359   0.59760   0.20323   0.01267  Uiso   1.00
C49    C     0.64157   0.87362   0.48831   0.01267  Uiso   1.00
C50    C     0.60715   0.85559   0.45114   0.01267  Uiso   1.00
C51    C     0.65266   0.80968   0.44870   0.01267  Uiso   1.00
C52    C     0.73309   0.78259   0.48512   0.01267  Uiso   1.00
C53    C     0.77048   0.80090   0.52236   0.01267  Uiso   1.00
C54    C     0.72117   0.84557   0.52386   0.01267  Uiso   1.00
C55    C     0.58980   0.92214   0.49054   0.01267  Uiso   1.00
C56    C     0.62359   0.79677   0.40240   0.01267  Uiso   1.00
C57    C     0.12988   0.48831   0.63807   0.01267  Uiso   1.00
C58    C     0.05829   0.45114   0.69327   0.01267  Uiso   1.00
C59    C     0.10136   0.44870   0.74162   0.01267  Uiso   1.00
C60    C     0.21821   0.48512   0.73229   0.01267  Uiso   1.00
C61    C     0.29284   0.52236   0.67674   0.01267  Uiso   1.00
C62    C     0.24503   0.52386   0.63057   0.01267  Uiso   1.00
C63    C     0.08034   0.49054   0.58732   0.01267  Uiso   1.00
C64    C     0.02599   0.40240   0.80083   0.01267  Uiso   1.00
C65    C     0.76795   0.63807   0.87362   0.01267  Uiso   1.00
C66    C     0.75156   0.69327   0.85559   0.01267  Uiso   1.00
C67    C     0.84298   0.74162   0.80968   0.01267  Uiso   1.00
C68    C     0.95050   0.73229   0.78259   0.01267  Uiso   1.00
C69    C     0.96958   0.67674   0.80090   0.01267  Uiso   1.00
C70    C     0.87560   0.63057   0.84557   0.01267  Uiso   1.00
C71    C     0.66766   0.58732   0.92214   0.01267  Uiso   1.00
C72    C     0.82682   0.80083   0.79677   0.01267  Uiso   1.00
C73    C     0.87012   0.63807   0.48831   0.01267  Uiso   1.00
C74    C     0.94171   0.69327   0.45114   0.01267  Uiso   1.00
C75    C     0.89864   0.74162   0.44870   0.01267  Uiso   1.00
C76    C     0.78179   0.73229   0.48512   0.01267  Uiso   1.00
C77    C     0.70716   0.67674   0.52236   0.01267  Uiso   1.00
C78    C     0.75497   0.63057   0.52386   0.01267  Uiso   1.00
C79    C     0.91966   0.58732   0.49054   0.01267  Uiso   1.00
C80    C     0.97401   0.80083   0.40240   0.01267  Uiso   1.00
C81    C     0.23205   0.87362   0.63807   0.01267  Uiso   1.00
C82    C     0.24844   0.85559   0.69327   0.01267  Uiso   1.00
C83    C     0.15702   0.80968   0.74162   0.01267  Uiso   1.00
C84    C     0.04950   0.78259   0.73229   0.01267  Uiso   1.00
C85    C     0.03042   0.80090   0.67674   0.01267  Uiso   1.00
C86    C     0.12440   0.84557   0.63057   0.01267  Uiso   1.00
C87    C     0.33234   0.92214   0.58732   0.01267  Uiso   1.00
C88    C     0.17318   0.79677   0.80083   0.01267  Uiso   1.00
C89    C     0.35843   0.48831   0.87362   0.01267  Uiso   1.00
C90    C     0.39285   0.45114   0.85559   0.01267  Uiso   1.00
C91    C     0.34734   0.44870   0.80968   0.01267  Uiso   1.00
C92    C     0.26691   0.48512   0.78259   0.01267  Uiso   1.00
C93    C     0.22952   0.52236   0.80090   0.01267  Uiso   1.00
C94    C     0.27883   0.52386   0.84557   0.01267  Uiso   1.00
C95    C     0.41020   0.49054   0.92214   0.01267  Uiso   1.00
C96    C     0.37641   0.40240   0.79677   0.01267  Uiso   1.00
O1     O     0.36297   0.06001   0.47880   0.01267  Uiso   1.00
O2     O     0.49671   0.05936   0.53770   0.01267  Uiso   1.00
O3     O     0.84177   0.47880   0.46119   0.01267  Uiso   1.00
O4     O     0.03441   0.53770   0.40294   0.01267  Uiso   1.00
O5     O     0.30296   0.46119   0.06001   0.01267  Uiso   1.00
O6     O     0.43735   0.40294   0.05936   0.01267  Uiso   1.00
O7     O     0.15823   0.46119   0.47880   0.01267  Uiso   1.00
O8     O     0.96559   0.40294   0.53770   0.01267  Uiso   1.00
O9     O     0.69704   0.06001   0.46119   0.01267  Uiso   1.00
O10    O     0.56265   0.05936   0.40294   0.01267  Uiso   1.00
O11    O     0.63703   0.47880   0.06001   0.01267  Uiso   1.00
O12    O     0.50329   0.53770   0.05936   0.01267  Uiso   1.00
O13    O     0.63703   0.93999   0.52120   0.01267  Uiso   1.00
O14    O     0.50329   0.94064   0.46230   0.01267  Uiso   1.00
O15    O     0.15823   0.52120   0.53881   0.01267  Uiso   1.00
O16    O     0.96559   0.46230   0.59706   0.01267  Uiso   1.00
O17    O     0.69704   0.53881   0.93999   0.01267  Uiso   1.00
O18    O     0.56265   0.59706   0.94064   0.01267  Uiso   1.00
O19    O     0.84177   0.53881   0.52120   0.01267  Uiso   1.00
O20    O     0.03441   0.59706   0.46230   0.01267  Uiso   1.00
O21    O     0.30296   0.93999   0.53881   0.01267  Uiso   1.00
O22    O     0.43735   0.94064   0.59706   0.01267  Uiso   1.00
O23    O     0.36297   0.52120   0.93999   0.01267  Uiso   1.00
O24    O     0.49671   0.46230   0.94064   0.01267  Uiso   1.00
