data_image0
_cell_length_a       14.329
_cell_length_b       14.329
_cell_length_c       44.554
_cell_angle_alpha    90
_cell_angle_beta     90
_cell_angle_gamma    90

_symmetry_space_group_name_H-M    "P 1"
_symmetry_int_tables_number       1

loop_
  _symmetry_equiv_pos_as_xyz
  'x, y, z'

loop_
  _atom_site_label
  _atom_site_occupancy
  _atom_site_fract_x
  _atom_site_fract_y
  _atom_site_fract_z
  _atom_site_thermal_displace_type
  _atom_site_B_iso_or_equiv
  _atom_site_type_symbol
  N1       1.0000 0.43093  0.32087  0.55079  Biso   1.000  N
  N2       1.0000 0.38603  0.44426  0.52370  Biso   1.000  N
  N3       1.0000 0.35463  0.36349  0.51098  Biso   1.000  N
  N4       1.0000 0.14068  0.37139  0.40482  Biso   1.000  N
  N5       1.0000 0.11380  0.45179  0.39113  Biso   1.000  N
  N6       1.0000 0.06473  0.32718  0.36528  Biso   1.000  N
  C1       1.0000 0.43070  0.41489  0.54756  Biso   1.000  C
  H1       1.0000 0.46030  0.45590  0.56140  Biso   1.000  H
  C2       1.0000 0.38188  0.29107  0.52731  Biso   1.000  C
  H2       1.0000 0.36840  0.22760  0.52290  Biso   1.000  H
  C3       1.0000 0.29987  0.36550  0.48377  Biso   1.000  C
  C4       1.0000 0.34715  0.36739  0.45646  Biso   1.000  C
  C5       1.0000 0.44595  0.36514  0.45384  Biso   1.000  C
  H3       1.0000 0.48320  0.36100  0.47140  Biso   1.000  H
  C6       1.0000 0.48805  0.36886  0.42635  Biso   1.000  C
  H4       1.0000 0.55410  0.36560  0.42490  Biso   1.000  H
  C7       1.0000 0.43370  0.37753  0.40009  Biso   1.000  C
  H5       1.0000 0.46390  0.38300  0.38120  Biso   1.000  H
  C8       1.0000 0.33947  0.37815  0.40127  Biso   1.000  C
  H6       1.0000 0.30450  0.38270  0.38320  Biso   1.000  H
  C9       1.0000 0.29165  0.37209  0.42949  Biso   1.000  C
  C10      1.0000 0.19494  0.37160  0.43212  Biso   1.000  C
  C11      1.0000 0.14802  0.37083  0.45951  Biso   1.000  C
  C12      1.0000 0.04860  0.37500  0.46197  Biso   1.000  C
  H7       1.0000 0.01130  0.37590  0.44430  Biso   1.000  H
  C13      1.0000 0.00740  0.37740  0.48925  Biso   1.000  C
  H8       1.0000 0.94130  0.38000  0.49060  Biso   1.000  H
  C14      1.0000 0.06160  0.37630  0.51590  Biso   1.000  C
  H9       1.0000 0.03120  0.37900  0.53480  Biso   1.000  H
  C15      1.0000 0.15590  0.37140  0.51485  Biso   1.000  C
  H10      1.0000 0.19090  0.36990  0.53290  Biso   1.000  H
  C16      1.0000 0.20302  0.36856  0.48647  Biso   1.000  C
  C17      1.0000 0.11075  0.29821  0.38925  Biso   1.000  C
  H11      1.0000 0.12090  0.23480  0.39450  Biso   1.000  H
  C18      1.0000 0.06890  0.42144  0.36740  Biso   1.000  C
  H12      1.0000 0.04160  0.46200  0.35300  Biso   1.000  H
  N7       1.0000 0.93093  0.82087  0.05079  Biso   1.000  N
  N8       1.0000 0.88603  0.94426  0.02370  Biso   1.000  N
  N9       1.0000 0.85463  0.86349  0.01098  Biso   1.000  N
  N10      1.0000 0.64068  0.87139  0.90482  Biso   1.000  N
  N11      1.0000 0.61380  0.95179  0.89113  Biso   1.000  N
  N12      1.0000 0.56473  0.82718  0.86528  Biso   1.000  N
  C19      1.0000 0.93070  0.91489  0.04756  Biso   1.000  C
  H13      1.0000 0.96030  0.95590  0.06140  Biso   1.000  H
  C20      1.0000 0.88188  0.79107  0.02731  Biso   1.000  C
  H14      1.0000 0.86840  0.72760  0.02290  Biso   1.000  H
  C21      1.0000 0.79987  0.86550  0.98377  Biso   1.000  C
  C22      1.0000 0.84715  0.86739  0.95646  Biso   1.000  C
  C23      1.0000 0.94595  0.86514  0.95384  Biso   1.000  C
  H15      1.0000 0.98320  0.86100  0.97140  Biso   1.000  H
  C24      1.0000 0.98805  0.86886  0.92635  Biso   1.000  C
  H16      1.0000 0.05410  0.86560  0.92490  Biso   1.000  H
  C25      1.0000 0.93370  0.87753  0.90009  Biso   1.000  C
  H17      1.0000 0.96390  0.88300  0.88120  Biso   1.000  H
  C26      1.0000 0.83947  0.87815  0.90127  Biso   1.000  C
  H18      1.0000 0.80450  0.88270  0.88320  Biso   1.000  H
  C27      1.0000 0.79165  0.87209  0.92949  Biso   1.000  C
  C28      1.0000 0.69494  0.87160  0.93212  Biso   1.000  C
  C29      1.0000 0.64802  0.87083  0.95951  Biso   1.000  C
  C30      1.0000 0.54860  0.87500  0.96197  Biso   1.000  C
  H19      1.0000 0.51130  0.87590  0.94430  Biso   1.000  H
  C31      1.0000 0.50740  0.87740  0.98925  Biso   1.000  C
  H20      1.0000 0.44130  0.88000  0.99060  Biso   1.000  H
  C32      1.0000 0.56160  0.87630  0.01590  Biso   1.000  C
  H21      1.0000 0.53120  0.87900  0.03480  Biso   1.000  H
  C33      1.0000 0.65590  0.87140  0.01485  Biso   1.000  C
  H22      1.0000 0.69090  0.86990  0.03290  Biso   1.000  H
  C34      1.0000 0.70302  0.86856  0.98647  Biso   1.000  C
  C35      1.0000 0.61075  0.79821  0.88925  Biso   1.000  C
  H23      1.0000 0.62090  0.73480  0.89450  Biso   1.000  H
  C36      1.0000 0.56890  0.92144  0.86740  Biso   1.000  C
  H24      1.0000 0.54160  0.96200  0.85300  Biso   1.000  H
  N13      1.0000 0.06907  0.67913  0.05079  Biso   1.000  N
  N14      1.0000 0.11397  0.55574  0.02370  Biso   1.000  N
  N15      1.0000 0.14537  0.63651  0.01098  Biso   1.000  N
  N16      1.0000 0.35932  0.62861  0.90482  Biso   1.000  N
  N17      1.0000 0.38620  0.54821  0.89113  Biso   1.000  N
  N18      1.0000 0.43527  0.67282  0.86528  Biso   1.000  N
  C37      1.0000 0.06930  0.58511  0.04756  Biso   1.000  C
  H25      1.0000 0.03970  0.54410  0.06140  Biso   1.000  H
  C38      1.0000 0.11812  0.70893  0.02731  Biso   1.000  C
  H26      1.0000 0.13160  0.77240  0.02290  Biso   1.000  H
  C39      1.0000 0.20013  0.63450  0.98377  Biso   1.000  C
  C40      1.0000 0.15285  0.63261  0.95646  Biso   1.000  C
  C41      1.0000 0.05405  0.63486  0.95384  Biso   1.000  C
  H27      1.0000 0.01680  0.63900  0.97140  Biso   1.000  H
  C42      1.0000 0.01195  0.63114  0.92635  Biso   1.000  C
  H28      1.0000 0.94590  0.63440  0.92490  Biso   1.000  H
  C43      1.0000 0.06630  0.62247  0.90009  Biso   1.000  C
  H29      1.0000 0.03610  0.61700  0.88120  Biso   1.000  H
  C44      1.0000 0.16053  0.62185  0.90127  Biso   1.000  C
  H30      1.0000 0.19550  0.61730  0.88320  Biso   1.000  H
  C45      1.0000 0.20835  0.62791  0.92949  Biso   1.000  C
  C46      1.0000 0.30506  0.62840  0.93212  Biso   1.000  C
  C47      1.0000 0.35198  0.62917  0.95951  Biso   1.000  C
  C48      1.0000 0.45140  0.62500  0.96197  Biso   1.000  C
  H31      1.0000 0.48870  0.62410  0.94430  Biso   1.000  H
  C49      1.0000 0.49260  0.62260  0.98925  Biso   1.000  C
  H32      1.0000 0.55870  0.62000  0.99060  Biso   1.000  H
  C50      1.0000 0.43840  0.62370  0.01590  Biso   1.000  C
  H33      1.0000 0.46880  0.62100  0.03480  Biso   1.000  H
  C51      1.0000 0.34410  0.62860  0.01485  Biso   1.000  C
  H34      1.0000 0.30910  0.63010  0.03290  Biso   1.000  H
  C52      1.0000 0.29698  0.63144  0.98647  Biso   1.000  C
  C53      1.0000 0.38925  0.70179  0.88925  Biso   1.000  C
  H35      1.0000 0.37910  0.76520  0.89450  Biso   1.000  H
  C54      1.0000 0.43110  0.57856  0.86740  Biso   1.000  C
  H36      1.0000 0.45840  0.53800  0.85300  Biso   1.000  H
  N19      1.0000 0.56907  0.17913  0.55079  Biso   1.000  N
  N20      1.0000 0.61397  0.05574  0.52370  Biso   1.000  N
  N21      1.0000 0.64537  0.13651  0.51098  Biso   1.000  N
  N22      1.0000 0.85932  0.12861  0.40482  Biso   1.000  N
  N23      1.0000 0.88620  0.04821  0.39113  Biso   1.000  N
  N24      1.0000 0.93527  0.17282  0.36528  Biso   1.000  N
  C55      1.0000 0.56930  0.08511  0.54756  Biso   1.000  C
  H37      1.0000 0.53970  0.04410  0.56140  Biso   1.000  H
  C56      1.0000 0.61812  0.20893  0.52731  Biso   1.000  C
  H38      1.0000 0.63160  0.27240  0.52290  Biso   1.000  H
  C57      1.0000 0.70013  0.13450  0.48377  Biso   1.000  C
  C58      1.0000 0.65285  0.13261  0.45646  Biso   1.000  C
  C59      1.0000 0.55405  0.13486  0.45384  Biso   1.000  C
  H39      1.0000 0.51680  0.13900  0.47140  Biso   1.000  H
  C60      1.0000 0.51195  0.13114  0.42635  Biso   1.000  C
  H40      1.0000 0.44590  0.13440  0.42490  Biso   1.000  H
  C61      1.0000 0.56630  0.12247  0.40009  Biso   1.000  C
  H41      1.0000 0.53610  0.11700  0.38120  Biso   1.000  H
  C62      1.0000 0.66053  0.12185  0.40127  Biso   1.000  C
  H42      1.0000 0.69550  0.11730  0.38320  Biso   1.000  H
  C63      1.0000 0.70835  0.12791  0.42949  Biso   1.000  C
  C64      1.0000 0.80506  0.12840  0.43212  Biso   1.000  C
  C65      1.0000 0.85198  0.12917  0.45951  Biso   1.000  C
  C66      1.0000 0.95140  0.12500  0.46197  Biso   1.000  C
  H43      1.0000 0.98870  0.12410  0.44430  Biso   1.000  H
  C67      1.0000 0.99260  0.12260  0.48925  Biso   1.000  C
  H44      1.0000 0.05870  0.12000  0.49060  Biso   1.000  H
  C68      1.0000 0.93840  0.12370  0.51590  Biso   1.000  C
  H45      1.0000 0.96880  0.12100  0.53480  Biso   1.000  H
  C69      1.0000 0.84410  0.12860  0.51485  Biso   1.000  C
  H46      1.0000 0.80910  0.13010  0.53290  Biso   1.000  H
  C70      1.0000 0.79698  0.13144  0.48647  Biso   1.000  C
  C71      1.0000 0.88925  0.20179  0.38925  Biso   1.000  C
  H47      1.0000 0.87910  0.26520  0.39450  Biso   1.000  H
  C72      1.0000 0.93110  0.07856  0.36740  Biso   1.000  C
  H48      1.0000 0.95840  0.03800  0.35300  Biso   1.000  H
  N25      1.0000 0.42913  0.68093  0.80079  Biso   1.000  N
  N26      1.0000 0.30574  0.63603  0.77370  Biso   1.000  N
  N27      1.0000 0.38651  0.60463  0.76098  Biso   1.000  N
  N28      1.0000 0.37861  0.39068  0.65482  Biso   1.000  N
  N29      1.0000 0.29821  0.36380  0.64113  Biso   1.000  N
  N30      1.0000 0.42282  0.31473  0.61528  Biso   1.000  N
  C73      1.0000 0.33511  0.68070  0.79756  Biso   1.000  C
  H49      1.0000 0.29410  0.71030  0.81140  Biso   1.000  H
  C74      1.0000 0.45893  0.63188  0.77731  Biso   1.000  C
  H50      1.0000 0.52240  0.61840  0.77290  Biso   1.000  H
  C75      1.0000 0.38450  0.54987  0.73377  Biso   1.000  C
  C76      1.0000 0.38261  0.59715  0.70646  Biso   1.000  C
  C77      1.0000 0.38486  0.69595  0.70384  Biso   1.000  C
  H51      1.0000 0.38900  0.73320  0.72140  Biso   1.000  H
  C78      1.0000 0.38114  0.73805  0.67635  Biso   1.000  C
  H52      1.0000 0.38440  0.80410  0.67490  Biso   1.000  H
  C79      1.0000 0.37247  0.68370  0.65009  Biso   1.000  C
  H53      1.0000 0.36700  0.71390  0.63120  Biso   1.000  H
  C80      1.0000 0.37185  0.58947  0.65127  Biso   1.000  C
  H54      1.0000 0.36730  0.55450  0.63320  Biso   1.000  H
  C81      1.0000 0.37791  0.54165  0.67949  Biso   1.000  C
  C82      1.0000 0.37840  0.44494  0.68212  Biso   1.000  C
  C83      1.0000 0.37917  0.39802  0.70951  Biso   1.000  C
  C84      1.0000 0.37500  0.29860  0.71197  Biso   1.000  C
  H55      1.0000 0.37410  0.26130  0.69430  Biso   1.000  H
  C85      1.0000 0.37260  0.25740  0.73925  Biso   1.000  C
  H56      1.0000 0.37000  0.19130  0.74060  Biso   1.000  H
  C86      1.0000 0.37370  0.31160  0.76590  Biso   1.000  C
  H57      1.0000 0.37100  0.28120  0.78480  Biso   1.000  H
  C87      1.0000 0.37860  0.40590  0.76485  Biso   1.000  C
  H58      1.0000 0.38010  0.44090  0.78290  Biso   1.000  H
  C88      1.0000 0.38144  0.45302  0.73647  Biso   1.000  C
  C89      1.0000 0.45179  0.36075  0.63925  Biso   1.000  C
  H59      1.0000 0.51520  0.37090  0.64450  Biso   1.000  H
  C90      1.0000 0.32856  0.31890  0.61740  Biso   1.000  C
  H60      1.0000 0.28800  0.29160  0.60300  Biso   1.000  H
  N31      1.0000 0.92913  0.18093  0.30079  Biso   1.000  N
  N32      1.0000 0.80574  0.13603  0.27370  Biso   1.000  N
  N33      1.0000 0.88651  0.10463  0.26098  Biso   1.000  N
  N34      1.0000 0.87861  0.89068  0.15482  Biso   1.000  N
  N35      1.0000 0.79821  0.86380  0.14113  Biso   1.000  N
  N36      1.0000 0.92282  0.81473  0.11528  Biso   1.000  N
  C91      1.0000 0.83511  0.18070  0.29756  Biso   1.000  C
  H61      1.0000 0.79410  0.21030  0.31140  Biso   1.000  H
  C92      1.0000 0.95893  0.13188  0.27731  Biso   1.000  C
  H62      1.0000 0.02240  0.11840  0.27290  Biso   1.000  H
  C93      1.0000 0.88450  0.04987  0.23377  Biso   1.000  C
  C94      1.0000 0.88261  0.09715  0.20646  Biso   1.000  C
  C95      1.0000 0.88486  0.19595  0.20384  Biso   1.000  C
  H63      1.0000 0.88900  0.23320  0.22140  Biso   1.000  H
  C96      1.0000 0.88114  0.23805  0.17635  Biso   1.000  C
  H64      1.0000 0.88440  0.30410  0.17490  Biso   1.000  H
  C97      1.0000 0.87247  0.18370  0.15009  Biso   1.000  C
  H65      1.0000 0.86700  0.21390  0.13120  Biso   1.000  H
  C98      1.0000 0.87185  0.08947  0.15127  Biso   1.000  C
  H66      1.0000 0.86730  0.05450  0.13320  Biso   1.000  H
  C99      1.0000 0.87791  0.04165  0.17949  Biso   1.000  C
  C100     1.0000 0.87840  0.94494  0.18212  Biso   1.000  C
  C101     1.0000 0.87917  0.89802  0.20951  Biso   1.000  C
  C102     1.0000 0.87500  0.79860  0.21197  Biso   1.000  C
  H67      1.0000 0.87410  0.76130  0.19430  Biso   1.000  H
  C103     1.0000 0.87260  0.75740  0.23925  Biso   1.000  C
  H68      1.0000 0.87000  0.69130  0.24060  Biso   1.000  H
  C104     1.0000 0.87370  0.81160  0.26590  Biso   1.000  C
  H69      1.0000 0.87100  0.78120  0.28480  Biso   1.000  H
  C105     1.0000 0.87860  0.90590  0.26485  Biso   1.000  C
  H70      1.0000 0.88010  0.94090  0.28290  Biso   1.000  H
  C106     1.0000 0.88144  0.95302  0.23647  Biso   1.000  C
  C107     1.0000 0.95179  0.86075  0.13925  Biso   1.000  C
  H71      1.0000 0.01520  0.87090  0.14450  Biso   1.000  H
  C108     1.0000 0.82856  0.81890  0.11740  Biso   1.000  C
  H72      1.0000 0.78800  0.79160  0.10300  Biso   1.000  H
  N37      1.0000 0.07087  0.31907  0.30079  Biso   1.000  N
  N38      1.0000 0.19426  0.36397  0.27370  Biso   1.000  N
  N39      1.0000 0.11349  0.39537  0.26098  Biso   1.000  N
  N40      1.0000 0.12139  0.60932  0.15482  Biso   1.000  N
  N41      1.0000 0.20179  0.63620  0.14113  Biso   1.000  N
  N42      1.0000 0.07718  0.68527  0.11528  Biso   1.000  N
  C109     1.0000 0.16489  0.31930  0.29756  Biso   1.000  C
  H73      1.0000 0.20590  0.28970  0.31140  Biso   1.000  H
  C110     1.0000 0.04107  0.36812  0.27731  Biso   1.000  C
  H74      1.0000 0.97760  0.38160  0.27290  Biso   1.000  H
  C111     1.0000 0.11550  0.45013  0.23377  Biso   1.000  C
  C112     1.0000 0.11739  0.40285  0.20646  Biso   1.000  C
  C113     1.0000 0.11514  0.30405  0.20384  Biso   1.000  C
  H75      1.0000 0.11100  0.26680  0.22140  Biso   1.000  H
  C114     1.0000 0.11886  0.26195  0.17635  Biso   1.000  C
  H76      1.0000 0.11560  0.19590  0.17490  Biso   1.000  H
  C115     1.0000 0.12753  0.31630  0.15009  Biso   1.000  C
  H77      1.0000 0.13300  0.28610  0.13120  Biso   1.000  H
  C116     1.0000 0.12815  0.41053  0.15127  Biso   1.000  C
  H78      1.0000 0.13270  0.44550  0.13320  Biso   1.000  H
  C117     1.0000 0.12209  0.45835  0.17949  Biso   1.000  C
  C118     1.0000 0.12160  0.55506  0.18212  Biso   1.000  C
  C119     1.0000 0.12083  0.60198  0.20951  Biso   1.000  C
  C120     1.0000 0.12500  0.70140  0.21197  Biso   1.000  C
  H79      1.0000 0.12590  0.73870  0.19430  Biso   1.000  H
  C121     1.0000 0.12740  0.74260  0.23925  Biso   1.000  C
  H80      1.0000 0.13000  0.80870  0.24060  Biso   1.000  H
  C122     1.0000 0.12630  0.68840  0.26590  Biso   1.000  C
  H81      1.0000 0.12900  0.71880  0.28480  Biso   1.000  H
  C123     1.0000 0.12140  0.59410  0.26485  Biso   1.000  C
  H82      1.0000 0.11990  0.55910  0.28290  Biso   1.000  H
  C124     1.0000 0.11856  0.54698  0.23647  Biso   1.000  C
  C125     1.0000 0.04821  0.63925  0.13925  Biso   1.000  C
  H83      1.0000 0.98480  0.62910  0.14450  Biso   1.000  H
  C126     1.0000 0.17144  0.68110  0.11740  Biso   1.000  C
  H84      1.0000 0.21200  0.70840  0.10300  Biso   1.000  H
  N43      1.0000 0.57087  0.81907  0.80079  Biso   1.000  N
  N44      1.0000 0.69426  0.86397  0.77370  Biso   1.000  N
  N45      1.0000 0.61349  0.89537  0.76098  Biso   1.000  N
  N46      1.0000 0.62139  0.10932  0.65482  Biso   1.000  N
  N47      1.0000 0.70179  0.13620  0.64113  Biso   1.000  N
  N48      1.0000 0.57718  0.18527  0.61528  Biso   1.000  N
  C127     1.0000 0.66489  0.81930  0.79756  Biso   1.000  C
  H85      1.0000 0.70590  0.78970  0.81140  Biso   1.000  H
  C128     1.0000 0.54107  0.86812  0.77731  Biso   1.000  C
  H86      1.0000 0.47760  0.88160  0.77290  Biso   1.000  H
  C129     1.0000 0.61550  0.95013  0.73377  Biso   1.000  C
  C130     1.0000 0.61739  0.90285  0.70646  Biso   1.000  C
  C131     1.0000 0.61514  0.80405  0.70384  Biso   1.000  C
  H87      1.0000 0.61100  0.76680  0.72140  Biso   1.000  H
  C132     1.0000 0.61886  0.76195  0.67635  Biso   1.000  C
  H88      1.0000 0.61560  0.69590  0.67490  Biso   1.000  H
  C133     1.0000 0.62753  0.81630  0.65009  Biso   1.000  C
  H89      1.0000 0.63300  0.78610  0.63120  Biso   1.000  H
  C134     1.0000 0.62815  0.91053  0.65127  Biso   1.000  C
  H90      1.0000 0.63270  0.94550  0.63320  Biso   1.000  H
  C135     1.0000 0.62209  0.95835  0.67949  Biso   1.000  C
  C136     1.0000 0.62160  0.05506  0.68212  Biso   1.000  C
  C137     1.0000 0.62083  0.10198  0.70951  Biso   1.000  C
  C138     1.0000 0.62500  0.20140  0.71197  Biso   1.000  C
  H91      1.0000 0.62590  0.23870  0.69430  Biso   1.000  H
  C139     1.0000 0.62740  0.24260  0.73925  Biso   1.000  C
  H92      1.0000 0.63000  0.30870  0.74060  Biso   1.000  H
  C140     1.0000 0.62630  0.18840  0.76590  Biso   1.000  C
  H93      1.0000 0.62900  0.21880  0.78480  Biso   1.000  H
  C141     1.0000 0.62140  0.09410  0.76485  Biso   1.000  C
  H94      1.0000 0.61990  0.05910  0.78290  Biso   1.000  H
  C142     1.0000 0.61856  0.04698  0.73647  Biso   1.000  C
  C143     1.0000 0.54821  0.13925  0.63925  Biso   1.000  C
  H95      1.0000 0.48480  0.12910  0.64450  Biso   1.000  H
  C144     1.0000 0.67144  0.18110  0.61740  Biso   1.000  C
  H96      1.0000 0.71200  0.20840  0.60300  Biso   1.000  H
  Cu1      1.0000 0.50000  0.25000  0.58329  Biso   1.000  Cu
  Cu2      1.0000 0.00000  0.75000  0.08329  Biso   1.000  Cu
  Cu3      1.0000 0.50000  0.75000  0.83329  Biso   1.000  Cu
  Cu4      1.0000 0.00000  0.25000  0.33329  Biso   1.000  Cu
  N49      1.0000 0.56907  0.67913  0.44921  Biso   1.000  N
  N50      1.0000 0.61397  0.55574  0.47630  Biso   1.000  N
  N51      1.0000 0.64537  0.63651  0.48902  Biso   1.000  N
  N52      1.0000 0.85932  0.62861  0.59518  Biso   1.000  N
  N53      1.0000 0.88620  0.54821  0.60887  Biso   1.000  N
  N54      1.0000 0.93527  0.67282  0.63472  Biso   1.000  N
  C145     1.0000 0.56930  0.58511  0.45244  Biso   1.000  C
  H97      1.0000 0.53970  0.54410  0.43860  Biso   1.000  H
  C146     1.0000 0.61812  0.70893  0.47269  Biso   1.000  C
  H98      1.0000 0.63160  0.77240  0.47710  Biso   1.000  H
  C147     1.0000 0.70013  0.63450  0.51623  Biso   1.000  C
  C148     1.0000 0.65285  0.63261  0.54354  Biso   1.000  C
  C149     1.0000 0.55405  0.63486  0.54616  Biso   1.000  C
  H99      1.0000 0.51680  0.63900  0.52860  Biso   1.000  H
  C150     1.0000 0.51195  0.63114  0.57365  Biso   1.000  C
  H100     1.0000 0.44590  0.63440  0.57510  Biso   1.000  H
  C151     1.0000 0.56630  0.62247  0.59991  Biso   1.000  C
  H101     1.0000 0.53610  0.61700  0.61880  Biso   1.000  H
  C152     1.0000 0.66053  0.62185  0.59873  Biso   1.000  C
  H102     1.0000 0.69550  0.61730  0.61680  Biso   1.000  H
  C153     1.0000 0.70835  0.62791  0.57051  Biso   1.000  C
  C154     1.0000 0.80506  0.62840  0.56788  Biso   1.000  C
  C155     1.0000 0.85198  0.62917  0.54049  Biso   1.000  C
  C156     1.0000 0.95140  0.62500  0.53803  Biso   1.000  C
  H103     1.0000 0.98870  0.62410  0.55570  Biso   1.000  H
  C157     1.0000 0.99260  0.62260  0.51075  Biso   1.000  C
  H104     1.0000 0.05870  0.62000  0.50940  Biso   1.000  H
  C158     1.0000 0.93840  0.62370  0.48410  Biso   1.000  C
  H105     1.0000 0.96880  0.62100  0.46520  Biso   1.000  H
  C159     1.0000 0.84410  0.62860  0.48515  Biso   1.000  C
  H106     1.0000 0.80910  0.63010  0.46710  Biso   1.000  H
  C160     1.0000 0.79698  0.63144  0.51353  Biso   1.000  C
  C161     1.0000 0.88925  0.70179  0.61075  Biso   1.000  C
  H107     1.0000 0.87910  0.76520  0.60550  Biso   1.000  H
  C162     1.0000 0.93110  0.57856  0.63260  Biso   1.000  C
  H108     1.0000 0.95840  0.53800  0.64700  Biso   1.000  H
  N55      1.0000 0.06907  0.17913  0.94921  Biso   1.000  N
  N56      1.0000 0.11397  0.05574  0.97630  Biso   1.000  N
  N57      1.0000 0.14537  0.13651  0.98902  Biso   1.000  N
  N58      1.0000 0.35932  0.12861  0.09518  Biso   1.000  N
  N59      1.0000 0.38620  0.04821  0.10887  Biso   1.000  N
  N60      1.0000 0.43527  0.17282  0.13472  Biso   1.000  N
  C163     1.0000 0.06930  0.08511  0.95244  Biso   1.000  C
  H109     1.0000 0.03970  0.04410  0.93860  Biso   1.000  H
  C164     1.0000 0.11812  0.20893  0.97269  Biso   1.000  C
  H110     1.0000 0.13160  0.27240  0.97710  Biso   1.000  H
  C165     1.0000 0.20013  0.13450  0.01623  Biso   1.000  C
  C166     1.0000 0.15285  0.13261  0.04354  Biso   1.000  C
  C167     1.0000 0.05405  0.13486  0.04616  Biso   1.000  C
  H111     1.0000 0.01680  0.13900  0.02860  Biso   1.000  H
  C168     1.0000 0.01195  0.13114  0.07365  Biso   1.000  C
  H112     1.0000 0.94590  0.13440  0.07510  Biso   1.000  H
  C169     1.0000 0.06630  0.12247  0.09991  Biso   1.000  C
  H113     1.0000 0.03610  0.11700  0.11880  Biso   1.000  H
  C170     1.0000 0.16053  0.12185  0.09873  Biso   1.000  C
  H114     1.0000 0.19550  0.11730  0.11680  Biso   1.000  H
  C171     1.0000 0.20835  0.12791  0.07051  Biso   1.000  C
  C172     1.0000 0.30506  0.12840  0.06788  Biso   1.000  C
  C173     1.0000 0.35198  0.12917  0.04049  Biso   1.000  C
  C174     1.0000 0.45140  0.12500  0.03803  Biso   1.000  C
  H115     1.0000 0.48870  0.12410  0.05570  Biso   1.000  H
  C175     1.0000 0.49260  0.12260  0.01075  Biso   1.000  C
  H116     1.0000 0.55870  0.12000  0.00940  Biso   1.000  H
  C176     1.0000 0.43840  0.12370  0.98410  Biso   1.000  C
  H117     1.0000 0.46880  0.12100  0.96520  Biso   1.000  H
  C177     1.0000 0.34410  0.12860  0.98515  Biso   1.000  C
  H118     1.0000 0.30910  0.13010  0.96710  Biso   1.000  H
  C178     1.0000 0.29698  0.13144  0.01353  Biso   1.000  C
  C179     1.0000 0.38925  0.20179  0.11075  Biso   1.000  C
  H119     1.0000 0.37910  0.26520  0.10550  Biso   1.000  H
  C180     1.0000 0.43110  0.07856  0.13260  Biso   1.000  C
  H120     1.0000 0.45840  0.03800  0.14700  Biso   1.000  H
  N61      1.0000 0.93093  0.32087  0.94921  Biso   1.000  N
  N62      1.0000 0.88603  0.44426  0.97630  Biso   1.000  N
  N63      1.0000 0.85463  0.36349  0.98902  Biso   1.000  N
  N64      1.0000 0.64068  0.37139  0.09518  Biso   1.000  N
  N65      1.0000 0.61380  0.45179  0.10887  Biso   1.000  N
  N66      1.0000 0.56473  0.32718  0.13472  Biso   1.000  N
  C181     1.0000 0.93070  0.41489  0.95244  Biso   1.000  C
  H121     1.0000 0.96030  0.45590  0.93860  Biso   1.000  H
  C182     1.0000 0.88188  0.29107  0.97269  Biso   1.000  C
  H122     1.0000 0.86840  0.22760  0.97710  Biso   1.000  H
  C183     1.0000 0.79987  0.36550  0.01623  Biso   1.000  C
  C184     1.0000 0.84715  0.36739  0.04354  Biso   1.000  C
  C185     1.0000 0.94595  0.36514  0.04616  Biso   1.000  C
  H123     1.0000 0.98320  0.36100  0.02860  Biso   1.000  H
  C186     1.0000 0.98805  0.36886  0.07365  Biso   1.000  C
  H124     1.0000 0.05410  0.36560  0.07510  Biso   1.000  H
  C187     1.0000 0.93370  0.37753  0.09991  Biso   1.000  C
  H125     1.0000 0.96390  0.38300  0.11880  Biso   1.000  H
  C188     1.0000 0.83947  0.37815  0.09873  Biso   1.000  C
  H126     1.0000 0.80450  0.38270  0.11680  Biso   1.000  H
  C189     1.0000 0.79165  0.37209  0.07051  Biso   1.000  C
  C190     1.0000 0.69494  0.37160  0.06788  Biso   1.000  C
  C191     1.0000 0.64802  0.37083  0.04049  Biso   1.000  C
  C192     1.0000 0.54860  0.37500  0.03803  Biso   1.000  C
  H127     1.0000 0.51130  0.37590  0.05570  Biso   1.000  H
  C193     1.0000 0.50740  0.37740  0.01075  Biso   1.000  C
  H128     1.0000 0.44130  0.38000  0.00940  Biso   1.000  H
  C194     1.0000 0.56160  0.37630  0.98410  Biso   1.000  C
  H129     1.0000 0.53120  0.37900  0.96520  Biso   1.000  H
  C195     1.0000 0.65590  0.37140  0.98515  Biso   1.000  C
  H130     1.0000 0.69090  0.36990  0.96710  Biso   1.000  H
  C196     1.0000 0.70302  0.36856  0.01353  Biso   1.000  C
  C197     1.0000 0.61075  0.29821  0.11075  Biso   1.000  C
  H131     1.0000 0.62090  0.23480  0.10550  Biso   1.000  H
  C198     1.0000 0.56890  0.42144  0.13260  Biso   1.000  C
  H132     1.0000 0.54160  0.46200  0.14700  Biso   1.000  H
  N67      1.0000 0.43093  0.82087  0.44921  Biso   1.000  N
  N68      1.0000 0.38603  0.94426  0.47630  Biso   1.000  N
  N69      1.0000 0.35463  0.86349  0.48902  Biso   1.000  N
  N70      1.0000 0.14068  0.87139  0.59518  Biso   1.000  N
  N71      1.0000 0.11380  0.95179  0.60887  Biso   1.000  N
  N72      1.0000 0.06473  0.82718  0.63472  Biso   1.000  N
  C199     1.0000 0.43070  0.91489  0.45244  Biso   1.000  C
  H133     1.0000 0.46030  0.95590  0.43860  Biso   1.000  H
  C200     1.0000 0.38188  0.79107  0.47269  Biso   1.000  C
  H134     1.0000 0.36840  0.72760  0.47710  Biso   1.000  H
  C201     1.0000 0.29987  0.86550  0.51623  Biso   1.000  C
  C202     1.0000 0.34715  0.86739  0.54354  Biso   1.000  C
  C203     1.0000 0.44595  0.86514  0.54616  Biso   1.000  C
  H135     1.0000 0.48320  0.86100  0.52860  Biso   1.000  H
  C204     1.0000 0.48805  0.86886  0.57365  Biso   1.000  C
  H136     1.0000 0.55410  0.86560  0.57510  Biso   1.000  H
  C205     1.0000 0.43370  0.87753  0.59991  Biso   1.000  C
  H137     1.0000 0.46390  0.88300  0.61880  Biso   1.000  H
  C206     1.0000 0.33947  0.87815  0.59873  Biso   1.000  C
  H138     1.0000 0.30450  0.88270  0.61680  Biso   1.000  H
  C207     1.0000 0.29165  0.87209  0.57051  Biso   1.000  C
  C208     1.0000 0.19494  0.87160  0.56788  Biso   1.000  C
  C209     1.0000 0.14802  0.87083  0.54049  Biso   1.000  C
  C210     1.0000 0.04860  0.87500  0.53803  Biso   1.000  C
  H139     1.0000 0.01130  0.87590  0.55570  Biso   1.000  H
  C211     1.0000 0.00740  0.87740  0.51075  Biso   1.000  C
  H140     1.0000 0.94130  0.88000  0.50940  Biso   1.000  H
  C212     1.0000 0.06160  0.87630  0.48410  Biso   1.000  C
  H141     1.0000 0.03120  0.87900  0.46520  Biso   1.000  H
  C213     1.0000 0.15590  0.87140  0.48515  Biso   1.000  C
  H142     1.0000 0.19090  0.86990  0.46710  Biso   1.000  H
  C214     1.0000 0.20302  0.86856  0.51353  Biso   1.000  C
  C215     1.0000 0.11075  0.79821  0.61075  Biso   1.000  C
  H143     1.0000 0.12090  0.73480  0.60550  Biso   1.000  H
  C216     1.0000 0.06890  0.92144  0.63260  Biso   1.000  C
  H144     1.0000 0.04160  0.96200  0.64700  Biso   1.000  H
  N73      1.0000 0.57087  0.31907  0.19921  Biso   1.000  N
  N74      1.0000 0.69426  0.36397  0.22630  Biso   1.000  N
  N75      1.0000 0.61349  0.39537  0.23902  Biso   1.000  N
  N76      1.0000 0.62139  0.60932  0.34518  Biso   1.000  N
  N77      1.0000 0.70179  0.63620  0.35887  Biso   1.000  N
  N78      1.0000 0.57718  0.68527  0.38472  Biso   1.000  N
  C217     1.0000 0.66489  0.31930  0.20244  Biso   1.000  C
  H145     1.0000 0.70590  0.28970  0.18860  Biso   1.000  H
  C218     1.0000 0.54107  0.36812  0.22269  Biso   1.000  C
  H146     1.0000 0.47760  0.38160  0.22710  Biso   1.000  H
  C219     1.0000 0.61550  0.45013  0.26623  Biso   1.000  C
  C220     1.0000 0.61739  0.40285  0.29354  Biso   1.000  C
  C221     1.0000 0.61514  0.30405  0.29616  Biso   1.000  C
  H147     1.0000 0.61100  0.26680  0.27860  Biso   1.000  H
  C222     1.0000 0.61886  0.26195  0.32365  Biso   1.000  C
  H148     1.0000 0.61560  0.19590  0.32510  Biso   1.000  H
  C223     1.0000 0.62753  0.31630  0.34991  Biso   1.000  C
  H149     1.0000 0.63300  0.28610  0.36880  Biso   1.000  H
  C224     1.0000 0.62815  0.41053  0.34873  Biso   1.000  C
  H150     1.0000 0.63270  0.44550  0.36680  Biso   1.000  H
  C225     1.0000 0.62209  0.45835  0.32051  Biso   1.000  C
  C226     1.0000 0.62160  0.55506  0.31788  Biso   1.000  C
  C227     1.0000 0.62083  0.60198  0.29049  Biso   1.000  C
  C228     1.0000 0.62500  0.70140  0.28803  Biso   1.000  C
  H151     1.0000 0.62590  0.73870  0.30570  Biso   1.000  H
  C229     1.0000 0.62740  0.74260  0.26075  Biso   1.000  C
  H152     1.0000 0.63000  0.80870  0.25940  Biso   1.000  H
  C230     1.0000 0.62630  0.68840  0.23410  Biso   1.000  C
  H153     1.0000 0.62900  0.71880  0.21520  Biso   1.000  H
  C231     1.0000 0.62140  0.59410  0.23515  Biso   1.000  C
  H154     1.0000 0.61990  0.55910  0.21710  Biso   1.000  H
  C232     1.0000 0.61856  0.54698  0.26353  Biso   1.000  C
  C233     1.0000 0.54821  0.63925  0.36075  Biso   1.000  C
  H155     1.0000 0.48480  0.62910  0.35550  Biso   1.000  H
  C234     1.0000 0.67144  0.68110  0.38260  Biso   1.000  C
  H156     1.0000 0.71200  0.70840  0.39700  Biso   1.000  H
  N79      1.0000 0.07087  0.81907  0.69921  Biso   1.000  N
  N80      1.0000 0.19426  0.86397  0.72630  Biso   1.000  N
  N81      1.0000 0.11349  0.89537  0.73902  Biso   1.000  N
  N82      1.0000 0.12139  0.10932  0.84518  Biso   1.000  N
  N83      1.0000 0.20179  0.13620  0.85887  Biso   1.000  N
  N84      1.0000 0.07718  0.18527  0.88472  Biso   1.000  N
  C235     1.0000 0.16489  0.81930  0.70244  Biso   1.000  C
  H157     1.0000 0.20590  0.78970  0.68860  Biso   1.000  H
  C236     1.0000 0.04107  0.86812  0.72269  Biso   1.000  C
  H158     1.0000 0.97760  0.88160  0.72710  Biso   1.000  H
  C237     1.0000 0.11550  0.95013  0.76623  Biso   1.000  C
  C238     1.0000 0.11739  0.90285  0.79354  Biso   1.000  C
  C239     1.0000 0.11514  0.80405  0.79616  Biso   1.000  C
  H159     1.0000 0.11100  0.76680  0.77860  Biso   1.000  H
  C240     1.0000 0.11886  0.76195  0.82365  Biso   1.000  C
  H160     1.0000 0.11560  0.69590  0.82510  Biso   1.000  H
  C241     1.0000 0.12753  0.81630  0.84991  Biso   1.000  C
  H161     1.0000 0.13300  0.78610  0.86880  Biso   1.000  H
  C242     1.0000 0.12815  0.91053  0.84873  Biso   1.000  C
  H162     1.0000 0.13270  0.94550  0.86680  Biso   1.000  H
  C243     1.0000 0.12209  0.95835  0.82051  Biso   1.000  C
  C244     1.0000 0.12160  0.05506  0.81788  Biso   1.000  C
  C245     1.0000 0.12083  0.10198  0.79049  Biso   1.000  C
  C246     1.0000 0.12500  0.20140  0.78803  Biso   1.000  C
  H163     1.0000 0.12590  0.23870  0.80570  Biso   1.000  H
  C247     1.0000 0.12740  0.24260  0.76075  Biso   1.000  C
  H164     1.0000 0.13000  0.30870  0.75940  Biso   1.000  H
  C248     1.0000 0.12630  0.18840  0.73410  Biso   1.000  C
  H165     1.0000 0.12900  0.21880  0.71520  Biso   1.000  H
  C249     1.0000 0.12140  0.09410  0.73515  Biso   1.000  C
  H166     1.0000 0.11990  0.05910  0.71710  Biso   1.000  H
  C250     1.0000 0.11856  0.04698  0.76353  Biso   1.000  C
  C251     1.0000 0.04821  0.13925  0.86075  Biso   1.000  C
  H167     1.0000 0.98480  0.12910  0.85550  Biso   1.000  H
  C252     1.0000 0.17144  0.18110  0.88260  Biso   1.000  C
  H168     1.0000 0.21200  0.20840  0.89700  Biso   1.000  H
  N85      1.0000 0.92913  0.68093  0.69921  Biso   1.000  N
  N86      1.0000 0.80574  0.63603  0.72630  Biso   1.000  N
  N87      1.0000 0.88651  0.60463  0.73902  Biso   1.000  N
  N88      1.0000 0.87861  0.39068  0.84518  Biso   1.000  N
  N89      1.0000 0.79821  0.36380  0.85887  Biso   1.000  N
  N90      1.0000 0.92282  0.31473  0.88472  Biso   1.000  N
  C253     1.0000 0.83511  0.68070  0.70244  Biso   1.000  C
  H169     1.0000 0.79410  0.71030  0.68860  Biso   1.000  H
  C254     1.0000 0.95893  0.63188  0.72269  Biso   1.000  C
  H170     1.0000 0.02240  0.61840  0.72710  Biso   1.000  H
  C255     1.0000 0.88450  0.54987  0.76623  Biso   1.000  C
  C256     1.0000 0.88261  0.59715  0.79354  Biso   1.000  C
  C257     1.0000 0.88486  0.69595  0.79616  Biso   1.000  C
  H171     1.0000 0.88900  0.73320  0.77860  Biso   1.000  H
  C258     1.0000 0.88114  0.73805  0.82365  Biso   1.000  C
  H172     1.0000 0.88440  0.80410  0.82510  Biso   1.000  H
  C259     1.0000 0.87247  0.68370  0.84991  Biso   1.000  C
  H173     1.0000 0.86700  0.71390  0.86880  Biso   1.000  H
  C260     1.0000 0.87185  0.58947  0.84873  Biso   1.000  C
  H174     1.0000 0.86730  0.55450  0.86680  Biso   1.000  H
  C261     1.0000 0.87791  0.54165  0.82051  Biso   1.000  C
  C262     1.0000 0.87840  0.44494  0.81788  Biso   1.000  C
  C263     1.0000 0.87917  0.39802  0.79049  Biso   1.000  C
  C264     1.0000 0.87500  0.29860  0.78803  Biso   1.000  C
  H175     1.0000 0.87410  0.26130  0.80570  Biso   1.000  H
  C265     1.0000 0.87260  0.25740  0.76075  Biso   1.000  C
  H176     1.0000 0.87000  0.19130  0.75940  Biso   1.000  H
  C266     1.0000 0.87370  0.31160  0.73410  Biso   1.000  C
  H177     1.0000 0.87100  0.28120  0.71520  Biso   1.000  H
  C267     1.0000 0.87860  0.40590  0.73515  Biso   1.000  C
  H178     1.0000 0.88010  0.44090  0.71710  Biso   1.000  H
  C268     1.0000 0.88144  0.45302  0.76353  Biso   1.000  C
  C269     1.0000 0.95179  0.36075  0.86075  Biso   1.000  C
  H179     1.0000 0.01520  0.37090  0.85550  Biso   1.000  H
  C270     1.0000 0.82856  0.31890  0.88260  Biso   1.000  C
  H180     1.0000 0.78800  0.29160  0.89700  Biso   1.000  H
  N91      1.0000 0.42913  0.18093  0.19921  Biso   1.000  N
  N92      1.0000 0.30574  0.13603  0.22630  Biso   1.000  N
  N93      1.0000 0.38651  0.10463  0.23902  Biso   1.000  N
  N94      1.0000 0.37861  0.89068  0.34518  Biso   1.000  N
  N95      1.0000 0.29821  0.86380  0.35887  Biso   1.000  N
  N96      1.0000 0.42282  0.81473  0.38472  Biso   1.000  N
  C271     1.0000 0.33511  0.18070  0.20244  Biso   1.000  C
  H181     1.0000 0.29410  0.21030  0.18860  Biso   1.000  H
  C272     1.0000 0.45893  0.13188  0.22269  Biso   1.000  C
  H182     1.0000 0.52240  0.11840  0.22710  Biso   1.000  H
  C273     1.0000 0.38450  0.04987  0.26623  Biso   1.000  C
  C274     1.0000 0.38261  0.09715  0.29354  Biso   1.000  C
  C275     1.0000 0.38486  0.19595  0.29616  Biso   1.000  C
  H183     1.0000 0.38900  0.23320  0.27860  Biso   1.000  H
  C276     1.0000 0.38114  0.23805  0.32365  Biso   1.000  C
  H184     1.0000 0.38440  0.30410  0.32510  Biso   1.000  H
  C277     1.0000 0.37247  0.18370  0.34991  Biso   1.000  C
  H185     1.0000 0.36700  0.21390  0.36880  Biso   1.000  H
  C278     1.0000 0.37185  0.08947  0.34873  Biso   1.000  C
  H186     1.0000 0.36730  0.05450  0.36680  Biso   1.000  H
  C279     1.0000 0.37791  0.04165  0.32051  Biso   1.000  C
  C280     1.0000 0.37840  0.94494  0.31788  Biso   1.000  C
  C281     1.0000 0.37917  0.89802  0.29049  Biso   1.000  C
  C282     1.0000 0.37500  0.79860  0.28803  Biso   1.000  C
  H187     1.0000 0.37410  0.76130  0.30570  Biso   1.000  H
  C283     1.0000 0.37260  0.75740  0.26075  Biso   1.000  C
  H188     1.0000 0.37000  0.69130  0.25940  Biso   1.000  H
  C284     1.0000 0.37370  0.81160  0.23410  Biso   1.000  C
  H189     1.0000 0.37100  0.78120  0.21520  Biso   1.000  H
  C285     1.0000 0.37860  0.90590  0.23515  Biso   1.000  C
  H190     1.0000 0.38010  0.94090  0.21710  Biso   1.000  H
  C286     1.0000 0.38144  0.95302  0.26353  Biso   1.000  C
  C287     1.0000 0.45179  0.86075  0.36075  Biso   1.000  C
  H191     1.0000 0.51520  0.87090  0.35550  Biso   1.000  H
  C288     1.0000 0.32856  0.81890  0.38260  Biso   1.000  C
  H192     1.0000 0.28800  0.79160  0.39700  Biso   1.000  H
  Cu5      1.0000 0.50000  0.75000  0.41671  Biso   1.000  Cu
  Cu6      1.0000 0.00000  0.25000  0.91671  Biso   1.000  Cu
  Cu7      1.0000 0.50000  0.25000  0.16671  Biso   1.000  Cu
  Cu8      1.0000 0.00000  0.75000  0.66671  Biso   1.000  Cu
