data_image0
_cell_length_a       12.7471
_cell_length_b       12.7471
_cell_length_c       22.545
_cell_angle_alpha    90
_cell_angle_beta     90
_cell_angle_gamma    90

_symmetry_space_group_name_H-M    "P 1"
_symmetry_int_tables_number       1

loop_
  _symmetry_equiv_pos_as_xyz
  'x, y, z'

loop_
  _atom_site_label
  _atom_site_occupancy
  _atom_site_fract_x
  _atom_site_fract_y
  _atom_site_fract_z
  _atom_site_thermal_displace_type
  _atom_site_B_iso_or_equiv
  _atom_site_type_symbol
  N1       1.0000 0.12980  0.12610  0.99410  Biso   1.000  N
  N2       1.0000 0.11150  0.21430  0.95877  Biso   1.000  N
  N3       1.0000 0.25330  0.23840  0.00952  Biso   1.000  N
  N4       1.0000 0.34100  0.28600  0.03331  Biso   1.000  N
  N5       1.0000 0.50150  0.33560  0.04677  Biso   1.000  N
  N6       1.0000 0.43700  0.38690  0.08735  Biso   1.000  N
  N7       1.0000 0.34730  0.60570  0.16350  Biso   1.000  N
  N8       1.0000 0.25480  0.57980  0.13580  Biso   1.000  N
  N9       1.0000 0.23190  0.72240  0.18510  Biso   1.000  N
  N10      1.0000 0.18670  0.81220  0.20933  Biso   1.000  N
  N11      1.0000 0.10070  0.91410  0.26711  Biso   1.000  N
  N12      1.0000 0.15280  0.97640  0.22660  Biso   1.000  N
  C1       1.0000 0.21490  0.14350  0.02480  Biso   1.000  C
  H1       1.0000 0.24410  0.09820  0.05260  Biso   1.000  H
  C2       1.0000 0.18710  0.27930  0.96840  Biso   1.000  C
  H2       1.0000 0.19510  0.34410  0.95010  Biso   1.000  H
  C3       1.0000 0.44150  0.27770  0.01513  Biso   1.000  C
  H3       1.0000 0.46410  0.23560  0.98390  Biso   1.000  H
  C4       1.0000 0.34150  0.35640  0.07855  Biso   1.000  C
  H4       1.0000 0.28300  0.37890  0.09960  Biso   1.000  H
  C5       1.0000 0.18790  0.65140  0.14890  Biso   1.000  C
  H5       1.0000 0.11910  0.65370  0.13520  Biso   1.000  H
  C6       1.0000 0.33160  0.69140  0.19320  Biso   1.000  C
  H6       1.0000 0.38130  0.72570  0.21640  Biso   1.000  H
  C7       1.0000 0.20470  0.91160  0.19260  Biso   1.000  C
  H7       1.0000 0.24780  0.93150  0.16140  Biso   1.000  H
  C8       1.0000 0.12150  0.81640  0.25630  Biso   1.000  C
  H8       1.0000 0.09570  0.75910  0.27730  Biso   1.000  H
  N13      1.0000 0.62980  0.62610  0.49410  Biso   1.000  N
  N14      1.0000 0.61150  0.71430  0.45877  Biso   1.000  N
  N15      1.0000 0.75330  0.73840  0.50952  Biso   1.000  N
  N16      1.0000 0.84100  0.78600  0.53331  Biso   1.000  N
  N17      1.0000 0.00150  0.83560  0.54677  Biso   1.000  N
  N18      1.0000 0.93700  0.88690  0.58735  Biso   1.000  N
  N19      1.0000 0.84730  0.10570  0.66350  Biso   1.000  N
  N20      1.0000 0.75480  0.07980  0.63580  Biso   1.000  N
  N21      1.0000 0.73190  0.22240  0.68510  Biso   1.000  N
  N22      1.0000 0.68670  0.31220  0.70933  Biso   1.000  N
  N23      1.0000 0.60070  0.41410  0.76711  Biso   1.000  N
  N24      1.0000 0.65280  0.47640  0.72660  Biso   1.000  N
  C9       1.0000 0.71490  0.64350  0.52480  Biso   1.000  C
  H9       1.0000 0.74410  0.59820  0.55260  Biso   1.000  H
  C10      1.0000 0.68710  0.77930  0.46840  Biso   1.000  C
  H10      1.0000 0.69510  0.84410  0.45010  Biso   1.000  H
  C11      1.0000 0.94150  0.77770  0.51513  Biso   1.000  C
  H11      1.0000 0.96410  0.73560  0.48390  Biso   1.000  H
  C12      1.0000 0.84150  0.85640  0.57855  Biso   1.000  C
  H12      1.0000 0.78300  0.87890  0.59960  Biso   1.000  H
  C13      1.0000 0.68790  0.15140  0.64890  Biso   1.000  C
  H13      1.0000 0.61910  0.15370  0.63520  Biso   1.000  H
  C14      1.0000 0.83160  0.19140  0.69320  Biso   1.000  C
  H14      1.0000 0.88130  0.22570  0.71640  Biso   1.000  H
  C15      1.0000 0.70470  0.41160  0.69260  Biso   1.000  C
  H15      1.0000 0.74780  0.43150  0.66140  Biso   1.000  H
  C16      1.0000 0.62150  0.31640  0.75630  Biso   1.000  C
  H16      1.0000 0.59570  0.25910  0.77730  Biso   1.000  H
  N25      1.0000 0.87020  0.87390  0.99410  Biso   1.000  N
  N26      1.0000 0.88850  0.78570  0.95877  Biso   1.000  N
  N27      1.0000 0.74670  0.76160  0.00952  Biso   1.000  N
  N28      1.0000 0.65900  0.71400  0.03331  Biso   1.000  N
  N29      1.0000 0.49850  0.66440  0.04677  Biso   1.000  N
  N30      1.0000 0.56300  0.61310  0.08735  Biso   1.000  N
  N31      1.0000 0.65270  0.39430  0.16350  Biso   1.000  N
  N32      1.0000 0.74520  0.42020  0.13580  Biso   1.000  N
  N33      1.0000 0.76810  0.27760  0.18510  Biso   1.000  N
  N34      1.0000 0.81330  0.18780  0.20933  Biso   1.000  N
  N35      1.0000 0.89930  0.08590  0.26711  Biso   1.000  N
  N36      1.0000 0.84720  0.02360  0.22660  Biso   1.000  N
  C17      1.0000 0.78510  0.85650  0.02480  Biso   1.000  C
  H17      1.0000 0.75590  0.90180  0.05260  Biso   1.000  H
  C18      1.0000 0.81290  0.72070  0.96840  Biso   1.000  C
  H18      1.0000 0.80490  0.65590  0.95010  Biso   1.000  H
  C19      1.0000 0.55850  0.72230  0.01513  Biso   1.000  C
  H19      1.0000 0.53590  0.76440  0.98390  Biso   1.000  H
  C20      1.0000 0.65850  0.64360  0.07855  Biso   1.000  C
  H20      1.0000 0.71700  0.62110  0.09960  Biso   1.000  H
  C21      1.0000 0.81210  0.34860  0.14890  Biso   1.000  C
  H21      1.0000 0.88090  0.34630  0.13520  Biso   1.000  H
  C22      1.0000 0.66840  0.30860  0.19320  Biso   1.000  C
  H22      1.0000 0.61870  0.27430  0.21640  Biso   1.000  H
  C23      1.0000 0.79530  0.08840  0.19260  Biso   1.000  C
  H23      1.0000 0.75220  0.06850  0.16140  Biso   1.000  H
  C24      1.0000 0.87850  0.18360  0.25630  Biso   1.000  C
  H24      1.0000 0.90430  0.24090  0.27730  Biso   1.000  H
  N37      1.0000 0.37020  0.37390  0.49410  Biso   1.000  N
  N38      1.0000 0.38850  0.28570  0.45877  Biso   1.000  N
  N39      1.0000 0.24670  0.26160  0.50952  Biso   1.000  N
  N40      1.0000 0.15900  0.21400  0.53331  Biso   1.000  N
  N41      1.0000 0.99850  0.16440  0.54677  Biso   1.000  N
  N42      1.0000 0.06300  0.11310  0.58735  Biso   1.000  N
  N43      1.0000 0.15270  0.89430  0.66350  Biso   1.000  N
  N44      1.0000 0.24520  0.92020  0.63580  Biso   1.000  N
  N45      1.0000 0.26810  0.77760  0.68510  Biso   1.000  N
  N46      1.0000 0.31330  0.68780  0.70933  Biso   1.000  N
  N47      1.0000 0.39930  0.58590  0.76711  Biso   1.000  N
  N48      1.0000 0.34720  0.52360  0.72660  Biso   1.000  N
  C25      1.0000 0.28510  0.35650  0.52480  Biso   1.000  C
  H25      1.0000 0.25590  0.40180  0.55260  Biso   1.000  H
  C26      1.0000 0.31290  0.22070  0.46840  Biso   1.000  C
  H26      1.0000 0.30490  0.15590  0.45010  Biso   1.000  H
  C27      1.0000 0.05850  0.22230  0.51513  Biso   1.000  C
  H27      1.0000 0.03590  0.26440  0.48390  Biso   1.000  H
  C28      1.0000 0.15850  0.14360  0.57855  Biso   1.000  C
  H28      1.0000 0.21700  0.12110  0.59960  Biso   1.000  H
  C29      1.0000 0.31210  0.84860  0.64890  Biso   1.000  C
  H29      1.0000 0.38090  0.84630  0.63520  Biso   1.000  H
  C30      1.0000 0.16840  0.80860  0.69320  Biso   1.000  C
  H30      1.0000 0.11870  0.77430  0.71640  Biso   1.000  H
  C31      1.0000 0.29530  0.58840  0.69260  Biso   1.000  C
  H31      1.0000 0.25220  0.56850  0.66140  Biso   1.000  H
  C32      1.0000 0.37850  0.68360  0.75630  Biso   1.000  C
  H32      1.0000 0.40430  0.74090  0.77730  Biso   1.000  H
  N49      1.0000 0.12610  0.87020  0.00590  Biso   1.000  N
  N50      1.0000 0.21430  0.88850  0.04123  Biso   1.000  N
  N51      1.0000 0.23840  0.74670  0.99048  Biso   1.000  N
  N52      1.0000 0.28600  0.65900  0.96669  Biso   1.000  N
  N53      1.0000 0.33560  0.49850  0.95323  Biso   1.000  N
  N54      1.0000 0.38690  0.56300  0.91265  Biso   1.000  N
  N55      1.0000 0.60570  0.65270  0.83650  Biso   1.000  N
  N56      1.0000 0.57980  0.74520  0.86420  Biso   1.000  N
  N57      1.0000 0.72240  0.76810  0.81490  Biso   1.000  N
  N58      1.0000 0.81220  0.81330  0.79067  Biso   1.000  N
  N59      1.0000 0.91410  0.89930  0.73289  Biso   1.000  N
  N60      1.0000 0.97640  0.84720  0.77340  Biso   1.000  N
  C33      1.0000 0.14350  0.78510  0.97520  Biso   1.000  C
  H33      1.0000 0.09820  0.75590  0.94740  Biso   1.000  H
  C34      1.0000 0.27930  0.81290  0.03160  Biso   1.000  C
  H34      1.0000 0.34410  0.80490  0.04990  Biso   1.000  H
  C35      1.0000 0.27770  0.55850  0.98487  Biso   1.000  C
  H35      1.0000 0.23560  0.53590  0.01610  Biso   1.000  H
  C36      1.0000 0.35640  0.65850  0.92145  Biso   1.000  C
  H36      1.0000 0.37890  0.71700  0.90040  Biso   1.000  H
  C37      1.0000 0.65140  0.81210  0.85110  Biso   1.000  C
  H37      1.0000 0.65370  0.88090  0.86480  Biso   1.000  H
  C38      1.0000 0.69140  0.66840  0.80680  Biso   1.000  C
  H38      1.0000 0.72570  0.61870  0.78360  Biso   1.000  H
  C39      1.0000 0.91160  0.79530  0.80740  Biso   1.000  C
  H39      1.0000 0.93150  0.75220  0.83860  Biso   1.000  H
  C40      1.0000 0.81640  0.87850  0.74370  Biso   1.000  C
  H40      1.0000 0.75910  0.90430  0.72270  Biso   1.000  H
  N61      1.0000 0.62610  0.37020  0.50590  Biso   1.000  N
  N62      1.0000 0.71430  0.38850  0.54123  Biso   1.000  N
  N63      1.0000 0.73840  0.24670  0.49048  Biso   1.000  N
  N64      1.0000 0.78600  0.15900  0.46669  Biso   1.000  N
  N65      1.0000 0.83560  0.99850  0.45323  Biso   1.000  N
  N66      1.0000 0.88690  0.06300  0.41265  Biso   1.000  N
  N67      1.0000 0.10570  0.15270  0.33650  Biso   1.000  N
  N68      1.0000 0.07980  0.24520  0.36420  Biso   1.000  N
  N69      1.0000 0.22240  0.26810  0.31490  Biso   1.000  N
  N70      1.0000 0.31220  0.31330  0.29067  Biso   1.000  N
  N71      1.0000 0.41410  0.39930  0.23289  Biso   1.000  N
  N72      1.0000 0.47640  0.34720  0.27340  Biso   1.000  N
  C41      1.0000 0.64350  0.28510  0.47520  Biso   1.000  C
  H41      1.0000 0.59820  0.25590  0.44740  Biso   1.000  H
  C42      1.0000 0.77930  0.31290  0.53160  Biso   1.000  C
  H42      1.0000 0.84410  0.30490  0.54990  Biso   1.000  H
  C43      1.0000 0.77770  0.05850  0.48487  Biso   1.000  C
  H43      1.0000 0.73560  0.03590  0.51610  Biso   1.000  H
  C44      1.0000 0.85640  0.15850  0.42145  Biso   1.000  C
  H44      1.0000 0.87890  0.21700  0.40040  Biso   1.000  H
  C45      1.0000 0.15140  0.31210  0.35110  Biso   1.000  C
  H45      1.0000 0.15370  0.38090  0.36480  Biso   1.000  H
  C46      1.0000 0.19140  0.16840  0.30680  Biso   1.000  C
  H46      1.0000 0.22570  0.11870  0.28360  Biso   1.000  H
  C47      1.0000 0.41160  0.29530  0.30740  Biso   1.000  C
  H47      1.0000 0.43150  0.25220  0.33860  Biso   1.000  H
  C48      1.0000 0.31640  0.37850  0.24370  Biso   1.000  C
  H48      1.0000 0.25910  0.40430  0.22270  Biso   1.000  H
  N73      1.0000 0.87390  0.12980  0.00590  Biso   1.000  N
  N74      1.0000 0.78570  0.11150  0.04123  Biso   1.000  N
  N75      1.0000 0.76160  0.25330  0.99048  Biso   1.000  N
  N76      1.0000 0.71400  0.34100  0.96669  Biso   1.000  N
  N77      1.0000 0.66440  0.50150  0.95323  Biso   1.000  N
  N78      1.0000 0.61310  0.43700  0.91265  Biso   1.000  N
  N79      1.0000 0.39430  0.34730  0.83650  Biso   1.000  N
  N80      1.0000 0.42020  0.25480  0.86420  Biso   1.000  N
  N81      1.0000 0.27760  0.23190  0.81490  Biso   1.000  N
  N82      1.0000 0.18780  0.18670  0.79067  Biso   1.000  N
  N83      1.0000 0.08590  0.10070  0.73289  Biso   1.000  N
  N84      1.0000 0.02360  0.15280  0.77340  Biso   1.000  N
  C49      1.0000 0.85650  0.21490  0.97520  Biso   1.000  C
  H49      1.0000 0.90180  0.24410  0.94740  Biso   1.000  H
  C50      1.0000 0.72070  0.18710  0.03160  Biso   1.000  C
  H50      1.0000 0.65590  0.19510  0.04990  Biso   1.000  H
  C51      1.0000 0.72230  0.44150  0.98487  Biso   1.000  C
  H51      1.0000 0.76440  0.46410  0.01610  Biso   1.000  H
  C52      1.0000 0.64360  0.34150  0.92145  Biso   1.000  C
  H52      1.0000 0.62110  0.28300  0.90040  Biso   1.000  H
  C53      1.0000 0.34860  0.18790  0.85110  Biso   1.000  C
  H53      1.0000 0.34630  0.11910  0.86480  Biso   1.000  H
  C54      1.0000 0.30860  0.33160  0.80680  Biso   1.000  C
  H54      1.0000 0.27430  0.38130  0.78360  Biso   1.000  H
  C55      1.0000 0.08840  0.20470  0.80740  Biso   1.000  C
  H55      1.0000 0.06850  0.24780  0.83860  Biso   1.000  H
  C56      1.0000 0.18360  0.12150  0.74370  Biso   1.000  C
  H56      1.0000 0.24090  0.09570  0.72270  Biso   1.000  H
  N85      1.0000 0.37390  0.62980  0.50590  Biso   1.000  N
  N86      1.0000 0.28570  0.61150  0.54123  Biso   1.000  N
  N87      1.0000 0.26160  0.75330  0.49048  Biso   1.000  N
  N88      1.0000 0.21400  0.84100  0.46669  Biso   1.000  N
  N89      1.0000 0.16440  0.00150  0.45323  Biso   1.000  N
  N90      1.0000 0.11310  0.93700  0.41265  Biso   1.000  N
  N91      1.0000 0.89430  0.84730  0.33650  Biso   1.000  N
  N92      1.0000 0.92020  0.75480  0.36420  Biso   1.000  N
  N93      1.0000 0.77760  0.73190  0.31490  Biso   1.000  N
  N94      1.0000 0.68780  0.68670  0.29067  Biso   1.000  N
  N95      1.0000 0.58590  0.60070  0.23289  Biso   1.000  N
  N96      1.0000 0.52360  0.65280  0.27340  Biso   1.000  N
  C57      1.0000 0.35650  0.71490  0.47520  Biso   1.000  C
  H57      1.0000 0.40180  0.74410  0.44740  Biso   1.000  H
  C58      1.0000 0.22070  0.68710  0.53160  Biso   1.000  C
  H58      1.0000 0.15590  0.69510  0.54990  Biso   1.000  H
  C59      1.0000 0.22230  0.94150  0.48487  Biso   1.000  C
  H59      1.0000 0.26440  0.96410  0.51610  Biso   1.000  H
  C60      1.0000 0.14360  0.84150  0.42145  Biso   1.000  C
  H60      1.0000 0.12110  0.78300  0.40040  Biso   1.000  H
  C61      1.0000 0.84860  0.68790  0.35110  Biso   1.000  C
  H61      1.0000 0.84630  0.61910  0.36480  Biso   1.000  H
  C62      1.0000 0.80860  0.83160  0.30680  Biso   1.000  C
  H62      1.0000 0.77430  0.88130  0.28360  Biso   1.000  H
  C63      1.0000 0.58840  0.70470  0.30740  Biso   1.000  C
  H63      1.0000 0.56850  0.74780  0.33860  Biso   1.000  H
  C64      1.0000 0.68360  0.62150  0.24370  Biso   1.000  C
  H64      1.0000 0.74090  0.59570  0.22270  Biso   1.000  H
  Cd1      1.0000 0.00000  0.00000  0.00000  Biso   1.000  Cd
  Cd2      1.0000 0.50000  0.50000  0.50000  Biso   1.000  Cd
  Cd3      1.0000 0.50000  0.50000  0.16042  Biso   1.000  Cd
  Cd4      1.0000 0.00000  0.00000  0.66042  Biso   1.000  Cd
  Cd5      1.0000 0.50000  0.50000  0.83958  Biso   1.000  Cd
  Cd6      1.0000 0.00000  0.00000  0.33958  Biso   1.000  Cd
