data_KOMHAW_clean
_audit_creation_date              2014-07-02
_audit_creation_method            'Materials Studio'
_symmetry_space_group_name_H-M    'P1'
_symmetry_Int_Tables_number       1
_symmetry_cell_setting            triclinic
loop_
_symmetry_equiv_pos_as_xyz
  x,y,z
_cell_length_a                    9.0436
_cell_length_b                    9.7308
_cell_length_c                    17.3916
_cell_angle_alpha                 94.4309
_cell_angle_beta                  105.0700
_cell_angle_gamma                 90.0000
loop_
_atom_site_label
_atom_site_type_symbol
_atom_site_fract_x
_atom_site_fract_y
_atom_site_fract_z
_atom_site_U_iso_or_equiv
_atom_site_adp_type
_atom_site_occupancy
Zn1    Zn    0.78166   0.75961   0.16426   0.01267  Uiso   1.00
Zn2    Zn    0.96659   0.55304   0.34292   0.01267  Uiso   1.00
Zn3    Zn    0.61740   0.74039   0.83574   0.01267  Uiso   1.00
Zn4    Zn    0.62367   0.94696   0.65708   0.01267  Uiso   1.00
Zn5    Zn    0.21834   0.24039   0.83574   0.01267  Uiso   1.00
Zn6    Zn    0.03341   0.44696   0.65708   0.01267  Uiso   1.00
Zn7    Zn    0.38260   0.25961   0.16426   0.01267  Uiso   1.00
Zn8    Zn    0.37633   0.05304   0.34292   0.01267  Uiso   1.00
H1     H     0.47990   0.64000   0.06920   0.01267  Uiso   1.00
H2     H     0.37920   0.51800   0.06740   0.01267  Uiso   1.00
H3     H     0.13220   0.04760   0.18420   0.01267  Uiso   1.00
H4     H     0.99200   0.96790   0.13880   0.01267  Uiso   1.00
H5     H     0.69830   0.33480   0.28200   0.01267  Uiso   1.00
H6     H     0.22670   0.78900   0.39940   0.01267  Uiso   1.00
H7     H     0.41070   0.86000   0.93080   0.01267  Uiso   1.00
H8     H     0.31180   0.98200   0.93260   0.01267  Uiso   1.00
H9     H     0.94800   0.45240   0.81580   0.01267  Uiso   1.00
H10    H     0.85320   0.53210   0.86120   0.01267  Uiso   1.00
H11    H     0.41630   0.16520   0.71800   0.01267  Uiso   1.00
H12    H     0.82730   0.71100   0.60060   0.01267  Uiso   1.00
H13    H     0.52010   0.36000   0.93080   0.01267  Uiso   1.00
H14    H     0.62080   0.48200   0.93260   0.01267  Uiso   1.00
H15    H     0.86780   0.95240   0.81580   0.01267  Uiso   1.00
H16    H     0.00800   0.03210   0.86120   0.01267  Uiso   1.00
H17    H     0.30170   0.66520   0.71800   0.01267  Uiso   1.00
H18    H     0.77330   0.21100   0.60060   0.01267  Uiso   1.00
H19    H     0.58930   0.14000   0.06920   0.01267  Uiso   1.00
H20    H     0.68820   0.01800   0.06740   0.01267  Uiso   1.00
H21    H     0.05200   0.54760   0.18420   0.01267  Uiso   1.00
H22    H     0.14680   0.46790   0.13880   0.01267  Uiso   1.00
H23    H     0.58370   0.83480   0.28200   0.01267  Uiso   1.00
H24    H     0.17270   0.28900   0.39940   0.01267  Uiso   1.00
C1     C     0.56740   0.51890   0.15220   0.01267  Uiso   1.00
C2     C     0.67725   0.40340   0.24650   0.01267  Uiso   1.00
C3     C     0.08394   0.89660   0.24188   0.01267  Uiso   1.00
C4     C     0.16648   0.80680   0.34916   0.01267  Uiso   1.00
C5     C     0.93174   0.45120   0.48648   0.01267  Uiso   1.00
C6     C     0.41520   0.98110   0.84780   0.01267  Uiso   1.00
C7     C     0.43075   0.09660   0.75350   0.01267  Uiso   1.00
C8     C     0.84206   0.60340   0.75812   0.01267  Uiso   1.00
C9     C     0.81732   0.69320   0.65084   0.01267  Uiso   1.00
C10    C     0.44526   0.04880   0.51352   0.01267  Uiso   1.00
C11    C     0.43260   0.48110   0.84780   0.01267  Uiso   1.00
C12    C     0.32275   0.59660   0.75350   0.01267  Uiso   1.00
C13    C     0.91606   0.10340   0.75812   0.01267  Uiso   1.00
C14    C     0.83352   0.19320   0.65084   0.01267  Uiso   1.00
C15    C     0.06826   0.54880   0.51352   0.01267  Uiso   1.00
C16    C     0.58480   0.01890   0.15220   0.01267  Uiso   1.00
C17    C     0.56925   0.90340   0.24650   0.01267  Uiso   1.00
C18    C     0.15794   0.39660   0.24188   0.01267  Uiso   1.00
C19    C     0.18268   0.30680   0.34916   0.01267  Uiso   1.00
C20    C     0.55474   0.95120   0.48648   0.01267  Uiso   1.00
C21    C     0.73680   0.75000  -0.00000   0.01267  Uiso   1.00
C22    C     0.26320   0.25000   0.00000   0.01267  Uiso   1.00
N1     N     0.69888   0.58410   0.18836   0.01267  Uiso   1.00
N2     N     0.76849   0.50690   0.25058   0.01267  Uiso   1.00
N3     N     0.54913   0.40350   0.18646   0.01267  Uiso   1.00
N4     N     0.46259   0.56460   0.08838   0.01267  Uiso   1.00
N5     N     0.98807   0.79340   0.24094   0.01267  Uiso   1.00
N6     N     0.04413   0.73380   0.31126   0.01267  Uiso   1.00
N7     N     0.19628   0.91040   0.30796   0.01267  Uiso   1.00
N8     N     0.06733   0.98120   0.18066   0.01267  Uiso   1.00
N9     N     0.51052   0.91590   0.81164   0.01267  Uiso   1.00
N10    N     0.51791   0.99310   0.74942   0.01267  Uiso   1.00
N11    N     0.36267   0.09650   0.81354   0.01267  Uiso   1.00
N12    N     0.37421   0.93540   0.91162   0.01267  Uiso   1.00
N13    N     0.74713   0.70660   0.75906   0.01267  Uiso   1.00
N14    N     0.73287   0.76620   0.68874   0.01267  Uiso   1.00
N15    N     0.88832   0.58960   0.69204   0.01267  Uiso   1.00
N16    N     0.88667   0.51880   0.81934   0.01267  Uiso   1.00
N17    N     0.30112   0.41590   0.81164   0.01267  Uiso   1.00
N18    N     0.23151   0.49310   0.74942   0.01267  Uiso   1.00
N19    N     0.45087   0.59650   0.81354   0.01267  Uiso   1.00
N20    N     0.53741   0.43540   0.91162   0.01267  Uiso   1.00
N21    N     0.01193   0.20660   0.75906   0.01267  Uiso   1.00
N22    N     0.95587   0.26620   0.68874   0.01267  Uiso   1.00
N23    N     0.80372   0.08960   0.69204   0.01267  Uiso   1.00
N24    N     0.93267   0.01880   0.81934   0.01267  Uiso   1.00
N25    N     0.48948   0.08410   0.18836   0.01267  Uiso   1.00
N26    N     0.48209   0.00690   0.25058   0.01267  Uiso   1.00
N27    N     0.63733   0.90350   0.18646   0.01267  Uiso   1.00
N28    N     0.62579   0.06460   0.08838   0.01267  Uiso   1.00
N29    N     0.25287   0.29340   0.24094   0.01267  Uiso   1.00
N30    N     0.26713   0.23380   0.31126   0.01267  Uiso   1.00
N31    N     0.11168   0.41040   0.30796   0.01267  Uiso   1.00
N32    N     0.11333   0.48120   0.18066   0.01267  Uiso   1.00
O1     O     0.84255   0.75920   0.06570   0.01267  Uiso   1.00
O2     O     0.87747   0.42440   0.41374   0.01267  Uiso   1.00
O3     O     0.88703   0.39750   0.54006   0.01267  Uiso   1.00
O4     O     0.77685   0.74080   0.93430   0.01267  Uiso   1.00
O5     O     0.46373   0.07560   0.58626   0.01267  Uiso   1.00
O6     O     0.34697   0.10250   0.45994   0.01267  Uiso   1.00
O7     O     0.15745   0.24080   0.93430   0.01267  Uiso   1.00
O8     O     0.12253   0.57560   0.58626   0.01267  Uiso   1.00
O9     O     0.11297   0.60250   0.45994   0.01267  Uiso   1.00
O10    O     0.22315   0.25920   0.06570   0.01267  Uiso   1.00
O11    O     0.53627   0.92440   0.41374   0.01267  Uiso   1.00
O12    O     0.65303   0.89750   0.54006   0.01267  Uiso   1.00
O13    O     0.59800   0.75000   0.00000   0.01267  Uiso   1.00
O14    O     0.40200   0.25000   0.00000   0.01267  Uiso   1.00
