data_image0
_cell_length_a       10.12
_cell_length_b       21.934
_cell_length_c       15.818
_cell_angle_alpha    90
_cell_angle_beta     105.43
_cell_angle_gamma    90

_symmetry_space_group_name_H-M    "P 1"
_symmetry_int_tables_number       1

loop_
  _symmetry_equiv_pos_as_xyz
  'x, y, z'

loop_
  _atom_site_label
  _atom_site_occupancy
  _atom_site_fract_x
  _atom_site_fract_y
  _atom_site_fract_z
  _atom_site_thermal_displace_type
  _atom_site_B_iso_or_equiv
  _atom_site_type_symbol
  C1       1.0000 0.82230  0.24530  0.38120  Biso   1.000  C
  C2       1.0000 0.93620  0.28420  0.41760  Biso   1.000  C
  C3       1.0000 0.06900  0.25770  0.43180  Biso   1.000  C
  H1       1.0000 0.14590  0.28100  0.45780  Biso   1.000  H
  C4       1.0000 0.08610  0.19910  0.40810  Biso   1.000  C
  H2       1.0000 0.17430  0.18350  0.41780  Biso   1.000  H
  C5       1.0000 0.97520  0.16230  0.37010  Biso   1.000  C
  C6       1.0000 0.84130  0.18650  0.35730  Biso   1.000  C
  H3       1.0000 0.76560  0.16230  0.33240  Biso   1.000  H
  C7       1.0000 0.68140  0.27370  0.37040  Biso   1.000  C
  H4       1.0000 0.67090  0.28370  0.42800  Biso   1.000  H
  H5       1.0000 0.67680  0.31150  0.33790  Biso   1.000  H
  C8       1.0000 0.43540  0.26720  0.31750  Biso   1.000  C
  H6       1.0000 0.43830  0.30660  0.29010  Biso   1.000  H
  H7       1.0000 0.42350  0.27410  0.37560  Biso   1.000  H
  C9       1.0000 0.31560  0.23070  0.26360  Biso   1.000  C
  H8       1.0000 0.29980  0.19590  0.29740  Biso   1.000  H
  H9       1.0000 0.33770  0.21550  0.21140  Biso   1.000  H
  N1       1.0000 0.56630  0.23450  0.32490  Biso   1.000  N
  O1       1.0000 0.92110  0.34100  0.43670  Biso   1.000  O
  O2       1.0000 0.10160  0.08970  0.28810  Biso   1.000  O
  O3       1.0000 0.05690  0.05400  0.42110  Biso   1.000  O
  O4       1.0000 0.87100  0.06290  0.28990  Biso   1.000  O
  S1       1.0000 0.00235  0.08753  0.34022  Biso   1.000  S
  K1       1.0000 0.83862  0.96762  0.40370  Biso   1.000  K
  H10      1.0000 0.56100  0.19820  0.34200  Biso   1.000  H
  H11      1.0000 0.81100  0.08200  0.52600  Biso   1.000  H
  C10      1.0000 0.32230  0.74530  0.88120  Biso   1.000  C
  C11      1.0000 0.43620  0.78420  0.91760  Biso   1.000  C
  C12      1.0000 0.56900  0.75770  0.93180  Biso   1.000  C
  H12      1.0000 0.64590  0.78100  0.95780  Biso   1.000  H
  C13      1.0000 0.58610  0.69910  0.90810  Biso   1.000  C
  H13      1.0000 0.67430  0.68350  0.91780  Biso   1.000  H
  C14      1.0000 0.47520  0.66230  0.87010  Biso   1.000  C
  C15      1.0000 0.34130  0.68650  0.85730  Biso   1.000  C
  H14      1.0000 0.26560  0.66230  0.83240  Biso   1.000  H
  C16      1.0000 0.18140  0.77370  0.87040  Biso   1.000  C
  H15      1.0000 0.17090  0.78370  0.92800  Biso   1.000  H
  H16      1.0000 0.17680  0.81150  0.83790  Biso   1.000  H
  C17      1.0000 0.93540  0.76720  0.81750  Biso   1.000  C
  H17      1.0000 0.93830  0.80660  0.79010  Biso   1.000  H
  H18      1.0000 0.92350  0.77410  0.87560  Biso   1.000  H
  C18      1.0000 0.81560  0.73070  0.76360  Biso   1.000  C
  H19      1.0000 0.79980  0.69590  0.79740  Biso   1.000  H
  H20      1.0000 0.83770  0.71550  0.71140  Biso   1.000  H
  N2       1.0000 0.06630  0.73450  0.82490  Biso   1.000  N
  O5       1.0000 0.42110  0.84100  0.93670  Biso   1.000  O
  O6       1.0000 0.60160  0.58970  0.78810  Biso   1.000  O
  O7       1.0000 0.55690  0.55400  0.92110  Biso   1.000  O
  O8       1.0000 0.37100  0.56290  0.78990  Biso   1.000  O
  S2       1.0000 0.50235  0.58753  0.84022  Biso   1.000  S
  K2       1.0000 0.33862  0.46762  0.90370  Biso   1.000  K
  H21      1.0000 0.06100  0.69820  0.84200  Biso   1.000  H
  H22      1.0000 0.31100  0.58200  0.02600  Biso   1.000  H
  C19      1.0000 0.67770  0.24530  0.61880  Biso   1.000  C
  C20      1.0000 0.56380  0.28420  0.58240  Biso   1.000  C
  C21      1.0000 0.43100  0.25770  0.56820  Biso   1.000  C
  H23      1.0000 0.35410  0.28100  0.54220  Biso   1.000  H
  C22      1.0000 0.41390  0.19910  0.59190  Biso   1.000  C
  H24      1.0000 0.32570  0.18350  0.58220  Biso   1.000  H
  C23      1.0000 0.52480  0.16230  0.62990  Biso   1.000  C
  C24      1.0000 0.65870  0.18650  0.64270  Biso   1.000  C
  H25      1.0000 0.73440  0.16230  0.66760  Biso   1.000  H
  C25      1.0000 0.81860  0.27370  0.62960  Biso   1.000  C
  H26      1.0000 0.82910  0.28370  0.57200  Biso   1.000  H
  H27      1.0000 0.82320  0.31150  0.66210  Biso   1.000  H
  C26      1.0000 0.06460  0.26720  0.68250  Biso   1.000  C
  H28      1.0000 0.06170  0.30660  0.70990  Biso   1.000  H
  H29      1.0000 0.07650  0.27410  0.62440  Biso   1.000  H
  C27      1.0000 0.18440  0.23070  0.73640  Biso   1.000  C
  H30      1.0000 0.20020  0.19590  0.70260  Biso   1.000  H
  H31      1.0000 0.16230  0.21550  0.78860  Biso   1.000  H
  N3       1.0000 0.93370  0.23450  0.67510  Biso   1.000  N
  O9       1.0000 0.57890  0.34100  0.56330  Biso   1.000  O
  O10      1.0000 0.39840  0.08970  0.71190  Biso   1.000  O
  O11      1.0000 0.44310  0.05400  0.57890  Biso   1.000  O
  O12      1.0000 0.62900  0.06290  0.71010  Biso   1.000  O
  S3       1.0000 0.49765  0.08753  0.65978  Biso   1.000  S
  K3       1.0000 0.66138  0.96762  0.59630  Biso   1.000  K
  H32      1.0000 0.93900  0.19820  0.65800  Biso   1.000  H
  H33      1.0000 0.68900  0.08200  0.47400  Biso   1.000  H
  C28      1.0000 0.17770  0.74530  0.11880  Biso   1.000  C
  C29      1.0000 0.06380  0.78420  0.08240  Biso   1.000  C
  C30      1.0000 0.93100  0.75770  0.06820  Biso   1.000  C
  H34      1.0000 0.85410  0.78100  0.04220  Biso   1.000  H
  C31      1.0000 0.91390  0.69910  0.09190  Biso   1.000  C
  H35      1.0000 0.82570  0.68350  0.08220  Biso   1.000  H
  C32      1.0000 0.02480  0.66230  0.12990  Biso   1.000  C
  C33      1.0000 0.15870  0.68650  0.14270  Biso   1.000  C
  H36      1.0000 0.23440  0.66230  0.16760  Biso   1.000  H
  C34      1.0000 0.31860  0.77370  0.12960  Biso   1.000  C
  H37      1.0000 0.32910  0.78370  0.07200  Biso   1.000  H
  H38      1.0000 0.32320  0.81150  0.16210  Biso   1.000  H
  C35      1.0000 0.56460  0.76720  0.18250  Biso   1.000  C
  H39      1.0000 0.56170  0.80660  0.20990  Biso   1.000  H
  H40      1.0000 0.57650  0.77410  0.12440  Biso   1.000  H
  C36      1.0000 0.68440  0.73070  0.23640  Biso   1.000  C
  H41      1.0000 0.70020  0.69590  0.20260  Biso   1.000  H
  H42      1.0000 0.66230  0.71550  0.28860  Biso   1.000  H
  N4       1.0000 0.43370  0.73450  0.17510  Biso   1.000  N
  O13      1.0000 0.07890  0.84100  0.06330  Biso   1.000  O
  O14      1.0000 0.89840  0.58970  0.21190  Biso   1.000  O
  O15      1.0000 0.94310  0.55400  0.07890  Biso   1.000  O
  O16      1.0000 0.12900  0.56290  0.21010  Biso   1.000  O
  S4       1.0000 0.99765  0.58753  0.15978  Biso   1.000  S
  K4       1.0000 0.16138  0.46762  0.09630  Biso   1.000  K
  H43      1.0000 0.43900  0.69820  0.15800  Biso   1.000  H
  H44      1.0000 0.18900  0.58200  0.97400  Biso   1.000  H
  C37      1.0000 0.17770  0.75470  0.61880  Biso   1.000  C
  C38      1.0000 0.06380  0.71580  0.58240  Biso   1.000  C
  C39      1.0000 0.93100  0.74230  0.56820  Biso   1.000  C
  H45      1.0000 0.85410  0.71900  0.54220  Biso   1.000  H
  C40      1.0000 0.91390  0.80090  0.59190  Biso   1.000  C
  H46      1.0000 0.82570  0.81650  0.58220  Biso   1.000  H
  C41      1.0000 0.02480  0.83770  0.62990  Biso   1.000  C
  C42      1.0000 0.15870  0.81350  0.64270  Biso   1.000  C
  H47      1.0000 0.23440  0.83770  0.66760  Biso   1.000  H
  C43      1.0000 0.31860  0.72630  0.62960  Biso   1.000  C
  H48      1.0000 0.32910  0.71630  0.57200  Biso   1.000  H
  H49      1.0000 0.32320  0.68850  0.66210  Biso   1.000  H
  C44      1.0000 0.56460  0.73280  0.68250  Biso   1.000  C
  H50      1.0000 0.56170  0.69340  0.70990  Biso   1.000  H
  H51      1.0000 0.57650  0.72590  0.62440  Biso   1.000  H
  C45      1.0000 0.68440  0.76930  0.73640  Biso   1.000  C
  H52      1.0000 0.70020  0.80410  0.70260  Biso   1.000  H
  H53      1.0000 0.66230  0.78450  0.78860  Biso   1.000  H
  N5       1.0000 0.43370  0.76550  0.67510  Biso   1.000  N
  O17      1.0000 0.07890  0.65900  0.56330  Biso   1.000  O
  O18      1.0000 0.89840  0.91030  0.71190  Biso   1.000  O
  O19      1.0000 0.94310  0.94600  0.57890  Biso   1.000  O
  O20      1.0000 0.12900  0.93710  0.71010  Biso   1.000  O
  S5       1.0000 0.99765  0.91247  0.65978  Biso   1.000  S
  K5       1.0000 0.16138  0.03238  0.59630  Biso   1.000  K
  H54      1.0000 0.43900  0.80180  0.65800  Biso   1.000  H
  H55      1.0000 0.18900  0.91800  0.47400  Biso   1.000  H
  C46      1.0000 0.67770  0.25470  0.11880  Biso   1.000  C
  C47      1.0000 0.56380  0.21580  0.08240  Biso   1.000  C
  C48      1.0000 0.43100  0.24230  0.06820  Biso   1.000  C
  H56      1.0000 0.35410  0.21900  0.04220  Biso   1.000  H
  C49      1.0000 0.41390  0.30090  0.09190  Biso   1.000  C
  H57      1.0000 0.32570  0.31650  0.08220  Biso   1.000  H
  C50      1.0000 0.52480  0.33770  0.12990  Biso   1.000  C
  C51      1.0000 0.65870  0.31350  0.14270  Biso   1.000  C
  H58      1.0000 0.73440  0.33770  0.16760  Biso   1.000  H
  C52      1.0000 0.81860  0.22630  0.12960  Biso   1.000  C
  H59      1.0000 0.82910  0.21630  0.07200  Biso   1.000  H
  H60      1.0000 0.82320  0.18850  0.16210  Biso   1.000  H
  C53      1.0000 0.06460  0.23280  0.18250  Biso   1.000  C
  H61      1.0000 0.06170  0.19340  0.20990  Biso   1.000  H
  H62      1.0000 0.07650  0.22590  0.12440  Biso   1.000  H
  C54      1.0000 0.18440  0.26930  0.23640  Biso   1.000  C
  H63      1.0000 0.20020  0.30410  0.20260  Biso   1.000  H
  H64      1.0000 0.16230  0.28450  0.28860  Biso   1.000  H
  N6       1.0000 0.93370  0.26550  0.17510  Biso   1.000  N
  O21      1.0000 0.57890  0.15900  0.06330  Biso   1.000  O
  O22      1.0000 0.39840  0.41030  0.21190  Biso   1.000  O
  O23      1.0000 0.44310  0.44600  0.07890  Biso   1.000  O
  O24      1.0000 0.62900  0.43710  0.21010  Biso   1.000  O
  S6       1.0000 0.49765  0.41247  0.15978  Biso   1.000  S
  K6       1.0000 0.66138  0.53238  0.09630  Biso   1.000  K
  H65      1.0000 0.93900  0.30180  0.15800  Biso   1.000  H
  H66      1.0000 0.68900  0.41800  0.97400  Biso   1.000  H
  C55      1.0000 0.32230  0.75470  0.38120  Biso   1.000  C
  C56      1.0000 0.43620  0.71580  0.41760  Biso   1.000  C
  C57      1.0000 0.56900  0.74230  0.43180  Biso   1.000  C
  H67      1.0000 0.64590  0.71900  0.45780  Biso   1.000  H
  C58      1.0000 0.58610  0.80090  0.40810  Biso   1.000  C
  H68      1.0000 0.67430  0.81650  0.41780  Biso   1.000  H
  C59      1.0000 0.47520  0.83770  0.37010  Biso   1.000  C
  C60      1.0000 0.34130  0.81350  0.35730  Biso   1.000  C
  H69      1.0000 0.26560  0.83770  0.33240  Biso   1.000  H
  C61      1.0000 0.18140  0.72630  0.37040  Biso   1.000  C
  H70      1.0000 0.17090  0.71630  0.42800  Biso   1.000  H
  H71      1.0000 0.17680  0.68850  0.33790  Biso   1.000  H
  C62      1.0000 0.93540  0.73280  0.31750  Biso   1.000  C
  H72      1.0000 0.93830  0.69340  0.29010  Biso   1.000  H
  H73      1.0000 0.92350  0.72590  0.37560  Biso   1.000  H
  C63      1.0000 0.81560  0.76930  0.26360  Biso   1.000  C
  H74      1.0000 0.79980  0.80410  0.29740  Biso   1.000  H
  H75      1.0000 0.83770  0.78450  0.21140  Biso   1.000  H
  N7       1.0000 0.06630  0.76550  0.32490  Biso   1.000  N
  O25      1.0000 0.42110  0.65900  0.43670  Biso   1.000  O
  O26      1.0000 0.60160  0.91030  0.28810  Biso   1.000  O
  O27      1.0000 0.55690  0.94600  0.42110  Biso   1.000  O
  O28      1.0000 0.37100  0.93710  0.28990  Biso   1.000  O
  S7       1.0000 0.50235  0.91247  0.34022  Biso   1.000  S
  K7       1.0000 0.33862  0.03238  0.40370  Biso   1.000  K
  H76      1.0000 0.06100  0.80180  0.34200  Biso   1.000  H
  H77      1.0000 0.31100  0.91800  0.52600  Biso   1.000  H
  C64      1.0000 0.82230  0.25470  0.88120  Biso   1.000  C
  C65      1.0000 0.93620  0.21580  0.91760  Biso   1.000  C
  C66      1.0000 0.06900  0.24230  0.93180  Biso   1.000  C
  H78      1.0000 0.14590  0.21900  0.95780  Biso   1.000  H
  C67      1.0000 0.08610  0.30090  0.90810  Biso   1.000  C
  H79      1.0000 0.17430  0.31650  0.91780  Biso   1.000  H
  C68      1.0000 0.97520  0.33770  0.87010  Biso   1.000  C
  C69      1.0000 0.84130  0.31350  0.85730  Biso   1.000  C
  H80      1.0000 0.76560  0.33770  0.83240  Biso   1.000  H
  C70      1.0000 0.68140  0.22630  0.87040  Biso   1.000  C
  H81      1.0000 0.67090  0.21630  0.92800  Biso   1.000  H
  H82      1.0000 0.67680  0.18850  0.83790  Biso   1.000  H
  C71      1.0000 0.43540  0.23280  0.81750  Biso   1.000  C
  H83      1.0000 0.43830  0.19340  0.79010  Biso   1.000  H
  H84      1.0000 0.42350  0.22590  0.87560  Biso   1.000  H
  C72      1.0000 0.31560  0.26930  0.76360  Biso   1.000  C
  H85      1.0000 0.29980  0.30410  0.79740  Biso   1.000  H
  H86      1.0000 0.33770  0.28450  0.71140  Biso   1.000  H
  N8       1.0000 0.56630  0.26550  0.82490  Biso   1.000  N
  O29      1.0000 0.92110  0.15900  0.93670  Biso   1.000  O
  O30      1.0000 0.10160  0.41030  0.78810  Biso   1.000  O
  O31      1.0000 0.05690  0.44600  0.92110  Biso   1.000  O
  O32      1.0000 0.87100  0.43710  0.78990  Biso   1.000  O
  S8       1.0000 0.00235  0.41247  0.84022  Biso   1.000  S
  K8       1.0000 0.83862  0.53238  0.90370  Biso   1.000  K
  H87      1.0000 0.56100  0.30180  0.84200  Biso   1.000  H
  H88      1.0000 0.81100  0.41800  0.02600  Biso   1.000  H
  O33      1.0000 0.75000  0.05740  0.50000  Biso   1.000  O
  O34      1.0000 0.25000  0.55740  0.00000  Biso   1.000  O
  O35      1.0000 0.25000  0.94260  0.50000  Biso   1.000  O
  O36      1.0000 0.75000  0.44260  0.00000  Biso   1.000  O
