data_KONCIA_clean
_audit_creation_date              2014-07-02
_audit_creation_method            'Materials Studio'
_symmetry_space_group_name_H-M    'P1'
_symmetry_Int_Tables_number       1
_symmetry_cell_setting            triclinic
loop_
_symmetry_equiv_pos_as_xyz
  x,y,z
_cell_length_a                    9.1631
_cell_length_b                    9.1631
_cell_length_c                    14.8213
_cell_angle_alpha                 100.0190
_cell_angle_beta                  100.0200
_cell_angle_gamma                 115.9230
loop_
_atom_site_label
_atom_site_type_symbol
_atom_site_fract_x
_atom_site_fract_y
_atom_site_fract_z
_atom_site_U_iso_or_equiv
_atom_site_adp_type
_atom_site_occupancy
Pr1    Pr    0.24054   0.49054   0.98108   0.01267  Uiso   1.00
Pr2    Pr    0.00946   0.25946   0.51892   0.01267  Uiso   1.00
Pr3    Pr    0.75946   0.50946   0.01892   0.01267  Uiso   1.00
Pr4    Pr    0.99054   0.74054   0.48108   0.01267  Uiso   1.00
H1     H     0.65850   0.06190   0.96960   0.01267  Uiso   1.00
H2     H     0.63670   0.02170   0.85980   0.01267  Uiso   1.00
H3     H     0.81110   0.90770   0.96960   0.01267  Uiso   1.00
H4     H     0.72310   0.83810   0.85980   0.01267  Uiso   1.00
H5     H     0.43810   0.84150   0.53040   0.01267  Uiso   1.00
H6     H     0.47830   0.86330   0.64020   0.01267  Uiso   1.00
H7     H     0.59230   0.68890   0.53040   0.01267  Uiso   1.00
H8     H     0.66190   0.77690   0.64020   0.01267  Uiso   1.00
H9     H     0.34150   0.93810   0.03040   0.01267  Uiso   1.00
H10    H     0.36330   0.97830   0.14020   0.01267  Uiso   1.00
H11    H     0.18890   0.09230   0.03040   0.01267  Uiso   1.00
H12    H     0.27690   0.16190   0.14020   0.01267  Uiso   1.00
H13    H     0.56190   0.15850   0.46960   0.01267  Uiso   1.00
H14    H     0.52170   0.13670   0.35980   0.01267  Uiso   1.00
H15    H     0.40770   0.31110   0.46960   0.01267  Uiso   1.00
H16    H     0.33810   0.22310   0.35980   0.01267  Uiso   1.00
C1     C     0.87637   0.19317   0.93754   0.01267  Uiso   1.00
C2     C     0.70980   0.03860   0.92100   0.01267  Uiso   1.00
C3     C     0.56117   0.74437   0.93754   0.01267  Uiso   1.00
C4     C     0.71120   0.88240   0.92100   0.01267  Uiso   1.00
C5     C     0.30683   0.62363   0.56246   0.01267  Uiso   1.00
C6     C     0.46140   0.79020   0.57900   0.01267  Uiso   1.00
C7     C     0.75563   0.93883   0.56246   0.01267  Uiso   1.00
C8     C     0.61760   0.78880   0.57900   0.01267  Uiso   1.00
C9     C     0.12363   0.80683   0.06246   0.01267  Uiso   1.00
C10    C     0.29020   0.96140   0.07900   0.01267  Uiso   1.00
C11    C     0.43883   0.25563   0.06246   0.01267  Uiso   1.00
C12    C     0.28880   0.11760   0.07900   0.01267  Uiso   1.00
C13    C     0.69317   0.37637   0.43754   0.01267  Uiso   1.00
C14    C     0.53860   0.20980   0.42100   0.01267  Uiso   1.00
C15    C     0.24437   0.06117   0.43754   0.01267  Uiso   1.00
C16    C     0.38240   0.21120   0.42100   0.01267  Uiso   1.00
C17    C     0.17510   0.32490   0.75000   0.01267  Uiso   1.00
C18    C     0.07490   0.42510   0.75000   0.01267  Uiso   1.00
C19    C     0.82490   0.67510   0.25000   0.01267  Uiso   1.00
C20    C     0.92510   0.57490   0.25000   0.01267  Uiso   1.00
O1     O     0.00131   0.18219   0.92030   0.01267  Uiso   1.00
O2     O     0.26202   0.33966   0.82948   0.01267  Uiso   1.00
O3     O     0.88513   0.33439   0.96712   0.01267  Uiso   1.00
O4     O     0.41899   0.73811   0.92030   0.01267  Uiso   1.00
O5     O     0.06746   0.48982   0.82948   0.01267  Uiso   1.00
O6     O     0.58199   0.63273   0.96712   0.01267  Uiso   1.00
O7     O     0.31781   0.49869   0.57970   0.01267  Uiso   1.00
O8     O     0.16034   0.23798   0.67052   0.01267  Uiso   1.00
O9     O     0.16561   0.61487   0.53288   0.01267  Uiso   1.00
O10    O     0.76189   0.08101   0.57970   0.01267  Uiso   1.00
O11    O     0.01018   0.43254   0.67052   0.01267  Uiso   1.00
O12    O     0.86727   0.91801   0.53288   0.01267  Uiso   1.00
O13    O     0.99869   0.81781   0.07970   0.01267  Uiso   1.00
O14    O     0.73798   0.66034   0.17052   0.01267  Uiso   1.00
O15    O     0.11487   0.66561   0.03288   0.01267  Uiso   1.00
O16    O     0.58101   0.26189   0.07970   0.01267  Uiso   1.00
O17    O     0.93254   0.51018   0.17052   0.01267  Uiso   1.00
O18    O     0.41801   0.36727   0.03288   0.01267  Uiso   1.00
O19    O     0.68219   0.50131   0.42030   0.01267  Uiso   1.00
O20    O     0.83966   0.76202   0.32948   0.01267  Uiso   1.00
O21    O     0.83439   0.38513   0.46712   0.01267  Uiso   1.00
O22    O     0.23811   0.91899   0.42030   0.01267  Uiso   1.00
O23    O     0.98982   0.56746   0.32948   0.01267  Uiso   1.00
O24    O     0.13273   0.08199   0.46712   0.01267  Uiso   1.00
