data_image0
_cell_length_a       6.975
_cell_length_b       12.901
_cell_length_c       13.551
_cell_angle_alpha    90
_cell_angle_beta     100.729
_cell_angle_gamma    90

_symmetry_space_group_name_H-M    "P 1"
_symmetry_int_tables_number       1

loop_
  _symmetry_equiv_pos_as_xyz
  'x, y, z'

loop_
  _atom_site_label
  _atom_site_occupancy
  _atom_site_fract_x
  _atom_site_fract_y
  _atom_site_fract_z
  _atom_site_thermal_displace_type
  _atom_site_B_iso_or_equiv
  _atom_site_type_symbol
  Ce1      1.0000 0.20663  0.96012  0.04123  Biso   1.000  Ce
  Ce2      1.0000 0.41472  0.03765  0.55864  Biso   1.000  Ce
  S1       1.0000 0.74170  0.94140  0.81170  Biso   1.000  S
  S2       1.0000 0.36710  0.70820  0.20100  Biso   1.000  S
  S3       1.0000 0.40310  0.69260  0.94770  Biso   1.000  S
  O1       1.0000 0.34600  0.00430  0.89040  Biso   1.000  O
  O2       1.0000 0.36030  0.00550  0.72990  Biso   1.000  O
  O3       1.0000 0.07800  0.09280  0.57300  Biso   1.000  O
  O4       1.0000 0.75700  0.08870  0.53530  Biso   1.000  O
  O5       1.0000 0.25960  0.02890  0.21480  Biso   1.000  O
  O6       1.0000 0.32900  0.02490  0.37990  Biso   1.000  O
  O7       1.0000 0.58500  0.88800  0.50750  Biso   1.000  O
  O8       1.0000 0.61500  0.71720  0.50940  Biso   1.000  O
  O9       1.0000 0.57800  0.97270  0.09700  Biso   1.000  O
  O10      1.0000 0.88740  0.94110  0.09180  Biso   1.000  O
  O11      1.0000 0.07300  0.78010  0.00520  Biso   1.000  O
  O12      1.0000 0.00000  0.61540  0.00890  Biso   1.000  O
  N1       1.0000 0.97500  0.95250  0.84960  Biso   1.000  N
  N2       1.0000 0.73100  0.98930  0.70020  Biso   1.000  N
  N3       1.0000 0.31400  0.83210  0.19880  Biso   1.000  N
  N4       1.0000 0.46300  0.70170  0.31540  Biso   1.000  N
  N5       1.0000 0.45300  0.80630  0.99490  Biso   1.000  N
  N6       1.0000 0.62500  0.65640  0.95380  Biso   1.000  N
  C1       1.0000 0.04500  0.98690  0.77390  Biso   1.000  C
  C2       1.0000 0.90900  0.01370  0.68930  Biso   1.000  C
  C3       1.0000 0.26200  0.00200  0.79730  Biso   1.000  C
  C4       1.0000 0.92800  0.06910  0.59280  Biso   1.000  C
  C5       1.0000 0.37300  0.87150  0.28730  Biso   1.000  C
  C6       1.0000 0.45900  0.79550  0.35780  Biso   1.000  C
  C7       1.0000 0.32300  0.98060  0.29670  Biso   1.000  C
  C8       1.0000 0.55700  0.80040  0.46590  Biso   1.000  C
  C9       1.0000 0.64400  0.82010  0.01560  Biso   1.000  C
  C10      1.0000 0.74600  0.73310  0.99240  Biso   1.000  C
  C11      1.0000 0.71300  0.92010  0.07210  Biso   1.000  C
  C12      1.0000 0.95900  0.71130  0.00580  Biso   1.000  C
  Ce3      1.0000 0.79337  0.46012  0.95877  Biso   1.000  Ce
  Ce4      1.0000 0.58528  0.53765  0.44136  Biso   1.000  Ce
  S4       1.0000 0.25830  0.44140  0.18830  Biso   1.000  S
  S5       1.0000 0.63290  0.20820  0.79900  Biso   1.000  S
  S6       1.0000 0.59690  0.19260  0.05230  Biso   1.000  S
  O13      1.0000 0.65400  0.50430  0.10960  Biso   1.000  O
  O14      1.0000 0.63970  0.50550  0.27010  Biso   1.000  O
  O15      1.0000 0.92200  0.59280  0.42700  Biso   1.000  O
  O16      1.0000 0.24300  0.58870  0.46470  Biso   1.000  O
  O17      1.0000 0.74040  0.52890  0.78520  Biso   1.000  O
  O18      1.0000 0.67100  0.52490  0.62010  Biso   1.000  O
  O19      1.0000 0.41500  0.38800  0.49250  Biso   1.000  O
  O20      1.0000 0.38500  0.21720  0.49060  Biso   1.000  O
  O21      1.0000 0.42200  0.47270  0.90300  Biso   1.000  O
  O22      1.0000 0.11260  0.44110  0.90820  Biso   1.000  O
  O23      1.0000 0.92700  0.28010  0.99480  Biso   1.000  O
  O24      1.0000 0.00000  0.11540  0.99110  Biso   1.000  O
  N7       1.0000 0.02500  0.45250  0.15040  Biso   1.000  N
  N8       1.0000 0.26900  0.48930  0.29980  Biso   1.000  N
  N9       1.0000 0.68600  0.33210  0.80120  Biso   1.000  N
  N10      1.0000 0.53700  0.20170  0.68460  Biso   1.000  N
  N11      1.0000 0.54700  0.30630  0.00510  Biso   1.000  N
  N12      1.0000 0.37500  0.15640  0.04620  Biso   1.000  N
  C13      1.0000 0.95500  0.48690  0.22610  Biso   1.000  C
  C14      1.0000 0.09100  0.51370  0.31070  Biso   1.000  C
  C15      1.0000 0.73800  0.50200  0.20270  Biso   1.000  C
  C16      1.0000 0.07200  0.56910  0.40720  Biso   1.000  C
  C17      1.0000 0.62700  0.37150  0.71270  Biso   1.000  C
  C18      1.0000 0.54100  0.29550  0.64220  Biso   1.000  C
  C19      1.0000 0.67700  0.48060  0.70330  Biso   1.000  C
  C20      1.0000 0.44300  0.30040  0.53410  Biso   1.000  C
  C21      1.0000 0.35600  0.32010  0.98440  Biso   1.000  C
  C22      1.0000 0.25400  0.23310  0.00760  Biso   1.000  C
  C23      1.0000 0.28700  0.42010  0.92790  Biso   1.000  C
  C24      1.0000 0.04100  0.21130  0.99420  Biso   1.000  C
