data_image0
_cell_length_a       7.0404
_cell_length_b       13.0015
_cell_length_c       13.7338
_cell_angle_alpha    90
_cell_angle_beta     100.881
_cell_angle_gamma    90

_symmetry_space_group_name_H-M    "P 1"
_symmetry_int_tables_number       1

loop_
  _symmetry_equiv_pos_as_xyz
  'x, y, z'

loop_
  _atom_site_label
  _atom_site_occupancy
  _atom_site_fract_x
  _atom_site_fract_y
  _atom_site_fract_z
  _atom_site_thermal_displace_type
  _atom_site_B_iso_or_equiv
  _atom_site_type_symbol
  La1      1.0000 0.79235  0.03844  0.95774  Biso   1.000  La
  La2      1.0000 0.58678  0.96409  0.44074  Biso   1.000  La
  S1       1.0000 0.25810  0.05736  0.18774  Biso   1.000  S
  S2       1.0000 0.63210  0.29124  0.79814  Biso   1.000  S
  S3       1.0000 0.59530  0.30682  0.04923  Biso   1.000  S
  O1       1.0000 0.65830  0.99540  0.11160  Biso   1.000  O
  O2       1.0000 0.64110  0.99330  0.26950  Biso   1.000  O
  O3       1.0000 0.92160  0.90910  0.42690  Biso   1.000  O
  O4       1.0000 0.24230  0.91240  0.46070  Biso   1.000  O
  O5       1.0000 0.73350  0.97200  0.78340  Biso   1.000  O
  O6       1.0000 0.67300  0.97940  0.61970  Biso   1.000  O
  O7       1.0000 0.41300  0.11270  0.49330  Biso   1.000  O
  O8       1.0000 0.38250  0.28290  0.49410  Biso   1.000  O
  O9       1.0000 0.42110  0.02530  0.90280  Biso   1.000  O
  O10      1.0000 0.11430  0.05900  0.90880  Biso   1.000  O
  O11      1.0000 0.92710  0.21710  0.99540  Biso   1.000  O
  O12      1.0000 0.00040  0.38250  0.99240  Biso   1.000  O
  N1       1.0000 0.02580  0.04980  0.15070  Biso   1.000  N
  N2       1.0000 0.26900  0.01000  0.29870  Biso   1.000  N
  N3       1.0000 0.68490  0.16910  0.80110  Biso   1.000  N
  N4       1.0000 0.53650  0.29790  0.68340  Biso   1.000  N
  N5       1.0000 0.54800  0.19200  0.00330  Biso   1.000  N
  N6       1.0000 0.37160  0.34010  0.04400  Biso   1.000  N
  C1       1.0000 0.94800  0.00960  0.22480  Biso   1.000  C
  C2       1.0000 0.09060  0.98610  0.31100  Biso   1.000  C
  C3       1.0000 0.73280  0.99710  0.20070  Biso   1.000  C
  C4       1.0000 0.07900  0.93110  0.40760  Biso   1.000  C
  C5       1.0000 0.62760  0.13040  0.71140  Biso   1.000  C
  C6       1.0000 0.54070  0.20510  0.64180  Biso   1.000  C
  C7       1.0000 0.67860  0.01700  0.70330  Biso   1.000  C
  C8       1.0000 0.44130  0.19870  0.53420  Biso   1.000  C
  C9       1.0000 0.35780  0.17910  0.98170  Biso   1.000  C
  C10      1.0000 0.25580  0.26500  0.00750  Biso   1.000  C
  C11      1.0000 0.29040  0.07960  0.92780  Biso   1.000  C
  C12      1.0000 0.04340  0.28790  0.99680  Biso   1.000  C
  La3      1.0000 0.20765  0.53844  0.04226  Biso   1.000  La
  La4      1.0000 0.41322  0.46409  0.55926  Biso   1.000  La
  S4       1.0000 0.74190  0.55736  0.81226  Biso   1.000  S
  S5       1.0000 0.36790  0.79124  0.20186  Biso   1.000  S
  S6       1.0000 0.40470  0.80682  0.95077  Biso   1.000  S
  O13      1.0000 0.34170  0.49540  0.88840  Biso   1.000  O
  O14      1.0000 0.35890  0.49330  0.73050  Biso   1.000  O
  O15      1.0000 0.07840  0.40910  0.57310  Biso   1.000  O
  O16      1.0000 0.75770  0.41240  0.53930  Biso   1.000  O
  O17      1.0000 0.26650  0.47200  0.21660  Biso   1.000  O
  O18      1.0000 0.32700  0.47940  0.38030  Biso   1.000  O
  O19      1.0000 0.58700  0.61270  0.50670  Biso   1.000  O
  O20      1.0000 0.61750  0.78290  0.50590  Biso   1.000  O
  O21      1.0000 0.57890  0.52530  0.09720  Biso   1.000  O
  O22      1.0000 0.88570  0.55900  0.09120  Biso   1.000  O
  O23      1.0000 0.07290  0.71710  0.00460  Biso   1.000  O
  O24      1.0000 0.99960  0.88250  0.00760  Biso   1.000  O
  N7       1.0000 0.97420  0.54980  0.84930  Biso   1.000  N
  N8       1.0000 0.73100  0.51000  0.70130  Biso   1.000  N
  N9       1.0000 0.31510  0.66910  0.19890  Biso   1.000  N
  N10      1.0000 0.46350  0.79790  0.31660  Biso   1.000  N
  N11      1.0000 0.45200  0.69200  0.99670  Biso   1.000  N
  N12      1.0000 0.62840  0.84010  0.95600  Biso   1.000  N
  C13      1.0000 0.05200  0.50960  0.77520  Biso   1.000  C
  C14      1.0000 0.90940  0.48610  0.68900  Biso   1.000  C
  C15      1.0000 0.26720  0.49710  0.79930  Biso   1.000  C
  C16      1.0000 0.92100  0.43110  0.59240  Biso   1.000  C
  C17      1.0000 0.37240  0.63040  0.28860  Biso   1.000  C
  C18      1.0000 0.45930  0.70510  0.35820  Biso   1.000  C
  C19      1.0000 0.32140  0.51700  0.29670  Biso   1.000  C
  C20      1.0000 0.55870  0.69870  0.46580  Biso   1.000  C
  C21      1.0000 0.64220  0.67910  0.01830  Biso   1.000  C
  C22      1.0000 0.74420  0.76500  0.99250  Biso   1.000  C
  C23      1.0000 0.70960  0.57960  0.07220  Biso   1.000  C
  C24      1.0000 0.95660  0.78790  0.00320  Biso   1.000  C
