data_KOSJIN_clean
_audit_creation_date              2015-10-16
_audit_creation_method            'Materials Studio'
_symmetry_space_group_name_H-M    'P1'
_symmetry_Int_Tables_number       1
_symmetry_cell_setting            triclinic
loop_
_symmetry_equiv_pos_as_xyz
  x,y,z
_cell_length_a                    6.7898
_cell_length_b                    15.0963
_cell_length_c                    15.0963
_cell_angle_alpha                 62.2066
_cell_angle_beta                  81.3775
_cell_angle_gamma                 98.6225
loop_
_atom_site_label
_atom_site_type_symbol
_atom_site_fract_x
_atom_site_fract_y
_atom_site_fract_z
_atom_site_U_iso_or_equiv
_atom_site_adp_type
_atom_site_occupancy
Co1    Co    0.40030   0.58330   0.71740   0.01267  Uiso   1.00
Co2    Co    0.81700   0.69930   0.58330   0.01267  Uiso   1.00
Co3    Co    0.11770   0.71740   0.69930   0.01267  Uiso   1.00
Co4    Co    0.40030   0.28260   0.41670   0.01267  Uiso   1.00
Co5    Co    0.11770   0.30070   0.28260   0.01267  Uiso   1.00
Co6    Co    0.81700   0.41670   0.30070   0.01267  Uiso   1.00
H1     H     0.24470  -0.00000   0.48390   0.01267  Uiso   1.00
H2     H     0.53470   0.42310   0.00000   0.01267  Uiso   1.00
H3     H     0.72860   0.48390   0.51610   0.01267  Uiso   1.00
H4     H     0.24470   0.51610  -0.00000   0.01267  Uiso   1.00
H5     H     0.53470  -0.00000   0.57690   0.01267  Uiso   1.00
H6     H     0.11160   0.57690   0.42310   0.01267  Uiso   1.00
C1     C     0.72970   0.41500   0.09390   0.01267  Uiso   1.00
C2     C     0.94440   0.90810   0.56030   0.01267  Uiso   1.00
C3     C     0.31470   0.58500   0.50890   0.01267  Uiso   1.00
C4     C     0.50470   0.46840   0.43970   0.01267  Uiso   1.00
C5     C     0.20260   0.64430   0.54150   0.01267  Uiso   1.00
C6     C     0.58170   0.50355   0.49645   0.01267  Uiso   1.00
C7     C     0.94440   0.43970   0.09190   0.01267  Uiso   1.00
C8     C     0.72970   0.90610   0.58500   0.01267  Uiso   1.00
C9     C     0.03630   0.09190   0.46840   0.01267  Uiso   1.00
C10    C     0.07815  -0.00000   0.50355   0.01267  Uiso   1.00
C11    C     0.82360   0.09390   0.49110   0.01267  Uiso   1.00
C12    C     0.50470   0.56030   0.53160   0.01267  Uiso   1.00
C13    C     0.68075  -0.00000   0.55875   0.01267  Uiso   1.00
C14    C     0.74410   0.54150   0.81420   0.01267  Uiso   1.00
C15    C     0.82360   0.50890   0.90610   0.01267  Uiso   1.00
C16    C     0.68075   0.44125  -0.00000   0.01267  Uiso   1.00
C17    C     0.55830   0.81420   0.64430   0.01267  Uiso   1.00
C18    C     0.20260   0.45850   0.35570   0.01267  Uiso   1.00
C19    C     0.03630   0.53160   0.90810   0.01267  Uiso   1.00
C20    C     0.55830   0.35570   0.18580   0.01267  Uiso   1.00
C21    C     0.31470   0.49110   0.41500   0.01267  Uiso   1.00
C22    C     0.23950   0.55875   0.44125   0.01267  Uiso   1.00
C23    C     0.74410   0.18580   0.45850   0.01267  Uiso   1.00
C24    C     0.07815   0.49645   0.00000   0.01267  Uiso   1.00
O1     O     0.59800   0.34130   0.27460   0.01267  Uiso   1.00
O2     O     0.57970   0.58490   0.59670   0.01267  Uiso   1.00
O3     O     0.17640   0.18160   0.40330   0.01267  Uiso   1.00
O4     O     0.55680   0.17620   0.49900   0.01267  Uiso   1.00
O5     O     0.25670   0.65870   0.61590   0.01267  Uiso   1.00
O6     O     0.05580   0.67520   0.50100   0.01267  Uiso   1.00
O7     O     0.38060   0.32480   0.17620   0.01267  Uiso   1.00
O8     O     0.05580   0.49900   0.32480   0.01267  Uiso   1.00
O9     O     0.87260   0.27460   0.38410   0.01267  Uiso   1.00
O10    O     0.38060   0.82380   0.67520   0.01267  Uiso   1.00
O11    O     0.17640   0.59670   0.81840   0.01267  Uiso   1.00
O12    O     0.59800   0.72540   0.65870   0.01267  Uiso   1.00
O13    O     0.25670   0.38410   0.34130   0.01267  Uiso   1.00
O14    O     0.99480   0.41510   0.18160   0.01267  Uiso   1.00
O15    O     0.99480   0.81840   0.58490   0.01267  Uiso   1.00
O16    O     0.57970   0.40330   0.41510   0.01267  Uiso   1.00
O17    O     0.55680   0.50100   0.82380   0.01267  Uiso   1.00
O18    O     0.87260   0.61590   0.72540   0.01267  Uiso   1.00
