data_KOSJUZ_clean
_audit_creation_date              2015-10-16
_audit_creation_method            'Materials Studio'
_symmetry_space_group_name_H-M    'P1'
_symmetry_Int_Tables_number       1
_symmetry_cell_setting            triclinic
loop_
_symmetry_equiv_pos_as_xyz
  x,y,z
_cell_length_a                    6.8039
_cell_length_b                    15.1133
_cell_length_c                    15.1133
_cell_angle_alpha                 62.2107
_cell_angle_beta                  81.3694
_cell_angle_gamma                 98.6306
loop_
_atom_site_label
_atom_site_type_symbol
_atom_site_fract_x
_atom_site_fract_y
_atom_site_fract_z
_atom_site_U_iso_or_equiv
_atom_site_adp_type
_atom_site_occupancy
Co1    Co    0.11660   0.30250   0.27870   0.01267  Uiso   1.00
Co2    Co    0.39530   0.27870   0.41880   0.01267  Uiso   1.00
Co3    Co    0.11660   0.72130   0.69750   0.01267  Uiso   1.00
Co4    Co    0.39530   0.58120   0.72130   0.01267  Uiso   1.00
Co5    Co    0.81410   0.69750   0.58120   0.01267  Uiso   1.00
Co6    Co    0.81410   0.41880   0.30250   0.01267  Uiso   1.00
H1     H     0.23705   0.51715  -0.00000   0.01267  Uiso   1.00
H2     H     0.71990   0.48285   0.51715   0.01267  Uiso   1.00
H3     H     0.52805  -0.00000   0.57585   0.01267  Uiso   1.00
H4     H     0.10390   0.57585   0.42415   0.01267  Uiso   1.00
H5     H     0.52805   0.42415  -0.00000   0.01267  Uiso   1.00
H6     H     0.23705  -0.00000   0.48285   0.01267  Uiso   1.00
C1     C     0.50780   0.46780   0.43940   0.01267  Uiso   1.00
C2     C     0.68315   0.44245  -0.00000   0.01267  Uiso   1.00
C3     C     0.20410   0.45640   0.35780   0.01267  Uiso   1.00
C4     C     0.74770   0.54360   0.81420   0.01267  Uiso   1.00
C5     C     0.72890   0.90520   0.58530   0.01267  Uiso   1.00
C6     C     0.04000   0.09280   0.46780   0.01267  Uiso   1.00
C7     C     0.56190   0.81420   0.64220   0.01267  Uiso   1.00
C8     C     0.31420   0.49050   0.41470   0.01267  Uiso   1.00
C9     C     0.82370   0.09480   0.49050   0.01267  Uiso   1.00
C10    C     0.94720   0.43940   0.09280   0.01267  Uiso   1.00
C11    C     0.04000   0.53220   0.90720   0.01267  Uiso   1.00
C12    C     0.74770   0.18580   0.45640   0.01267  Uiso   1.00
C13    C     0.31420   0.58530   0.50950   0.01267  Uiso   1.00
C14    C     0.58540   0.50160   0.49840   0.01267  Uiso   1.00
C15    C     0.24070   0.55755   0.44245   0.01267  Uiso   1.00
C16    C     0.50780   0.56060   0.53220   0.01267  Uiso   1.00
C17    C     0.82370   0.50950   0.90520   0.01267  Uiso   1.00
C18    C     0.72890   0.41470   0.09480   0.01267  Uiso   1.00
C19    C     0.20410   0.64220   0.54360   0.01267  Uiso   1.00
C20    C     0.56190   0.35780   0.18580   0.01267  Uiso   1.00
C21    C     0.94720   0.90720   0.56060   0.01267  Uiso   1.00
C22    C     0.08380   0.49840  -0.00000   0.01267  Uiso   1.00
C23    C     0.08380  -0.00000   0.50160   0.01267  Uiso   1.00
C24    C     0.68315   0.00000   0.55755   0.01267  Uiso   1.00
O1     O     0.57720   0.40150   0.41690   0.01267  Uiso   1.00
O2     O     0.05810   0.67250   0.50460   0.01267  Uiso   1.00
O3     O     0.17570   0.59850   0.81840   0.01267  Uiso   1.00
O4     O     0.25520   0.38420   0.34110   0.01267  Uiso   1.00
O5     O     0.25520   0.65890   0.61580   0.01267  Uiso   1.00
O6     O     0.87100   0.61580   0.72530   0.01267  Uiso   1.00
O7     O     0.87100   0.27470   0.38420   0.01267  Uiso   1.00
O8     O     0.59630   0.72530   0.65890   0.01267  Uiso   1.00
O9     O     0.99410   0.81840   0.58310   0.01267  Uiso   1.00
O10    O     0.59630   0.34110   0.27470   0.01267  Uiso   1.00
O11    O     0.38560   0.82290   0.67250   0.01267  Uiso   1.00
O12    O     0.17570   0.18160   0.40150   0.01267  Uiso   1.00
O13    O     0.56270   0.17710   0.49540   0.01267  Uiso   1.00
O14    O     0.57720   0.58310   0.59850   0.01267  Uiso   1.00
O15    O     0.99410   0.41690   0.18160   0.01267  Uiso   1.00
O16    O     0.38560   0.32750   0.17710   0.01267  Uiso   1.00
O17    O     0.05810   0.49540   0.32750   0.01267  Uiso   1.00
O18    O     0.56270   0.50460   0.82290   0.01267  Uiso   1.00
