data_KOSLEL_clean
_audit_creation_date              2015-10-16
_audit_creation_method            'Materials Studio'
_symmetry_space_group_name_H-M    'P1'
_symmetry_Int_Tables_number       1
_symmetry_cell_setting            triclinic
loop_
_symmetry_equiv_pos_as_xyz
  x,y,z
_cell_length_a                    6.7390
_cell_length_b                    15.0349
_cell_length_c                    15.0349
_cell_angle_alpha                 62.1916
_cell_angle_beta                  81.4074
_cell_angle_gamma                 98.5926
loop_
_atom_site_label
_atom_site_type_symbol
_atom_site_fract_x
_atom_site_fract_y
_atom_site_fract_z
_atom_site_U_iso_or_equiv
_atom_site_adp_type
_atom_site_occupancy
Ni1    Ni    0.39080   0.28040   0.41780   0.01267  Uiso   1.00
Ni2    Ni    0.11040   0.30180   0.28040   0.01267  Uiso   1.00
Ni3    Ni    0.80860   0.41780   0.30180   0.01267  Uiso   1.00
Ni4    Ni    0.11040   0.71960   0.69820   0.01267  Uiso   1.00
Ni5    Ni    0.39080   0.58220   0.71960   0.01267  Uiso   1.00
Ni6    Ni    0.80860   0.69820   0.58220   0.01267  Uiso   1.00
H1     H     0.22255   0.50665   0.00000   0.01267  Uiso   1.00
H2     H     0.71590   0.49335   0.50665   0.01267  Uiso   1.00
H3     H     0.54415  -0.00000   0.56355   0.01267  Uiso   1.00
H4     H     0.22255  -0.00000   0.49335   0.01267  Uiso   1.00
H5     H     0.54415   0.43645  -0.00000   0.01267  Uiso   1.00
H6     H     0.10770   0.56355   0.43645   0.01267  Uiso   1.00
C1     C     0.08590  -0.00000   0.49830   0.01267  Uiso   1.00
C2     C     0.29870   0.48360   0.42550   0.01267  Uiso   1.00
C3     C     0.55070   0.81090   0.64280   0.01267  Uiso   1.00
C4     C     0.19350   0.64280   0.54630   0.01267  Uiso   1.00
C5     C     0.19350   0.45370   0.35720   0.01267  Uiso   1.00
C6     C     0.72420   0.90910   0.57450   0.01267  Uiso   1.00
C7     C     0.73980   0.54630   0.81090   0.01267  Uiso   1.00
C8     C     0.03860   0.53230   0.90850   0.01267  Uiso   1.00
C9     C     0.23540   0.55560   0.44440   0.01267  Uiso   1.00
C10    C     0.94710   0.44080   0.09150   0.01267  Uiso   1.00
C11    C     0.67980   0.44440   0.00000   0.01267  Uiso   1.00
C12    C     0.81510   0.09090   0.48360   0.01267  Uiso   1.00
C13    C     0.58420   0.49830   0.50170   0.01267  Uiso   1.00
C14    C     0.03860   0.09150   0.46770   0.01267  Uiso   1.00
C15    C     0.55070   0.35720   0.18910   0.01267  Uiso   1.00
C16    C     0.73980   0.18910   0.45370   0.01267  Uiso   1.00
C17    C     0.08590   0.50170   0.00000   0.01267  Uiso   1.00
C18    C     0.29870   0.57450   0.51640   0.01267  Uiso   1.00
C19    C     0.94710   0.90850   0.55920   0.01267  Uiso   1.00
C20    C     0.81510   0.51640   0.90910   0.01267  Uiso   1.00
C21    C     0.50630   0.46770   0.44080   0.01267  Uiso   1.00
C22    C     0.72420   0.42550   0.09090   0.01267  Uiso   1.00
C23    C     0.67980   0.00000   0.55560   0.01267  Uiso   1.00
C24    C     0.50630   0.55920   0.53230   0.01267  Uiso   1.00
O1     O     0.98510   0.41720   0.18490   0.01267  Uiso   1.00
O2     O     0.98510   0.81510   0.58280   0.01267  Uiso   1.00
O3     O     0.86460   0.27530   0.38150   0.01267  Uiso   1.00
O4     O     0.17000   0.18490   0.39790   0.01267  Uiso   1.00
O5     O     0.56790   0.39790   0.41720   0.01267  Uiso   1.00
O6     O     0.58930   0.34320   0.27530   0.01267  Uiso   1.00
O7     O     0.03320   0.49770   0.32710   0.01267  Uiso   1.00
O8     O     0.53550   0.17520   0.49770   0.01267  Uiso   1.00
O9     O     0.53550   0.50230   0.82480   0.01267  Uiso   1.00
O10    O     0.58930   0.72470   0.65680   0.01267  Uiso   1.00
O11    O     0.17000   0.60210   0.81510   0.01267  Uiso   1.00
O12    O     0.56790   0.58280   0.60210   0.01267  Uiso   1.00
O13    O     0.03320   0.67290   0.50230   0.01267  Uiso   1.00
O14    O     0.36030   0.82480   0.67290   0.01267  Uiso   1.00
O15    O     0.24610   0.38150   0.34320   0.01267  Uiso   1.00
O16    O     0.24610   0.65680   0.61850   0.01267  Uiso   1.00
O17    O     0.36030   0.32710   0.17520   0.01267  Uiso   1.00
O18    O     0.86460   0.61850   0.72470   0.01267  Uiso   1.00
