data_KOTSIX_clean
_audit_creation_date              2015-10-16
_audit_creation_method            'Materials Studio'
_symmetry_space_group_name_H-M    'P1'
_symmetry_Int_Tables_number       1
_symmetry_cell_setting            triclinic
loop_
_symmetry_equiv_pos_as_xyz
  x,y,z
_cell_length_a                    15.1690
_cell_length_b                    15.4530
_cell_length_c                    16.4504
_cell_angle_alpha                 67.4690
_cell_angle_beta                  80.5590
_cell_angle_gamma                 61.9820
loop_
_atom_site_label
_atom_site_type_symbol
_atom_site_fract_x
_atom_site_fract_y
_atom_site_fract_z
_atom_site_U_iso_or_equiv
_atom_site_adp_type
_atom_site_occupancy
Zn1    Zn    0.98974   0.50814   0.66448   0.01267  Uiso   1.00
Zn2    Zn    0.18728   0.13567   0.91624   0.01267  Uiso   1.00
Zn3    Zn    0.01026   0.49186   0.33552   0.01267  Uiso   1.00
Zn4    Zn    0.57707   0.13374   0.28983   0.01267  Uiso   1.00
Zn5    Zn    0.81272   0.86433   0.08376   0.01267  Uiso   1.00
Zn6    Zn    0.42293   0.86626   0.71017   0.01267  Uiso   1.00
H1     H     0.38960   0.39820   0.87300   0.01267  Uiso   1.00
H2     H     0.17480   0.75230   0.74360   0.01267  Uiso   1.00
H3     H     0.17780   0.07850   0.46040   0.01267  Uiso   1.00
H4     H     0.91370   0.43570   0.50640   0.01267  Uiso   1.00
H5     H     0.76540   0.15110   0.51620   0.01267  Uiso   1.00
H6     H     0.46290   0.46420   0.14870   0.01267  Uiso   1.00
H7     H     0.38610   0.40180   0.38810   0.01267  Uiso   1.00
H8     H     0.08630   0.56430   0.49360   0.01267  Uiso   1.00
H9     H     0.71180   0.66400   0.76260   0.01267  Uiso   1.00
H10    H     0.08770   0.94550   0.39890   0.01267  Uiso   1.00
H11    H     0.91420   0.66990   0.90130   0.01267  Uiso   1.00
H12    H     0.03190   0.23460   0.42390   0.01267  Uiso   1.00
H13    H     0.63930   0.76430   0.84340   0.01267  Uiso   1.00
H14    H     0.39730   0.48370   0.72050   0.01267  Uiso   1.00
H15    H     0.50560   0.37620   0.60210   0.01267  Uiso   1.00
H16    H     0.54020   0.35650   0.32290   0.01267  Uiso   1.00
H17    H     0.33040   0.97880   0.53370   0.01267  Uiso   1.00
H18    H     0.28820   0.33600   0.23740   0.01267  Uiso   1.00
H19    H     0.12120   0.65780   0.64950   0.01267  Uiso   1.00
H20    H     0.85140   0.71560   0.41470   0.01267  Uiso   1.00
H21    H     0.53710   0.53580   0.85130   0.01267  Uiso   1.00
H22    H     0.65960   0.34080   0.53400   0.01267  Uiso   1.00
H23    H     0.51450   0.93230   0.43580   0.01267  Uiso   1.00
H24    H     0.08580   0.33010   0.09870   0.01267  Uiso   1.00
H25    H     0.78880   0.61140   0.27020   0.01267  Uiso   1.00
H26    H     0.48550   0.06770   0.56420   0.01267  Uiso   1.00
H27    H     0.04330   0.02840   0.69420   0.01267  Uiso   1.00
H28    H     0.82520   0.24770   0.25640   0.01267  Uiso   1.00
H29    H     0.19650   0.93190   0.76530   0.01267  Uiso   1.00
H30    H     0.80080   0.49150   0.81520   0.01267  Uiso   1.00
H31    H     0.83320   0.33680   0.10560   0.01267  Uiso   1.00
H32    H     0.24380   0.52410   0.42880   0.01267  Uiso   1.00
H33    H     0.35520   0.31770   0.00320   0.01267  Uiso   1.00
H34    H     0.19920   0.50850   0.18480   0.01267  Uiso   1.00
H35    H     0.34040   0.65920   0.46600   0.01267  Uiso   1.00
H36    H     0.49440   0.62380   0.39790   0.01267  Uiso   1.00
H37    H     0.80880   0.40200   0.96900   0.01267  Uiso   1.00
H38    H     0.61390   0.59820   0.61190   0.01267  Uiso   1.00
H39    H     0.95670   0.97160   0.30580   0.01267  Uiso   1.00
H40    H     0.60270   0.51630   0.27950   0.01267  Uiso   1.00
H41    H     0.64480   0.68230   0.99680   0.01267  Uiso   1.00
H42    H     0.87880   0.34220   0.35050   0.01267  Uiso   1.00
H43    H     0.14860   0.28440   0.58530   0.01267  Uiso   1.00
H44    H     0.63210   0.65280   0.32640   0.01267  Uiso   1.00
H45    H     0.49340   0.91180   0.80940   0.01267  Uiso   1.00
H46    H     0.96810   0.76540   0.57610   0.01267  Uiso   1.00
H47    H     0.16680   0.66320   0.89440   0.01267  Uiso   1.00
H48    H     0.36070   0.23570   0.15660   0.01267  Uiso   1.00
H49    H     0.82220   0.92150   0.53960   0.01267  Uiso   1.00
H50    H     0.80350   0.06810   0.23470   0.01267  Uiso   1.00
H51    H     0.19120   0.59800   0.03100   0.01267  Uiso   1.00
H52    H     0.23460   0.84890   0.48380   0.01267  Uiso   1.00
H53    H     0.36790   0.34720   0.67360   0.01267  Uiso   1.00
H54    H     0.66960   0.02120   0.46630   0.01267  Uiso   1.00
H55    H     0.61040   0.60180   0.12700   0.01267  Uiso   1.00
H56    H     0.50660   0.08820   0.19060   0.01267  Uiso   1.00
H57    H     0.21120   0.38860   0.72980   0.01267  Uiso   1.00
H58    H     0.75620   0.47590   0.57120   0.01267  Uiso   1.00
H59    H     0.45980   0.64350   0.67710   0.01267  Uiso   1.00
H60    H     0.91230   0.05450   0.60110   0.01267  Uiso   1.00
C1     C     0.68720   0.61160   0.36470   0.01267  Uiso   1.00
C2     C     0.36010   0.18170   0.48890   0.01267  Uiso   1.00
C3     C     0.31280   0.38840   0.63530   0.01267  Uiso   1.00
C4     C     0.78400   0.75820   0.41900   0.01267  Uiso   1.00
C5     C     0.40630   0.16970   0.40380   0.01267  Uiso   1.00
C6     C     0.42670   0.39550   0.50230   0.01267  Uiso   1.00
C7     C     0.80870   0.66320   0.57990   0.01267  Uiso   1.00
C8     C     0.11300   0.71780   0.60120   0.01267  Uiso   1.00
C9     C     0.21320   0.62660   0.86050   0.01267  Uiso   1.00
C10    C     0.37880   0.10960   0.65150   0.01267  Uiso   1.00
C11    C     0.48810   0.62550   0.45460   0.01267  Uiso   1.00
C12    C     0.54340   0.39570   0.05900   0.01267  Uiso   1.00
C13    C     0.72560   0.82820   0.34116   0.01267  Uiso   1.00
C14    C     0.09150   0.06480   0.56960   0.01267  Uiso   1.00
C15    C     0.72520   0.53350   0.00060   0.01267  Uiso   1.00
C16    C     0.19420   0.74450   0.57320   0.01267  Uiso   1.00
C17    C     0.41710   0.71140   0.86940   0.01267  Uiso   1.00
C18    C     0.78230   0.58550   0.33090   0.01267  Uiso   1.00
C19    C     0.99120   0.54480   0.81170   0.01267  Uiso   1.00
C20    C     0.80580   0.25550   0.42680   0.01267  Uiso   1.00
C21    C     0.44450   0.03590   0.73280   0.01267  Uiso   1.00
C22    C     0.52190   0.52130   0.91070   0.01267  Uiso   1.00
C23    C     0.21770   0.41450   0.66910   0.01267  Uiso   1.00
C24    C     0.18050   0.04900   0.52150   0.01267  Uiso   1.00
C25    C     0.58290   0.28860   0.13060   0.01267  Uiso   1.00
C26    C     0.55550   0.96410   0.26720   0.01267  Uiso   1.00
C27    C     0.25740   0.24840   0.49800   0.01267  Uiso   1.00
C28    C     0.65440   0.53140   0.15250   0.01267  Uiso   1.00
C29    C     0.63990   0.81830   0.51110   0.01267  Uiso   1.00
C30    C     0.14330   0.51850   0.52910   0.01267  Uiso   1.00
C31    C     0.19300   0.96030   0.70420   0.01267  Uiso   1.00
C32    C     0.67270   0.57690   0.45560   0.01267  Uiso   1.00
C33    C     0.78350   0.31890   0.23110   0.01267  Uiso   1.00
C34    C     0.55940   0.61160   0.58190   0.01267  Uiso   1.00
C35    C     0.27590   0.52100   0.90170   0.01267  Uiso   1.00
C36    C     0.60580   0.35120   0.50510   0.01267  Uiso   1.00
C37    C     0.89920   0.98090   0.33890   0.01267  Uiso   1.00
C38    C     0.59370   0.83030   0.59620   0.01267  Uiso   1.00
C39    C     0.41870   0.11240   0.56830   0.01267  Uiso   1.00
C40    C     0.27440   0.17180   0.65884   0.01267  Uiso   1.00
C41    C     0.10080   0.01910   0.66110   0.01267  Uiso   1.00
C42    C     0.46650   0.63790   0.62190   0.01267  Uiso   1.00
C43    C     0.94640   0.58360   0.03430   0.01267  Uiso   1.00
C44    C     0.56470   0.41510   0.97090   0.01267  Uiso   1.00
C45    C     0.34560   0.46860   0.84750   0.01267  Uiso   1.00
C46    C     0.35070   0.52020   0.75440   0.01267  Uiso   1.00
C47    C     0.21650   0.68110   0.76890   0.01267  Uiso   1.00
C48    C     0.61950   0.33460   0.92820   0.01267  Uiso   1.00
C49    C     0.32400   0.35830   0.03850   0.01267  Uiso   1.00
C50    C     0.00880   0.45520   0.18830   0.01267  Uiso   1.00
C51    C     0.23180   0.47100   0.14740   0.01267  Uiso   1.00
C52    C     0.74260   0.75160   0.50200   0.01267  Uiso   1.00
C53    C     0.90850   0.93520   0.43040   0.01267  Uiso   1.00
C54    C     0.85670   0.48150   0.47090   0.01267  Uiso   1.00
C55    C     0.22620   0.52540   0.05450   0.01267  Uiso   1.00
C56    C     0.18260   0.83020   0.50100   0.01267  Uiso   1.00
C57    C     0.88030   0.67370   0.06320   0.01267  Uiso   1.00
C58    C     0.71390   0.37680   0.28350   0.01267  Uiso   1.00
C59    C     0.27240   0.98870   0.56620   0.01267  Uiso   1.00
C60    C     0.00660   0.87200   0.48020   0.01267  Uiso   1.00
C61    C     0.99340   0.12800   0.51980   0.01267  Uiso   1.00
C62    C     0.05360   0.41640   0.96570   0.01267  Uiso   1.00
C63    C     0.45660   0.60430   0.94100   0.01267  Uiso   1.00
C64    C     0.67600   0.64170   0.96150   0.01267  Uiso   1.00
C65    C     0.05210   0.39790   0.05930   0.01267  Uiso   1.00
C66    C     0.27480   0.46650   0.99940   0.01267  Uiso   1.00
C67    C     0.38240   0.65610   0.57920   0.01267  Uiso   1.00
C68    C     0.78680   0.37340   0.13950   0.01267  Uiso   1.00
C69    C     0.99970   0.51880   0.90870   0.01267  Uiso   1.00
C70    C     0.11970   0.32630   0.93680   0.01267  Uiso   1.00
C71    C     0.43530   0.58490   0.02910   0.01267  Uiso   1.00
C72    C     0.97890   0.21790   0.44410   0.01267  Uiso   1.00
C73    C     0.77590   0.82820   0.25530   0.01267  Uiso   1.00
C74    C     0.32730   0.42310   0.54440   0.01267  Uiso   1.00
C75    C     0.72760   0.01130   0.43380   0.01267  Uiso   1.00
C76    C     0.80700   0.03970   0.29580   0.01267  Uiso   1.00
C77    C     0.88700   0.28220   0.39880   0.01267  Uiso   1.00
C78    C     0.76130   0.50560   0.51070   0.01267  Uiso   1.00
C79    C     0.61760   0.34390   0.42080   0.01267  Uiso   1.00
C80    C     0.21600   0.24180   0.58100   0.01267  Uiso   1.00
C81    C     0.44060   0.38840   0.41810   0.01267  Uiso   1.00
C82    C     0.00030   0.48120   0.09130   0.01267  Uiso   1.00
C83    C     0.94790   0.60210   0.94070   0.01267  Uiso   1.00
C84    C     0.39420   0.64880   0.49490   0.01267  Uiso   1.00
C85    C     0.62120   0.89040   0.34850   0.01267  Uiso   1.00
C86    C     0.67230   0.69170   0.86880   0.01267  Uiso   1.00
C87    C     0.47810   0.47870   0.08930   0.01267  Uiso   1.00
C88    C     0.58130   0.88760   0.43170   0.01267  Uiso   1.00
C89    C     0.77380   0.47460   0.94550   0.01267  Uiso   1.00
C90    C     0.57330   0.60450   0.49770   0.01267  Uiso   1.00
C91    C     0.81740   0.16980   0.49900   0.01267  Uiso   1.00
C92    C     0.28610   0.62320   0.71650   0.01267  Uiso   1.00
C93    C     0.38050   0.66540   0.07180   0.01267  Uiso   1.00
C94    C     0.22410   0.17180   0.74470   0.01267  Uiso   1.00
C95    C     0.09180   0.89130   0.45140   0.01267  Uiso   1.00
C96    C     0.81950   0.95100   0.47850   0.01267  Uiso   1.00
C97    C     0.19130   0.33680   0.42010   0.01267  Uiso   1.00
C98    C     0.23870   0.49440   0.48930   0.01267  Uiso   1.00
C99    C     0.64930   0.47980   0.24560   0.01267  Uiso   1.00
C100   C     0.53350   0.36210   0.37810   0.01267  Uiso   1.00
C101   C     0.32770   0.30830   0.13120   0.01267  Uiso   1.00
C102   C     0.76820   0.52900   0.85260   0.01267  Uiso   1.00
C103   C     0.51190   0.37450   0.54540   0.01267  Uiso   1.00
C104   C     0.90820   0.10870   0.54860   0.01267  Uiso   1.00
C105   C     0.72410   0.47900   0.09830   0.01267  Uiso   1.00
C106   C     0.02110   0.78210   0.55590   0.01267  Uiso   1.00
N1     N     0.28750   0.67810   0.62361   0.01267  Uiso   1.00
N2     N     0.71250   0.32190   0.37639   0.01267  Uiso   1.00
N3     N     0.28070   0.94370   0.65594   0.01267  Uiso   1.00
N4     N     0.71930   0.05630   0.34406   0.01267  Uiso   1.00
N5     N     0.71640   0.63360   0.81885   0.01267  Uiso   1.00
N6     N     0.28360   0.36640   0.18115   0.01267  Uiso   1.00
N7     N     0.86710   0.52340   0.38237   0.01267  Uiso   1.00
N8     N     0.13290   0.47660   0.61763   0.01267  Uiso   1.00
O1     O     0.22613   0.38173   0.35236   0.01267  Uiso   1.00
O2     O     0.34070   0.78769   0.88358   0.01267  Uiso   1.00
O3     O     0.90426   0.74718   0.04158   0.01267  Uiso   1.00
O4     O     0.99980   0.52965   0.20821   0.01267  Uiso   1.00
O5     O     0.02634   0.36799   0.24381   0.01267  Uiso   1.00
O6     O     0.49681   0.15338   0.39806   0.01267  Uiso   1.00
O7     O     0.53469   0.27796   0.20156   0.01267  Uiso   1.00
O8     O     0.57917   0.34564   0.86105   0.01267  Uiso   1.00
O9     O     0.00020   0.47035   0.79179   0.01267  Uiso   1.00
O10    O     0.97366   0.63201   0.75619   0.01267  Uiso   1.00
O11    O     0.54485   0.05527   0.23578   0.01267  Uiso   1.00
O12    O     0.90149   0.63399   0.56882   0.01267  Uiso   1.00
O13    O     0.13073   0.21654   0.75086   0.01267  Uiso   1.00
O14    O     0.09574   0.25282   0.95842   0.01267  Uiso   1.00
O15    O     0.09851   0.36601   0.43118   0.01267  Uiso   1.00
O16    O     0.45515   0.94473   0.76422   0.01267  Uiso   1.00
O17    O     0.80267   0.67813   0.10546   0.01267  Uiso   1.00
O18    O     0.49595   0.06574   0.75795   0.01267  Uiso   1.00
O19    O     0.65930   0.21231   0.11642   0.01267  Uiso   1.00
O20    O     0.77387   0.61827   0.64764   0.01267  Uiso   1.00
O21    O     0.50405   0.93426   0.24205   0.01267  Uiso   1.00
O22    O     0.64353   0.82304   0.65346   0.01267  Uiso   1.00
O23    O     0.28048   0.11874   0.81298   0.01267  Uiso   1.00
O24    O     0.35647   0.17696   0.34654   0.01267  Uiso   1.00
O25    O     0.19733   0.32187   0.89454   0.01267  Uiso   1.00
O26    O     0.69740   0.25665   0.96538   0.01267  Uiso   1.00
O27    O     0.86927   0.78346   0.24914   0.01267  Uiso   1.00
O28    O     0.46531   0.72204   0.79844   0.01267  Uiso   1.00
O29    O     0.30260   0.74335   0.03462   0.01267  Uiso   1.00
O30    O     0.50319   0.84662   0.60194   0.01267  Uiso   1.00
O31    O     0.71952   0.88126   0.18702   0.01267  Uiso   1.00
O32    O     0.42083   0.65436   0.13895   0.01267  Uiso   1.00
