data_image0
_cell_length_a       17.4025
_cell_length_b       9.9887
_cell_length_c       25.5946
_cell_angle_alpha    90
_cell_angle_beta     98.568
_cell_angle_gamma    90

_symmetry_space_group_name_H-M    "P 1"
_symmetry_int_tables_number       1

loop_
  _symmetry_equiv_pos_as_xyz
  'x, y, z'

loop_
  _atom_site_label
  _atom_site_occupancy
  _atom_site_fract_x
  _atom_site_fract_y
  _atom_site_fract_z
  _atom_site_thermal_displace_type
  _atom_site_B_iso_or_equiv
  _atom_site_type_symbol
  U1       1.0000 0.53331  0.43826  0.86060  Biso   1.000  U
  Cl1      1.0000 0.66411  0.37908  0.81975  Biso   1.000  Cl
  O1       1.0000 0.49395  0.28540  0.79253  Biso   1.000  O
  O2       1.0000 0.50614  0.59000  0.79340  Biso   1.000  O
  O3       1.0000 0.56690  0.21650  0.89977  Biso   1.000  O
  O4       1.0000 0.62537  0.47350  0.94230  Biso   1.000  O
  O5       1.0000 0.62303  0.63080  0.88213  Biso   1.000  O
  O6       1.0000 0.47918  0.32750  0.93391  Biso   1.000  O
  C1       1.0000 0.64770  0.58660  0.92780  Biso   1.000  C
  C2       1.0000 0.51860  0.22340  0.93165  Biso   1.000  C
  C3       1.0000 0.73110  0.78750  0.94785  Biso   1.000  C
  H1       1.0000 0.71830  0.81340  0.91270  Biso   1.000  H
  C4       1.0000 0.70170  0.66950  0.96525  Biso   1.000  C
  C5       1.0000 0.50850  0.10790  0.96760  Biso   1.000  C
  C6       1.0000 0.55260  0.99100  0.96405  Biso   1.000  C
  H2       1.0000 0.58780  0.98560  0.94010  Biso   1.000  H
  C7       1.0000 0.51720  0.86810  0.79726  Biso   1.000  C
  H3       1.0000 0.52890  0.82160  0.82890  Biso   1.000  H
  C8       1.0000 0.51700  0.00750  0.79710  Biso   1.000  C
  H4       1.0000 0.52830  0.05430  0.82870  Biso   1.000  H
  C9       1.0000 0.45720  0.11570  0.00319  Biso   1.000  C
  H5       1.0000 0.42860  0.19370  0.00530  Biso   1.000  H
  C10      1.0000 0.72070  0.63380  0.01749  Biso   1.000  C
  H6       1.0000 0.70070  0.55510  0.02950  Biso   1.000  H
  U2       1.0000 0.03331  0.93826  0.86060  Biso   1.000  U
  Cl2      1.0000 0.16411  0.87908  0.81975  Biso   1.000  Cl
  O7       1.0000 0.99395  0.78540  0.79253  Biso   1.000  O
  O8       1.0000 0.00614  0.09000  0.79340  Biso   1.000  O
  O9       1.0000 0.06690  0.71650  0.89977  Biso   1.000  O
  O10      1.0000 0.12537  0.97350  0.94230  Biso   1.000  O
  O11      1.0000 0.12303  0.13080  0.88213  Biso   1.000  O
  O12      1.0000 0.97918  0.82750  0.93391  Biso   1.000  O
  C11      1.0000 0.14770  0.08660  0.92780  Biso   1.000  C
  C12      1.0000 0.01860  0.72340  0.93165  Biso   1.000  C
  C13      1.0000 0.23110  0.28750  0.94785  Biso   1.000  C
  H7       1.0000 0.21830  0.31340  0.91270  Biso   1.000  H
  C14      1.0000 0.20170  0.16950  0.96525  Biso   1.000  C
  C15      1.0000 0.00850  0.60790  0.96760  Biso   1.000  C
  C16      1.0000 0.05260  0.49100  0.96405  Biso   1.000  C
  H8       1.0000 0.08780  0.48560  0.94010  Biso   1.000  H
  C17      1.0000 0.01720  0.36810  0.79726  Biso   1.000  C
  H9       1.0000 0.02890  0.32160  0.82890  Biso   1.000  H
  C18      1.0000 0.01700  0.50750  0.79710  Biso   1.000  C
  H10      1.0000 0.02830  0.55430  0.82870  Biso   1.000  H
  C19      1.0000 0.95720  0.61570  0.00319  Biso   1.000  C
  H11      1.0000 0.92860  0.69370  0.00530  Biso   1.000  H
  C20      1.0000 0.22070  0.13380  0.01749  Biso   1.000  C
  H12      1.0000 0.20070  0.05510  0.02950  Biso   1.000  H
  U3       1.0000 0.46669  0.43826  0.63940  Biso   1.000  U
  Cl3      1.0000 0.33589  0.37908  0.68025  Biso   1.000  Cl
  O13      1.0000 0.50605  0.28540  0.70747  Biso   1.000  O
  O14      1.0000 0.49386  0.59000  0.70660  Biso   1.000  O
  O15      1.0000 0.43310  0.21650  0.60023  Biso   1.000  O
  O16      1.0000 0.37463  0.47350  0.55770  Biso   1.000  O
  O17      1.0000 0.37697  0.63080  0.61787  Biso   1.000  O
  O18      1.0000 0.52082  0.32750  0.56609  Biso   1.000  O
  C21      1.0000 0.35230  0.58660  0.57220  Biso   1.000  C
  C22      1.0000 0.48140  0.22340  0.56835  Biso   1.000  C
  C23      1.0000 0.26890  0.78750  0.55215  Biso   1.000  C
  H13      1.0000 0.28170  0.81340  0.58730  Biso   1.000  H
  C24      1.0000 0.29830  0.66950  0.53475  Biso   1.000  C
  C25      1.0000 0.49150  0.10790  0.53240  Biso   1.000  C
  C26      1.0000 0.44740  0.99100  0.53595  Biso   1.000  C
  H14      1.0000 0.41220  0.98560  0.55990  Biso   1.000  H
  C27      1.0000 0.48280  0.86810  0.70274  Biso   1.000  C
  H15      1.0000 0.47110  0.82160  0.67110  Biso   1.000  H
  C28      1.0000 0.48300  0.00750  0.70290  Biso   1.000  C
  H16      1.0000 0.47170  0.05430  0.67130  Biso   1.000  H
  C29      1.0000 0.54280  0.11570  0.49681  Biso   1.000  C
  H17      1.0000 0.57140  0.19370  0.49470  Biso   1.000  H
  C30      1.0000 0.27930  0.63380  0.48251  Biso   1.000  C
  H18      1.0000 0.29930  0.55510  0.47050  Biso   1.000  H
  U4       1.0000 0.96669  0.93826  0.63940  Biso   1.000  U
  Cl4      1.0000 0.83589  0.87908  0.68025  Biso   1.000  Cl
  O19      1.0000 0.00605  0.78540  0.70747  Biso   1.000  O
  O20      1.0000 0.99386  0.09000  0.70660  Biso   1.000  O
  O21      1.0000 0.93310  0.71650  0.60023  Biso   1.000  O
  O22      1.0000 0.87463  0.97350  0.55770  Biso   1.000  O
  O23      1.0000 0.87697  0.13080  0.61787  Biso   1.000  O
  O24      1.0000 0.02082  0.82750  0.56609  Biso   1.000  O
  C31      1.0000 0.85230  0.08660  0.57220  Biso   1.000  C
  C32      1.0000 0.98140  0.72340  0.56835  Biso   1.000  C
  C33      1.0000 0.76890  0.28750  0.55215  Biso   1.000  C
  H19      1.0000 0.78170  0.31340  0.58730  Biso   1.000  H
  C34      1.0000 0.79830  0.16950  0.53475  Biso   1.000  C
  C35      1.0000 0.99150  0.60790  0.53240  Biso   1.000  C
  C36      1.0000 0.94740  0.49100  0.53595  Biso   1.000  C
  H20      1.0000 0.91220  0.48560  0.55990  Biso   1.000  H
  C37      1.0000 0.98280  0.36810  0.70274  Biso   1.000  C
  H21      1.0000 0.97110  0.32160  0.67110  Biso   1.000  H
  C38      1.0000 0.98300  0.50750  0.70290  Biso   1.000  C
  H22      1.0000 0.97170  0.55430  0.67130  Biso   1.000  H
  C39      1.0000 0.04280  0.61570  0.49681  Biso   1.000  C
  H23      1.0000 0.07140  0.69370  0.49470  Biso   1.000  H
  C40      1.0000 0.77930  0.13380  0.48251  Biso   1.000  C
  H24      1.0000 0.79930  0.05510  0.47050  Biso   1.000  H
  U5       1.0000 0.46669  0.56174  0.13940  Biso   1.000  U
  Cl5      1.0000 0.33589  0.62092  0.18025  Biso   1.000  Cl
  O25      1.0000 0.50605  0.71460  0.20747  Biso   1.000  O
  O26      1.0000 0.49386  0.41000  0.20660  Biso   1.000  O
  O27      1.0000 0.43310  0.78350  0.10023  Biso   1.000  O
  O28      1.0000 0.37463  0.52650  0.05770  Biso   1.000  O
  O29      1.0000 0.37697  0.36920  0.11787  Biso   1.000  O
  O30      1.0000 0.52082  0.67250  0.06609  Biso   1.000  O
  C41      1.0000 0.35230  0.41340  0.07220  Biso   1.000  C
  C42      1.0000 0.48140  0.77660  0.06835  Biso   1.000  C
  C43      1.0000 0.26890  0.21250  0.05215  Biso   1.000  C
  H25      1.0000 0.28170  0.18660  0.08730  Biso   1.000  H
  C44      1.0000 0.29830  0.33050  0.03475  Biso   1.000  C
  C45      1.0000 0.49150  0.89210  0.03240  Biso   1.000  C
  C46      1.0000 0.44740  0.00900  0.03595  Biso   1.000  C
  H26      1.0000 0.41220  0.01440  0.05990  Biso   1.000  H
  C47      1.0000 0.48280  0.13190  0.20274  Biso   1.000  C
  H27      1.0000 0.47110  0.17840  0.17110  Biso   1.000  H
  C48      1.0000 0.48300  0.99250  0.20290  Biso   1.000  C
  H28      1.0000 0.47170  0.94570  0.17130  Biso   1.000  H
  C49      1.0000 0.54280  0.88430  0.99681  Biso   1.000  C
  H29      1.0000 0.57140  0.80630  0.99470  Biso   1.000  H
  C50      1.0000 0.27930  0.36620  0.98251  Biso   1.000  C
  H30      1.0000 0.29930  0.44490  0.97050  Biso   1.000  H
  U6       1.0000 0.96669  0.06174  0.13940  Biso   1.000  U
  Cl6      1.0000 0.83589  0.12092  0.18025  Biso   1.000  Cl
  O31      1.0000 0.00605  0.21460  0.20747  Biso   1.000  O
  O32      1.0000 0.99386  0.91000  0.20660  Biso   1.000  O
  O33      1.0000 0.93310  0.28350  0.10023  Biso   1.000  O
  O34      1.0000 0.87463  0.02650  0.05770  Biso   1.000  O
  O35      1.0000 0.87697  0.86920  0.11787  Biso   1.000  O
  O36      1.0000 0.02082  0.17250  0.06609  Biso   1.000  O
  C51      1.0000 0.85230  0.91340  0.07220  Biso   1.000  C
  C52      1.0000 0.98140  0.27660  0.06835  Biso   1.000  C
  C53      1.0000 0.76890  0.71250  0.05215  Biso   1.000  C
  H31      1.0000 0.78170  0.68660  0.08730  Biso   1.000  H
  C54      1.0000 0.79830  0.83050  0.03475  Biso   1.000  C
  C55      1.0000 0.99150  0.39210  0.03240  Biso   1.000  C
  C56      1.0000 0.94740  0.50900  0.03595  Biso   1.000  C
  H32      1.0000 0.91220  0.51440  0.05990  Biso   1.000  H
  C57      1.0000 0.98280  0.63190  0.20274  Biso   1.000  C
  H33      1.0000 0.97110  0.67840  0.17110  Biso   1.000  H
  C58      1.0000 0.98300  0.49250  0.20290  Biso   1.000  C
  H34      1.0000 0.97170  0.44570  0.17130  Biso   1.000  H
  C59      1.0000 0.04280  0.38430  0.99681  Biso   1.000  C
  H35      1.0000 0.07140  0.30630  0.99470  Biso   1.000  H
  C60      1.0000 0.77930  0.86620  0.98251  Biso   1.000  C
  H36      1.0000 0.79930  0.94490  0.97050  Biso   1.000  H
  U7       1.0000 0.53331  0.56174  0.36060  Biso   1.000  U
  Cl7      1.0000 0.66411  0.62092  0.31975  Biso   1.000  Cl
  O37      1.0000 0.49395  0.71460  0.29253  Biso   1.000  O
  O38      1.0000 0.50614  0.41000  0.29340  Biso   1.000  O
  O39      1.0000 0.56690  0.78350  0.39977  Biso   1.000  O
  O40      1.0000 0.62537  0.52650  0.44230  Biso   1.000  O
  O41      1.0000 0.62303  0.36920  0.38213  Biso   1.000  O
  O42      1.0000 0.47918  0.67250  0.43391  Biso   1.000  O
  C61      1.0000 0.64770  0.41340  0.42780  Biso   1.000  C
  C62      1.0000 0.51860  0.77660  0.43165  Biso   1.000  C
  C63      1.0000 0.73110  0.21250  0.44785  Biso   1.000  C
  H37      1.0000 0.71830  0.18660  0.41270  Biso   1.000  H
  C64      1.0000 0.70170  0.33050  0.46525  Biso   1.000  C
  C65      1.0000 0.50850  0.89210  0.46760  Biso   1.000  C
  C66      1.0000 0.55260  0.00900  0.46405  Biso   1.000  C
  H38      1.0000 0.58780  0.01440  0.44010  Biso   1.000  H
  C67      1.0000 0.51720  0.13190  0.29726  Biso   1.000  C
  H39      1.0000 0.52890  0.17840  0.32890  Biso   1.000  H
  C68      1.0000 0.51700  0.99250  0.29710  Biso   1.000  C
  H40      1.0000 0.52830  0.94570  0.32870  Biso   1.000  H
  C69      1.0000 0.45720  0.88430  0.50319  Biso   1.000  C
  H41      1.0000 0.42860  0.80630  0.50530  Biso   1.000  H
  C70      1.0000 0.72070  0.36620  0.51749  Biso   1.000  C
  H42      1.0000 0.70070  0.44490  0.52950  Biso   1.000  H
  U8       1.0000 0.03331  0.06174  0.36060  Biso   1.000  U
  Cl8      1.0000 0.16411  0.12092  0.31975  Biso   1.000  Cl
  O43      1.0000 0.99395  0.21460  0.29253  Biso   1.000  O
  O44      1.0000 0.00614  0.91000  0.29340  Biso   1.000  O
  O45      1.0000 0.06690  0.28350  0.39977  Biso   1.000  O
  O46      1.0000 0.12537  0.02650  0.44230  Biso   1.000  O
  O47      1.0000 0.12303  0.86920  0.38213  Biso   1.000  O
  O48      1.0000 0.97918  0.17250  0.43391  Biso   1.000  O
  C71      1.0000 0.14770  0.91340  0.42780  Biso   1.000  C
  C72      1.0000 0.01860  0.27660  0.43165  Biso   1.000  C
  C73      1.0000 0.23110  0.71250  0.44785  Biso   1.000  C
  H43      1.0000 0.21830  0.68660  0.41270  Biso   1.000  H
  C74      1.0000 0.20170  0.83050  0.46525  Biso   1.000  C
  C75      1.0000 0.00850  0.39210  0.46760  Biso   1.000  C
  C76      1.0000 0.05260  0.50900  0.46405  Biso   1.000  C
  H44      1.0000 0.08780  0.51440  0.44010  Biso   1.000  H
  C77      1.0000 0.01720  0.63190  0.29726  Biso   1.000  C
  H45      1.0000 0.02890  0.67840  0.32890  Biso   1.000  H
  C78      1.0000 0.01700  0.49250  0.29710  Biso   1.000  C
  H46      1.0000 0.02830  0.44570  0.32870  Biso   1.000  H
  C79      1.0000 0.95720  0.38430  0.50319  Biso   1.000  C
  H47      1.0000 0.92860  0.30630  0.50530  Biso   1.000  H
  C80      1.0000 0.22070  0.86620  0.51749  Biso   1.000  C
  H48      1.0000 0.20070  0.94490  0.52950  Biso   1.000  H
  C81      1.0000 0.50000  0.64910  0.75000  Biso   1.000  C
  C82      1.0000 0.50000  0.22700  0.75000  Biso   1.000  C
  C83      1.0000 0.50000  0.79900  0.75000  Biso   1.000  C
  C84      1.0000 0.50000  0.07620  0.75000  Biso   1.000  C
  C85      1.0000 0.00000  0.14910  0.75000  Biso   1.000  C
  C86      1.0000 0.00000  0.72700  0.75000  Biso   1.000  C
  C87      1.0000 0.00000  0.29900  0.75000  Biso   1.000  C
  C88      1.0000 0.00000  0.57620  0.75000  Biso   1.000  C
  C89      1.0000 0.50000  0.35090  0.25000  Biso   1.000  C
  C90      1.0000 0.50000  0.77300  0.25000  Biso   1.000  C
  C91      1.0000 0.50000  0.20100  0.25000  Biso   1.000  C
  C92      1.0000 0.50000  0.92380  0.25000  Biso   1.000  C
  C93      1.0000 0.00000  0.85090  0.25000  Biso   1.000  C
  C94      1.0000 0.00000  0.27300  0.25000  Biso   1.000  C
  C95      1.0000 0.00000  0.70100  0.25000  Biso   1.000  C
  C96      1.0000 0.00000  0.42380  0.25000  Biso   1.000  C
