data_image0
_cell_length_a       9.7918
_cell_length_b       9.9454
_cell_length_c       12.7361
_cell_angle_alpha    84.216
_cell_angle_beta     76.642
_cell_angle_gamma    64.07

_symmetry_space_group_name_H-M    "P 1"
_symmetry_int_tables_number       1

loop_
  _symmetry_equiv_pos_as_xyz
  'x, y, z'

loop_
  _atom_site_label
  _atom_site_occupancy
  _atom_site_fract_x
  _atom_site_fract_y
  _atom_site_fract_z
  _atom_site_thermal_displace_type
  _atom_site_B_iso_or_equiv
  _atom_site_type_symbol
  U1       1.0000 0.55948  0.99167  0.27489  Biso   1.000  U
  Cl1      1.0000 0.81630  0.92500  0.35229  Biso   1.000  Cl
  O1       1.0000 0.64300  0.18580  0.18800  Biso   1.000  O
  O2       1.0000 0.46030  0.16720  0.12830  Biso   1.000  O
  O3       1.0000 0.47720  0.17860  0.40530  Biso   1.000  O
  O4       1.0000 0.73350  0.72210  0.23630  Biso   1.000  O
  O5       1.0000 0.74960  0.88010  0.10680  Biso   1.000  O
  O6       1.0000 0.50290  0.13600  0.57600  Biso   1.000  O
  C1       1.0000 0.49550  0.36350  0.49680  Biso   1.000  C
  C2       1.0000 0.49220  0.21530  0.49230  Biso   1.000  C
  C3       1.0000 0.51870  0.44000  0.40190  Biso   1.000  C
  H1       1.0000 0.53170  0.39890  0.33580  Biso   1.000  H
  C4       1.0000 0.47740  0.42400  0.59510  Biso   1.000  C
  H2       1.0000 0.46260  0.37280  0.65880  Biso   1.000  H
  C5       1.0000 0.78850  0.75190  0.14030  Biso   1.000  C
  C6       1.0000 0.90120  0.62210  0.06760  Biso   1.000  C
  C7       1.0000 0.94280  0.64430  0.95930  Biso   1.000  C
  H3       1.0000 0.90540  0.74050  0.93100  Biso   1.000  H
  C8       1.0000 0.95910  0.47710  0.10870  Biso   1.000  C
  H4       1.0000 0.93190  0.46120  0.18220  Biso   1.000  H
  C9       1.0000 0.52190  0.37100  0.06170  Biso   1.000  C
  C10      1.0000 0.54040  0.23270  0.12990  Biso   1.000  C
  C11      1.0000 0.41610  0.42020  0.99490  Biso   1.000  C
  H5       1.0000 0.35980  0.36660  0.99110  Biso   1.000  H
  C12      1.0000 0.60680  0.45030  0.06690  Biso   1.000  C
  H6       1.0000 0.67860  0.41750  0.11120  Biso   1.000  H
  U2       1.0000 0.44052  0.00833  0.72511  Biso   1.000  U
  Cl2      1.0000 0.18370  0.07500  0.64771  Biso   1.000  Cl
  O7       1.0000 0.35700  0.81420  0.81200  Biso   1.000  O
  O8       1.0000 0.53970  0.83280  0.87170  Biso   1.000  O
  O9       1.0000 0.52280  0.82140  0.59470  Biso   1.000  O
  O10      1.0000 0.26650  0.27790  0.76370  Biso   1.000  O
  O11      1.0000 0.25040  0.11990  0.89320  Biso   1.000  O
  O12      1.0000 0.49710  0.86400  0.42400  Biso   1.000  O
  C13      1.0000 0.50450  0.63650  0.50320  Biso   1.000  C
  C14      1.0000 0.50780  0.78470  0.50770  Biso   1.000  C
  C15      1.0000 0.48130  0.56000  0.59810  Biso   1.000  C
  H7       1.0000 0.46830  0.60110  0.66420  Biso   1.000  H
  C16      1.0000 0.52260  0.57600  0.40490  Biso   1.000  C
  H8       1.0000 0.53740  0.62720  0.34120  Biso   1.000  H
  C17      1.0000 0.21150  0.24810  0.85970  Biso   1.000  C
  C18      1.0000 0.09880  0.37790  0.93240  Biso   1.000  C
  C19      1.0000 0.05720  0.35570  0.04070  Biso   1.000  C
  H9       1.0000 0.09460  0.25950  0.06900  Biso   1.000  H
  C20      1.0000 0.04090  0.52290  0.89130  Biso   1.000  C
  H10      1.0000 0.06810  0.53880  0.81780  Biso   1.000  H
  C21      1.0000 0.47810  0.62900  0.93830  Biso   1.000  C
  C22      1.0000 0.45960  0.76730  0.87010  Biso   1.000  C
  C23      1.0000 0.58390  0.57980  0.00510  Biso   1.000  C
  H11      1.0000 0.64020  0.63340  0.00890  Biso   1.000  H
  C24      1.0000 0.39320  0.54970  0.93310  Biso   1.000  C
  H12      1.0000 0.32140  0.58250  0.88880  Biso   1.000  H
