data_image0
_cell_length_a       12.716
_cell_length_b       12.716
_cell_length_c       62.078
_cell_angle_alpha    90
_cell_angle_beta     90
_cell_angle_gamma    90

_symmetry_space_group_name_H-M    "P 1"
_symmetry_int_tables_number       1

loop_
  _symmetry_equiv_pos_as_xyz
  'x, y, z'

loop_
  _atom_site_label
  _atom_site_occupancy
  _atom_site_fract_x
  _atom_site_fract_y
  _atom_site_fract_z
  _atom_site_thermal_displace_type
  _atom_site_B_iso_or_equiv
  _atom_site_type_symbol
  I1       1.0000 0.80180  0.94362  0.90087  Biso   1.000  I
  I2       1.0000 0.16220  0.95407  0.90979  Biso   1.000  I
  Cu1      1.0000 0.97011  0.94923  0.92531  Biso   1.000  Cu
  Cu2      1.0000 0.99524  0.94477  0.88466  Biso   1.000  Cu
  O1       1.0000 0.75790  0.46890  0.04154  Biso   1.000  O
  O2       1.0000 0.13110  0.44460  0.04215  Biso   1.000  O
  O3       1.0000 0.95020  0.26310  0.01923  Biso   1.000  O
  O4       1.0000 0.94100  0.64020  0.01689  Biso   1.000  O
  N1       1.0000 0.57290  0.50240  0.11434  Biso   1.000  N
  N2       1.0000 0.31690  0.48610  0.11505  Biso   1.000  N
  N3       1.0000 0.95160  0.07490  0.94607  Biso   1.000  N
  N4       1.0000 0.96020  0.81800  0.94408  Biso   1.000  N
  C1       1.0000 0.94550  0.45680  0.04227  Biso   1.000  C
  C2       1.0000 0.85060  0.46900  0.05372  Biso   1.000  C
  C3       1.0000 0.85140  0.47730  0.07568  Biso   1.000  C
  C4       1.0000 0.94430  0.47770  0.08605  Biso   1.000  C
  H1       1.0000 0.94360  0.48570  0.10130  Biso   1.000  H
  C5       1.0000 0.04140  0.46700  0.07592  Biso   1.000  C
  C6       1.0000 0.03700  0.45340  0.05359  Biso   1.000  C
  C7       1.0000 0.75160  0.48580  0.08870  Biso   1.000  C
  C8       1.0000 0.74050  0.56560  0.10422  Biso   1.000  C
  H2       1.0000 0.79420  0.61670  0.10610  Biso   1.000  H
  C9       1.0000 0.65210  0.56890  0.11642  Biso   1.000  C
  H3       1.0000 0.64680  0.62220  0.12710  Biso   1.000  H
  C10      1.0000 0.58210  0.42690  0.09926  Biso   1.000  C
  H4       1.0000 0.52640  0.37780  0.09770  Biso   1.000  H
  C11      1.0000 0.66720  0.41740  0.08616  Biso   1.000  C
  H5       1.0000 0.66900  0.36460  0.07540  Biso   1.000  H
  C12      1.0000 0.13830  0.47140  0.08856  Biso   1.000  C
  C13      1.0000 0.15160  0.41070  0.10703  Biso   1.000  C
  H6       1.0000 0.09950  0.36050  0.11080  Biso   1.000  H
  C14      1.0000 0.23890  0.42240  0.11991  Biso   1.000  C
  H7       1.0000 0.24310  0.38280  0.13290  Biso   1.000  H
  C15      1.0000 0.30790  0.54350  0.09686  Biso   1.000  C
  H8       1.0000 0.36200  0.59190  0.09330  Biso   1.000  H
  C16      1.0000 0.22280  0.53390  0.08335  Biso   1.000  C
  H9       1.0000 0.22240  0.57130  0.07010  Biso   1.000  H
  C17      1.0000 0.70770  0.56890  0.03944  Biso   1.000  C
  H10      1.0000 0.67730  0.58940  0.05330  Biso   1.000  H
  H11      1.0000 0.65180  0.56430  0.02860  Biso   1.000  H
  H12      1.0000 0.75950  0.62150  0.03500  Biso   1.000  H
  C18      1.0000 0.17700  0.33990  0.04378  Biso   1.000  C
  H13      1.0000 0.18330  0.32020  0.05900  Biso   1.000  H
  H14      1.0000 0.24690  0.33990  0.03710  Biso   1.000  H
  H15      1.0000 0.13180  0.28910  0.03630  Biso   1.000  H
  C19      1.0000 0.94480  0.45140  0.01806  Biso   1.000  C
  C20      1.0000 0.94400  0.35640  0.00746  Biso   1.000  C
  C21      1.0000 0.93990  0.35170  0.98477  Biso   1.000  C
  C22      1.0000 0.94220  0.44370  0.97359  Biso   1.000  C
  H16      1.0000 0.94250  0.44070  0.95830  Biso   1.000  H
  C23      1.0000 0.94400  0.54240  0.98349  Biso   1.000  C
  C24      1.0000 0.94200  0.54460  0.00594  Biso   1.000  C
  C25      1.0000 0.94220  0.25130  0.97273  Biso   1.000  C
  C26      1.0000 0.01480  0.17330  0.97657  Biso   1.000  C
  H17      1.0000 0.06200  0.17770  0.98840  Biso   1.000  H
  C27      1.0000 0.01700  0.08620  0.96238  Biso   1.000  C
  H18      1.0000 0.06830  0.03320  0.96470  Biso   1.000  H
  C28      1.0000 0.87980  0.14850  0.94262  Biso   1.000  C
  H19      1.0000 0.83240  0.14050  0.93090  Biso   1.000  H
  C29      1.0000 0.87200  0.23650  0.95556  Biso   1.000  C
  H20      1.0000 0.81890  0.28730  0.95280  Biso   1.000  H
  C30      1.0000 0.94800  0.64050  0.97042  Biso   1.000  C
  C31      1.0000 0.01670  0.64390  0.95309  Biso   1.000  C
  H21      1.0000 0.05990  0.58510  0.94980  Biso   1.000  H
  C32      1.0000 0.02140  0.73360  0.94075  Biso   1.000  C
  H22      1.0000 0.07060  0.73590  0.92930  Biso   1.000  H
  C33      1.0000 0.89180  0.81190  0.96057  Biso   1.000  C
  H23      1.0000 0.84600  0.86970  0.96300  Biso   1.000  H
  C34      1.0000 0.88470  0.72730  0.97398  Biso   1.000  C
  H24      1.0000 0.83660  0.72790  0.98570  Biso   1.000  H
  C35      1.0000 0.84860  0.22170  0.02550  Biso   1.000  C
  H25      1.0000 0.81070  0.27460  0.03400  Biso   1.000  H
  H26      1.0000 0.85850  0.15810  0.03420  Biso   1.000  H
  H27      1.0000 0.80780  0.20440  0.01260  Biso   1.000  H
  C36      1.0000 0.04170  0.68230  0.02135  Biso   1.000  C
  H28      1.0000 0.08690  0.62700  0.02730  Biso   1.000  H
  H29      1.0000 0.03500  0.73950  0.03180  Biso   1.000  H
  H30      1.0000 0.07280  0.70950  0.00800  Biso   1.000  H
  I3       1.0000 0.19820  0.05638  0.40087  Biso   1.000  I
  I4       1.0000 0.83780  0.04593  0.40979  Biso   1.000  I
  Cu3      1.0000 0.02989  0.05077  0.42531  Biso   1.000  Cu
  Cu4      1.0000 0.00476  0.05523  0.38466  Biso   1.000  Cu
  O5       1.0000 0.24210  0.53110  0.54154  Biso   1.000  O
  O6       1.0000 0.86890  0.55540  0.54215  Biso   1.000  O
  O7       1.0000 0.04980  0.73690  0.51923  Biso   1.000  O
  O8       1.0000 0.05900  0.35980  0.51689  Biso   1.000  O
  N5       1.0000 0.42710  0.49760  0.61434  Biso   1.000  N
  N6       1.0000 0.68310  0.51390  0.61505  Biso   1.000  N
  N7       1.0000 0.04840  0.92510  0.44607  Biso   1.000  N
  N8       1.0000 0.03980  0.18200  0.44408  Biso   1.000  N
  C37      1.0000 0.05450  0.54320  0.54227  Biso   1.000  C
  C38      1.0000 0.14940  0.53100  0.55372  Biso   1.000  C
  C39      1.0000 0.14860  0.52270  0.57568  Biso   1.000  C
  C40      1.0000 0.05570  0.52230  0.58605  Biso   1.000  C
  H31      1.0000 0.05640  0.51430  0.60130  Biso   1.000  H
  C41      1.0000 0.95860  0.53300  0.57592  Biso   1.000  C
  C42      1.0000 0.96300  0.54660  0.55359  Biso   1.000  C
  C43      1.0000 0.24840  0.51420  0.58870  Biso   1.000  C
  C44      1.0000 0.25950  0.43440  0.60422  Biso   1.000  C
  H32      1.0000 0.20580  0.38330  0.60610  Biso   1.000  H
  C45      1.0000 0.34790  0.43110  0.61642  Biso   1.000  C
  H33      1.0000 0.35320  0.37780  0.62710  Biso   1.000  H
  C46      1.0000 0.41790  0.57310  0.59926  Biso   1.000  C
  H34      1.0000 0.47360  0.62220  0.59770  Biso   1.000  H
  C47      1.0000 0.33280  0.58260  0.58616  Biso   1.000  C
  H35      1.0000 0.33100  0.63540  0.57540  Biso   1.000  H
  C48      1.0000 0.86170  0.52860  0.58856  Biso   1.000  C
  C49      1.0000 0.84840  0.58930  0.60703  Biso   1.000  C
  H36      1.0000 0.90050  0.63950  0.61080  Biso   1.000  H
  C50      1.0000 0.76110  0.57760  0.61991  Biso   1.000  C
  H37      1.0000 0.75690  0.61720  0.63290  Biso   1.000  H
  C51      1.0000 0.69210  0.45650  0.59686  Biso   1.000  C
  H38      1.0000 0.63800  0.40810  0.59330  Biso   1.000  H
  C52      1.0000 0.77720  0.46610  0.58335  Biso   1.000  C
  H39      1.0000 0.77760  0.42870  0.57010  Biso   1.000  H
  C53      1.0000 0.29230  0.43110  0.53944  Biso   1.000  C
  H40      1.0000 0.32270  0.41060  0.55330  Biso   1.000  H
  H41      1.0000 0.34820  0.43570  0.52860  Biso   1.000  H
  H42      1.0000 0.24050  0.37850  0.53500  Biso   1.000  H
  C54      1.0000 0.82300  0.66010  0.54378  Biso   1.000  C
  H43      1.0000 0.81670  0.67980  0.55900  Biso   1.000  H
  H44      1.0000 0.75310  0.66010  0.53710  Biso   1.000  H
  H45      1.0000 0.86820  0.71090  0.53630  Biso   1.000  H
  C55      1.0000 0.05520  0.54860  0.51806  Biso   1.000  C
  C56      1.0000 0.05600  0.64360  0.50746  Biso   1.000  C
  C57      1.0000 0.06010  0.64830  0.48477  Biso   1.000  C
  C58      1.0000 0.05780  0.55630  0.47359  Biso   1.000  C
  H46      1.0000 0.05750  0.55930  0.45830  Biso   1.000  H
  C59      1.0000 0.05600  0.45760  0.48349  Biso   1.000  C
  C60      1.0000 0.05800  0.45540  0.50594  Biso   1.000  C
  C61      1.0000 0.05780  0.74870  0.47273  Biso   1.000  C
  C62      1.0000 0.98520  0.82670  0.47657  Biso   1.000  C
  H47      1.0000 0.93800  0.82230  0.48840  Biso   1.000  H
  C63      1.0000 0.98300  0.91380  0.46238  Biso   1.000  C
  H48      1.0000 0.93170  0.96680  0.46470  Biso   1.000  H
  C64      1.0000 0.12020  0.85150  0.44262  Biso   1.000  C
  H49      1.0000 0.16760  0.85950  0.43090  Biso   1.000  H
  C65      1.0000 0.12800  0.76350  0.45556  Biso   1.000  C
  H50      1.0000 0.18110  0.71270  0.45280  Biso   1.000  H
  C66      1.0000 0.05200  0.35950  0.47042  Biso   1.000  C
  C67      1.0000 0.98330  0.35610  0.45309  Biso   1.000  C
  H51      1.0000 0.94010  0.41490  0.44980  Biso   1.000  H
  C68      1.0000 0.97860  0.26640  0.44075  Biso   1.000  C
  H52      1.0000 0.92940  0.26410  0.42930  Biso   1.000  H
  C69      1.0000 0.10820  0.18810  0.46057  Biso   1.000  C
  H53      1.0000 0.15400  0.13030  0.46300  Biso   1.000  H
  C70      1.0000 0.11530  0.27270  0.47398  Biso   1.000  C
  H54      1.0000 0.16340  0.27210  0.48570  Biso   1.000  H
  C71      1.0000 0.15140  0.77830  0.52550  Biso   1.000  C
  H55      1.0000 0.18930  0.72540  0.53400  Biso   1.000  H
  H56      1.0000 0.14150  0.84190  0.53420  Biso   1.000  H
  H57      1.0000 0.19220  0.79560  0.51260  Biso   1.000  H
  C72      1.0000 0.95830  0.31770  0.52135  Biso   1.000  C
  H58      1.0000 0.91310  0.37300  0.52730  Biso   1.000  H
  H59      1.0000 0.96500  0.26050  0.53180  Biso   1.000  H
  H60      1.0000 0.92720  0.29050  0.50800  Biso   1.000  H
  I5       1.0000 0.55638  0.30180  0.65087  Biso   1.000  I
  I6       1.0000 0.54593  0.66220  0.65979  Biso   1.000  I
  Cu5      1.0000 0.55077  0.47011  0.67531  Biso   1.000  Cu
  Cu6      1.0000 0.55523  0.49524  0.63466  Biso   1.000  Cu
  O9       1.0000 0.03110  0.25790  0.79154  Biso   1.000  O
  O10      1.0000 0.05540  0.63110  0.79215  Biso   1.000  O
  O11      1.0000 0.23690  0.45020  0.76923  Biso   1.000  O
  O12      1.0000 0.85980  0.44100  0.76689  Biso   1.000  O
  N9       1.0000 0.99760  0.07290  0.86434  Biso   1.000  N
  N10      1.0000 0.01390  0.81690  0.86505  Biso   1.000  N
  N11      1.0000 0.42510  0.45160  0.69607  Biso   1.000  N
  N12      1.0000 0.68200  0.46020  0.69408  Biso   1.000  N
  C73      1.0000 0.04320  0.44550  0.79227  Biso   1.000  C
  C74      1.0000 0.03100  0.35060  0.80372  Biso   1.000  C
  C75      1.0000 0.02270  0.35140  0.82568  Biso   1.000  C
  C76      1.0000 0.02230  0.44430  0.83605  Biso   1.000  C
  H61      1.0000 0.01430  0.44360  0.85130  Biso   1.000  H
  C77      1.0000 0.03300  0.54140  0.82592  Biso   1.000  C
  C78      1.0000 0.04660  0.53700  0.80359  Biso   1.000  C
  C79      1.0000 0.01420  0.25160  0.83870  Biso   1.000  C
  C80      1.0000 0.93440  0.24050  0.85422  Biso   1.000  C
  H62      1.0000 0.88330  0.29420  0.85610  Biso   1.000  H
  C81      1.0000 0.93110  0.15210  0.86642  Biso   1.000  C
  H63      1.0000 0.87780  0.14680  0.87710  Biso   1.000  H
  C82      1.0000 0.07310  0.08210  0.84926  Biso   1.000  C
  H64      1.0000 0.12220  0.02640  0.84770  Biso   1.000  H
  C83      1.0000 0.08260  0.16720  0.83616  Biso   1.000  C
  H65      1.0000 0.13540  0.16900  0.82540  Biso   1.000  H
  C84      1.0000 0.02860  0.63830  0.83856  Biso   1.000  C
  C85      1.0000 0.08930  0.65160  0.85703  Biso   1.000  C
  H66      1.0000 0.13950  0.59950  0.86080  Biso   1.000  H
  C86      1.0000 0.07760  0.73890  0.86991  Biso   1.000  C
  H67      1.0000 0.11720  0.74310  0.88290  Biso   1.000  H
  C87      1.0000 0.95650  0.80790  0.84686  Biso   1.000  C
  H68      1.0000 0.90810  0.86200  0.84330  Biso   1.000  H
  C88      1.0000 0.96610  0.72280  0.83335  Biso   1.000  C
  H69      1.0000 0.92870  0.72240  0.82010  Biso   1.000  H
  C89      1.0000 0.93110  0.20770  0.78944  Biso   1.000  C
  H70      1.0000 0.91060  0.17730  0.80330  Biso   1.000  H
  H71      1.0000 0.93570  0.15180  0.77860  Biso   1.000  H
  H72      1.0000 0.87850  0.25950  0.78500  Biso   1.000  H
  C90      1.0000 0.16010  0.67700  0.79378  Biso   1.000  C
  H73      1.0000 0.17980  0.68330  0.80900  Biso   1.000  H
  H74      1.0000 0.16010  0.74690  0.78710  Biso   1.000  H
  H75      1.0000 0.21090  0.63180  0.78630  Biso   1.000  H
  C91      1.0000 0.04860  0.44480  0.76806  Biso   1.000  C
  C92      1.0000 0.14360  0.44400  0.75746  Biso   1.000  C
  C93      1.0000 0.14830  0.43990  0.73477  Biso   1.000  C
  C94      1.0000 0.05630  0.44220  0.72359  Biso   1.000  C
  H76      1.0000 0.05930  0.44250  0.70830  Biso   1.000  H
  C95      1.0000 0.95760  0.44400  0.73349  Biso   1.000  C
  C96      1.0000 0.95540  0.44200  0.75594  Biso   1.000  C
  C97      1.0000 0.24870  0.44220  0.72273  Biso   1.000  C
  C98      1.0000 0.32670  0.51480  0.72657  Biso   1.000  C
  H77      1.0000 0.32230  0.56200  0.73840  Biso   1.000  H
  C99      1.0000 0.41380  0.51700  0.71238  Biso   1.000  C
  H78      1.0000 0.46680  0.56830  0.71470  Biso   1.000  H
  C100     1.0000 0.35150  0.37980  0.69262  Biso   1.000  C
  H79      1.0000 0.35950  0.33240  0.68090  Biso   1.000  H
  C101     1.0000 0.26350  0.37200  0.70556  Biso   1.000  C
  H80      1.0000 0.21270  0.31890  0.70280  Biso   1.000  H
  C102     1.0000 0.85950  0.44800  0.72042  Biso   1.000  C
  C103     1.0000 0.85610  0.51670  0.70309  Biso   1.000  C
  H81      1.0000 0.91490  0.55990  0.69980  Biso   1.000  H
  C104     1.0000 0.76640  0.52140  0.69075  Biso   1.000  C
  H82      1.0000 0.76410  0.57060  0.67930  Biso   1.000  H
  C105     1.0000 0.68810  0.39180  0.71057  Biso   1.000  C
  H83      1.0000 0.63030  0.34600  0.71300  Biso   1.000  H
  C106     1.0000 0.77270  0.38470  0.72398  Biso   1.000  C
  H84      1.0000 0.77210  0.33660  0.73570  Biso   1.000  H
  C107     1.0000 0.27830  0.34860  0.77550  Biso   1.000  C
  H85      1.0000 0.22540  0.31070  0.78400  Biso   1.000  H
  H86      1.0000 0.34190  0.35850  0.78420  Biso   1.000  H
  H87      1.0000 0.29560  0.30780  0.76260  Biso   1.000  H
  C108     1.0000 0.81770  0.54170  0.77135  Biso   1.000  C
  H88      1.0000 0.87300  0.58690  0.77730  Biso   1.000  H
  H89      1.0000 0.76050  0.53500  0.78180  Biso   1.000  H
  H90      1.0000 0.79050  0.57280  0.75800  Biso   1.000  H
  I7       1.0000 0.44362  0.69820  0.15087  Biso   1.000  I
  I8       1.0000 0.45407  0.33780  0.15979  Biso   1.000  I
  Cu7      1.0000 0.44923  0.52989  0.17531  Biso   1.000  Cu
  Cu8      1.0000 0.44477  0.50476  0.13466  Biso   1.000  Cu
  O13      1.0000 0.96890  0.74210  0.29154  Biso   1.000  O
  O14      1.0000 0.94460  0.36890  0.29215  Biso   1.000  O
  O15      1.0000 0.76310  0.54980  0.26923  Biso   1.000  O
  O16      1.0000 0.14020  0.55900  0.26689  Biso   1.000  O
  N13      1.0000 0.00240  0.92710  0.36434  Biso   1.000  N
  N14      1.0000 0.98610  0.18310  0.36505  Biso   1.000  N
  N15      1.0000 0.57490  0.54840  0.19607  Biso   1.000  N
  N16      1.0000 0.31800  0.53980  0.19408  Biso   1.000  N
  C109     1.0000 0.95680  0.55450  0.29227  Biso   1.000  C
  C110     1.0000 0.96900  0.64940  0.30372  Biso   1.000  C
  C111     1.0000 0.97730  0.64860  0.32568  Biso   1.000  C
  C112     1.0000 0.97770  0.55570  0.33605  Biso   1.000  C
  H91      1.0000 0.98570  0.55640  0.35130  Biso   1.000  H
  C113     1.0000 0.96700  0.45860  0.32592  Biso   1.000  C
  C114     1.0000 0.95340  0.46300  0.30359  Biso   1.000  C
  C115     1.0000 0.98580  0.74840  0.33870  Biso   1.000  C
  C116     1.0000 0.06560  0.75950  0.35422  Biso   1.000  C
  H92      1.0000 0.11670  0.70580  0.35610  Biso   1.000  H
  C117     1.0000 0.06890  0.84790  0.36642  Biso   1.000  C
  H93      1.0000 0.12220  0.85320  0.37710  Biso   1.000  H
  C118     1.0000 0.92690  0.91790  0.34926  Biso   1.000  C
  H94      1.0000 0.87780  0.97360  0.34770  Biso   1.000  H
  C119     1.0000 0.91740  0.83280  0.33616  Biso   1.000  C
  H95      1.0000 0.86460  0.83100  0.32540  Biso   1.000  H
  C120     1.0000 0.97140  0.36170  0.33856  Biso   1.000  C
  C121     1.0000 0.91070  0.34840  0.35703  Biso   1.000  C
  H96      1.0000 0.86050  0.40050  0.36080  Biso   1.000  H
  C122     1.0000 0.92240  0.26110  0.36991  Biso   1.000  C
  H97      1.0000 0.88280  0.25690  0.38290  Biso   1.000  H
  C123     1.0000 0.04350  0.19210  0.34686  Biso   1.000  C
  H98      1.0000 0.09190  0.13800  0.34330  Biso   1.000  H
  C124     1.0000 0.03390  0.27720  0.33335  Biso   1.000  C
  H99      1.0000 0.07130  0.27760  0.32010  Biso   1.000  H
  C125     1.0000 0.06890  0.79230  0.28944  Biso   1.000  C
  H100     1.0000 0.08940  0.82270  0.30330  Biso   1.000  H
  H101     1.0000 0.06430  0.84820  0.27860  Biso   1.000  H
  H102     1.0000 0.12150  0.74050  0.28500  Biso   1.000  H
  C126     1.0000 0.83990  0.32300  0.29378  Biso   1.000  C
  H103     1.0000 0.82020  0.31670  0.30900  Biso   1.000  H
  H104     1.0000 0.83990  0.25310  0.28710  Biso   1.000  H
  H105     1.0000 0.78910  0.36820  0.28630  Biso   1.000  H
  C127     1.0000 0.95140  0.55520  0.26806  Biso   1.000  C
  C128     1.0000 0.85640  0.55600  0.25746  Biso   1.000  C
  C129     1.0000 0.85170  0.56010  0.23477  Biso   1.000  C
  C130     1.0000 0.94370  0.55780  0.22359  Biso   1.000  C
  H106     1.0000 0.94070  0.55750  0.20830  Biso   1.000  H
  C131     1.0000 0.04240  0.55600  0.23349  Biso   1.000  C
  C132     1.0000 0.04460  0.55800  0.25594  Biso   1.000  C
  C133     1.0000 0.75130  0.55780  0.22273  Biso   1.000  C
  C134     1.0000 0.67330  0.48520  0.22657  Biso   1.000  C
  H107     1.0000 0.67770  0.43800  0.23840  Biso   1.000  H
  C135     1.0000 0.58620  0.48300  0.21238  Biso   1.000  C
  H108     1.0000 0.53320  0.43170  0.21470  Biso   1.000  H
  C136     1.0000 0.64850  0.62020  0.19262  Biso   1.000  C
  H109     1.0000 0.64050  0.66760  0.18090  Biso   1.000  H
  C137     1.0000 0.73650  0.62800  0.20556  Biso   1.000  C
  H110     1.0000 0.78730  0.68110  0.20280  Biso   1.000  H
  C138     1.0000 0.14050  0.55200  0.22042  Biso   1.000  C
  C139     1.0000 0.14390  0.48330  0.20309  Biso   1.000  C
  H111     1.0000 0.08510  0.44010  0.19980  Biso   1.000  H
  C140     1.0000 0.23360  0.47860  0.19075  Biso   1.000  C
  H112     1.0000 0.23590  0.42940  0.17930  Biso   1.000  H
  C141     1.0000 0.31190  0.60820  0.21057  Biso   1.000  C
  H113     1.0000 0.36970  0.65400  0.21300  Biso   1.000  H
  C142     1.0000 0.22730  0.61530  0.22398  Biso   1.000  C
  H114     1.0000 0.22790  0.66340  0.23570  Biso   1.000  H
  C143     1.0000 0.72170  0.65140  0.27550  Biso   1.000  C
  H115     1.0000 0.77460  0.68930  0.28400  Biso   1.000  H
  H116     1.0000 0.65810  0.64150  0.28420  Biso   1.000  H
  H117     1.0000 0.70440  0.69220  0.26260  Biso   1.000  H
  C144     1.0000 0.18230  0.45830  0.27135  Biso   1.000  C
  H118     1.0000 0.12700  0.41310  0.27730  Biso   1.000  H
  H119     1.0000 0.23950  0.46500  0.28180  Biso   1.000  H
  H120     1.0000 0.20950  0.42720  0.25800  Biso   1.000  H
  I9       1.0000 0.69820  0.44362  0.84913  Biso   1.000  I
  I10      1.0000 0.33780  0.45407  0.84021  Biso   1.000  I
  Cu9      1.0000 0.52989  0.44923  0.82470  Biso   1.000  Cu
  Cu10     1.0000 0.50476  0.44477  0.86534  Biso   1.000  Cu
  O17      1.0000 0.74210  0.96890  0.70846  Biso   1.000  O
  O18      1.0000 0.36890  0.94460  0.70785  Biso   1.000  O
  O19      1.0000 0.54980  0.76310  0.73077  Biso   1.000  O
  O20      1.0000 0.55900  0.14020  0.73311  Biso   1.000  O
  N17      1.0000 0.92710  0.00240  0.63566  Biso   1.000  N
  N18      1.0000 0.18310  0.98610  0.63495  Biso   1.000  N
  N19      1.0000 0.54840  0.57490  0.80393  Biso   1.000  N
  N20      1.0000 0.53980  0.31800  0.80592  Biso   1.000  N
  C145     1.0000 0.55450  0.95680  0.70773  Biso   1.000  C
  C146     1.0000 0.64940  0.96900  0.69628  Biso   1.000  C
  C147     1.0000 0.64860  0.97730  0.67432  Biso   1.000  C
  C148     1.0000 0.55570  0.97770  0.66395  Biso   1.000  C
  H121     1.0000 0.55640  0.98570  0.64870  Biso   1.000  H
  C149     1.0000 0.45860  0.96700  0.67408  Biso   1.000  C
  C150     1.0000 0.46300  0.95340  0.69641  Biso   1.000  C
  C151     1.0000 0.74840  0.98580  0.66130  Biso   1.000  C
  C152     1.0000 0.75950  0.06560  0.64578  Biso   1.000  C
  H122     1.0000 0.70580  0.11670  0.64390  Biso   1.000  H
  C153     1.0000 0.84790  0.06890  0.63358  Biso   1.000  C
  H123     1.0000 0.85320  0.12220  0.62290  Biso   1.000  H
  C154     1.0000 0.91790  0.92690  0.65074  Biso   1.000  C
  H124     1.0000 0.97360  0.87780  0.65230  Biso   1.000  H
  C155     1.0000 0.83280  0.91740  0.66384  Biso   1.000  C
  H125     1.0000 0.83100  0.86460  0.67460  Biso   1.000  H
  C156     1.0000 0.36170  0.97140  0.66144  Biso   1.000  C
  C157     1.0000 0.34840  0.91070  0.64297  Biso   1.000  C
  H126     1.0000 0.40050  0.86050  0.63920  Biso   1.000  H
  C158     1.0000 0.26110  0.92240  0.63009  Biso   1.000  C
  H127     1.0000 0.25690  0.88280  0.61710  Biso   1.000  H
  C159     1.0000 0.19210  0.04350  0.65314  Biso   1.000  C
  H128     1.0000 0.13800  0.09190  0.65670  Biso   1.000  H
  C160     1.0000 0.27720  0.03390  0.66665  Biso   1.000  C
  H129     1.0000 0.27760  0.07130  0.67990  Biso   1.000  H
  C161     1.0000 0.79230  0.06890  0.71056  Biso   1.000  C
  H130     1.0000 0.82270  0.08940  0.69670  Biso   1.000  H
  H131     1.0000 0.84820  0.06430  0.72140  Biso   1.000  H
  H132     1.0000 0.74050  0.12150  0.71500  Biso   1.000  H
  C162     1.0000 0.32300  0.83990  0.70622  Biso   1.000  C
  H133     1.0000 0.31670  0.82020  0.69100  Biso   1.000  H
  H134     1.0000 0.25310  0.83990  0.71290  Biso   1.000  H
  H135     1.0000 0.36820  0.78910  0.71370  Biso   1.000  H
  C163     1.0000 0.55520  0.95140  0.73194  Biso   1.000  C
  C164     1.0000 0.55600  0.85640  0.74254  Biso   1.000  C
  C165     1.0000 0.56010  0.85170  0.76523  Biso   1.000  C
  C166     1.0000 0.55780  0.94370  0.77641  Biso   1.000  C
  H136     1.0000 0.55750  0.94070  0.79170  Biso   1.000  H
  C167     1.0000 0.55600  0.04240  0.76651  Biso   1.000  C
  C168     1.0000 0.55800  0.04460  0.74406  Biso   1.000  C
  C169     1.0000 0.55780  0.75130  0.77727  Biso   1.000  C
  C170     1.0000 0.48520  0.67330  0.77343  Biso   1.000  C
  H137     1.0000 0.43800  0.67770  0.76160  Biso   1.000  H
  C171     1.0000 0.48300  0.58620  0.78762  Biso   1.000  C
  H138     1.0000 0.43170  0.53320  0.78530  Biso   1.000  H
  C172     1.0000 0.62020  0.64850  0.80738  Biso   1.000  C
  H139     1.0000 0.66760  0.64050  0.81910  Biso   1.000  H
  C173     1.0000 0.62800  0.73650  0.79444  Biso   1.000  C
  H140     1.0000 0.68110  0.78730  0.79720  Biso   1.000  H
  C174     1.0000 0.55200  0.14050  0.77958  Biso   1.000  C
  C175     1.0000 0.48330  0.14390  0.79691  Biso   1.000  C
  H141     1.0000 0.44010  0.08510  0.80020  Biso   1.000  H
  C176     1.0000 0.47860  0.23360  0.80925  Biso   1.000  C
  H142     1.0000 0.42940  0.23590  0.82070  Biso   1.000  H
  C177     1.0000 0.60820  0.31190  0.78943  Biso   1.000  C
  H143     1.0000 0.65400  0.36970  0.78700  Biso   1.000  H
  C178     1.0000 0.61530  0.22730  0.77602  Biso   1.000  C
  H144     1.0000 0.66340  0.22790  0.76430  Biso   1.000  H
  C179     1.0000 0.65140  0.72170  0.72450  Biso   1.000  C
  H145     1.0000 0.68930  0.77460  0.71600  Biso   1.000  H
  H146     1.0000 0.64150  0.65810  0.71580  Biso   1.000  H
  H147     1.0000 0.69220  0.70440  0.73740  Biso   1.000  H
  C180     1.0000 0.45830  0.18230  0.72865  Biso   1.000  C
  H148     1.0000 0.41310  0.12700  0.72270  Biso   1.000  H
  H149     1.0000 0.46500  0.23950  0.71820  Biso   1.000  H
  H150     1.0000 0.42720  0.20950  0.74200  Biso   1.000  H
  I11      1.0000 0.30180  0.55638  0.34913  Biso   1.000  I
  I12      1.0000 0.66220  0.54593  0.34021  Biso   1.000  I
  Cu11     1.0000 0.47011  0.55077  0.32470  Biso   1.000  Cu
  Cu12     1.0000 0.49524  0.55523  0.36534  Biso   1.000  Cu
  O21      1.0000 0.25790  0.03110  0.20846  Biso   1.000  O
  O22      1.0000 0.63110  0.05540  0.20785  Biso   1.000  O
  O23      1.0000 0.45020  0.23690  0.23077  Biso   1.000  O
  O24      1.0000 0.44100  0.85980  0.23311  Biso   1.000  O
  N21      1.0000 0.07290  0.99760  0.13566  Biso   1.000  N
  N22      1.0000 0.81690  0.01390  0.13495  Biso   1.000  N
  N23      1.0000 0.45160  0.42510  0.30393  Biso   1.000  N
  N24      1.0000 0.46020  0.68200  0.30592  Biso   1.000  N
  C181     1.0000 0.44550  0.04320  0.20773  Biso   1.000  C
  C182     1.0000 0.35060  0.03100  0.19628  Biso   1.000  C
  C183     1.0000 0.35140  0.02270  0.17432  Biso   1.000  C
  C184     1.0000 0.44430  0.02230  0.16395  Biso   1.000  C
  H151     1.0000 0.44360  0.01430  0.14870  Biso   1.000  H
  C185     1.0000 0.54140  0.03300  0.17408  Biso   1.000  C
  C186     1.0000 0.53700  0.04660  0.19641  Biso   1.000  C
  C187     1.0000 0.25160  0.01420  0.16130  Biso   1.000  C
  C188     1.0000 0.24050  0.93440  0.14578  Biso   1.000  C
  H152     1.0000 0.29420  0.88330  0.14390  Biso   1.000  H
  C189     1.0000 0.15210  0.93110  0.13358  Biso   1.000  C
  H153     1.0000 0.14680  0.87780  0.12290  Biso   1.000  H
  C190     1.0000 0.08210  0.07310  0.15074  Biso   1.000  C
  H154     1.0000 0.02640  0.12220  0.15230  Biso   1.000  H
  C191     1.0000 0.16720  0.08260  0.16384  Biso   1.000  C
  H155     1.0000 0.16900  0.13540  0.17460  Biso   1.000  H
  C192     1.0000 0.63830  0.02860  0.16144  Biso   1.000  C
  C193     1.0000 0.65160  0.08930  0.14297  Biso   1.000  C
  H156     1.0000 0.59950  0.13950  0.13920  Biso   1.000  H
  C194     1.0000 0.73890  0.07760  0.13009  Biso   1.000  C
  H157     1.0000 0.74310  0.11720  0.11710  Biso   1.000  H
  C195     1.0000 0.80790  0.95650  0.15314  Biso   1.000  C
  H158     1.0000 0.86200  0.90810  0.15670  Biso   1.000  H
  C196     1.0000 0.72280  0.96610  0.16665  Biso   1.000  C
  H159     1.0000 0.72240  0.92870  0.17990  Biso   1.000  H
  C197     1.0000 0.20770  0.93110  0.21056  Biso   1.000  C
  H160     1.0000 0.17730  0.91060  0.19670  Biso   1.000  H
  H161     1.0000 0.15180  0.93570  0.22140  Biso   1.000  H
  H162     1.0000 0.25950  0.87850  0.21500  Biso   1.000  H
  C198     1.0000 0.67700  0.16010  0.20622  Biso   1.000  C
  H163     1.0000 0.68330  0.17980  0.19100  Biso   1.000  H
  H164     1.0000 0.74690  0.16010  0.21290  Biso   1.000  H
  H165     1.0000 0.63180  0.21090  0.21370  Biso   1.000  H
  C199     1.0000 0.44480  0.04860  0.23194  Biso   1.000  C
  C200     1.0000 0.44400  0.14360  0.24254  Biso   1.000  C
  C201     1.0000 0.43990  0.14830  0.26523  Biso   1.000  C
  C202     1.0000 0.44220  0.05630  0.27641  Biso   1.000  C
  H166     1.0000 0.44250  0.05930  0.29170  Biso   1.000  H
  C203     1.0000 0.44400  0.95760  0.26651  Biso   1.000  C
  C204     1.0000 0.44200  0.95540  0.24406  Biso   1.000  C
  C205     1.0000 0.44220  0.24870  0.27727  Biso   1.000  C
  C206     1.0000 0.51480  0.32670  0.27343  Biso   1.000  C
  H167     1.0000 0.56200  0.32230  0.26160  Biso   1.000  H
  C207     1.0000 0.51700  0.41380  0.28762  Biso   1.000  C
  H168     1.0000 0.56830  0.46680  0.28530  Biso   1.000  H
  C208     1.0000 0.37980  0.35150  0.30738  Biso   1.000  C
  H169     1.0000 0.33240  0.35950  0.31910  Biso   1.000  H
  C209     1.0000 0.37200  0.26350  0.29444  Biso   1.000  C
  H170     1.0000 0.31890  0.21270  0.29720  Biso   1.000  H
  C210     1.0000 0.44800  0.85950  0.27958  Biso   1.000  C
  C211     1.0000 0.51670  0.85610  0.29691  Biso   1.000  C
  H171     1.0000 0.55990  0.91490  0.30020  Biso   1.000  H
  C212     1.0000 0.52140  0.76640  0.30925  Biso   1.000  C
  H172     1.0000 0.57060  0.76410  0.32070  Biso   1.000  H
  C213     1.0000 0.39180  0.68810  0.28943  Biso   1.000  C
  H173     1.0000 0.34600  0.63030  0.28700  Biso   1.000  H
  C214     1.0000 0.38470  0.77270  0.27602  Biso   1.000  C
  H174     1.0000 0.33660  0.77210  0.26430  Biso   1.000  H
  C215     1.0000 0.34860  0.27830  0.22450  Biso   1.000  C
  H175     1.0000 0.31070  0.22540  0.21600  Biso   1.000  H
  H176     1.0000 0.35850  0.34190  0.21580  Biso   1.000  H
  H177     1.0000 0.30780  0.29560  0.23740  Biso   1.000  H
  C216     1.0000 0.54170  0.81770  0.22865  Biso   1.000  C
  H178     1.0000 0.58690  0.87300  0.22270  Biso   1.000  H
  H179     1.0000 0.53500  0.76050  0.21820  Biso   1.000  H
  H180     1.0000 0.57280  0.79050  0.24200  Biso   1.000  H
  I13      1.0000 0.94362  0.80180  0.09913  Biso   1.000  I
  I14      1.0000 0.95407  0.16220  0.09021  Biso   1.000  I
  Cu13     1.0000 0.94923  0.97011  0.07470  Biso   1.000  Cu
  Cu14     1.0000 0.94477  0.99524  0.11534  Biso   1.000  Cu
  O25      1.0000 0.46890  0.75790  0.95846  Biso   1.000  O
  O26      1.0000 0.44460  0.13110  0.95785  Biso   1.000  O
  O27      1.0000 0.26310  0.95020  0.98077  Biso   1.000  O
  O28      1.0000 0.64020  0.94100  0.98311  Biso   1.000  O
  N25      1.0000 0.50240  0.57290  0.88566  Biso   1.000  N
  N26      1.0000 0.48610  0.31690  0.88495  Biso   1.000  N
  N27      1.0000 0.07490  0.95160  0.05393  Biso   1.000  N
  N28      1.0000 0.81800  0.96020  0.05592  Biso   1.000  N
  C217     1.0000 0.45680  0.94550  0.95773  Biso   1.000  C
  C218     1.0000 0.46900  0.85060  0.94628  Biso   1.000  C
  C219     1.0000 0.47730  0.85140  0.92432  Biso   1.000  C
  C220     1.0000 0.47770  0.94430  0.91395  Biso   1.000  C
  H181     1.0000 0.48570  0.94360  0.89870  Biso   1.000  H
  C221     1.0000 0.46700  0.04140  0.92408  Biso   1.000  C
  C222     1.0000 0.45340  0.03700  0.94641  Biso   1.000  C
  C223     1.0000 0.48580  0.75160  0.91130  Biso   1.000  C
  C224     1.0000 0.56560  0.74050  0.89578  Biso   1.000  C
  H182     1.0000 0.61670  0.79420  0.89390  Biso   1.000  H
  C225     1.0000 0.56890  0.65210  0.88358  Biso   1.000  C
  H183     1.0000 0.62220  0.64680  0.87290  Biso   1.000  H
  C226     1.0000 0.42690  0.58210  0.90074  Biso   1.000  C
  H184     1.0000 0.37780  0.52640  0.90230  Biso   1.000  H
  C227     1.0000 0.41740  0.66720  0.91384  Biso   1.000  C
  H185     1.0000 0.36460  0.66900  0.92460  Biso   1.000  H
  C228     1.0000 0.47140  0.13830  0.91144  Biso   1.000  C
  C229     1.0000 0.41070  0.15160  0.89297  Biso   1.000  C
  H186     1.0000 0.36050  0.09950  0.88920  Biso   1.000  H
  C230     1.0000 0.42240  0.23890  0.88009  Biso   1.000  C
  H187     1.0000 0.38280  0.24310  0.86710  Biso   1.000  H
  C231     1.0000 0.54350  0.30790  0.90314  Biso   1.000  C
  H188     1.0000 0.59190  0.36200  0.90670  Biso   1.000  H
  C232     1.0000 0.53390  0.22280  0.91665  Biso   1.000  C
  H189     1.0000 0.57130  0.22240  0.92990  Biso   1.000  H
  C233     1.0000 0.56890  0.70770  0.96056  Biso   1.000  C
  H190     1.0000 0.58940  0.67730  0.94670  Biso   1.000  H
  H191     1.0000 0.56430  0.65180  0.97140  Biso   1.000  H
  H192     1.0000 0.62150  0.75950  0.96500  Biso   1.000  H
  C234     1.0000 0.33990  0.17700  0.95622  Biso   1.000  C
  H193     1.0000 0.32020  0.18330  0.94100  Biso   1.000  H
  H194     1.0000 0.33990  0.24690  0.96290  Biso   1.000  H
  H195     1.0000 0.28910  0.13180  0.96370  Biso   1.000  H
  C235     1.0000 0.45140  0.94480  0.98194  Biso   1.000  C
  C236     1.0000 0.35640  0.94400  0.99254  Biso   1.000  C
  C237     1.0000 0.35170  0.93990  0.01523  Biso   1.000  C
  C238     1.0000 0.44370  0.94220  0.02641  Biso   1.000  C
  H196     1.0000 0.44070  0.94250  0.04170  Biso   1.000  H
  C239     1.0000 0.54240  0.94400  0.01651  Biso   1.000  C
  C240     1.0000 0.54460  0.94200  0.99406  Biso   1.000  C
  C241     1.0000 0.25130  0.94220  0.02727  Biso   1.000  C
  C242     1.0000 0.17330  0.01480  0.02343  Biso   1.000  C
  H197     1.0000 0.17770  0.06200  0.01160  Biso   1.000  H
  C243     1.0000 0.08620  0.01700  0.03762  Biso   1.000  C
  H198     1.0000 0.03320  0.06830  0.03530  Biso   1.000  H
  C244     1.0000 0.14850  0.87980  0.05738  Biso   1.000  C
  H199     1.0000 0.14050  0.83240  0.06910  Biso   1.000  H
  C245     1.0000 0.23650  0.87200  0.04444  Biso   1.000  C
  H200     1.0000 0.28730  0.81890  0.04720  Biso   1.000  H
  C246     1.0000 0.64050  0.94800  0.02958  Biso   1.000  C
  C247     1.0000 0.64390  0.01670  0.04691  Biso   1.000  C
  H201     1.0000 0.58510  0.05990  0.05020  Biso   1.000  H
  C248     1.0000 0.73360  0.02140  0.05925  Biso   1.000  C
  H202     1.0000 0.73590  0.07060  0.07070  Biso   1.000  H
  C249     1.0000 0.81190  0.89180  0.03943  Biso   1.000  C
  H203     1.0000 0.86970  0.84600  0.03700  Biso   1.000  H
  C250     1.0000 0.72730  0.88470  0.02602  Biso   1.000  C
  H204     1.0000 0.72790  0.83660  0.01430  Biso   1.000  H
  C251     1.0000 0.22170  0.84860  0.97450  Biso   1.000  C
  H205     1.0000 0.27460  0.81070  0.96600  Biso   1.000  H
  H206     1.0000 0.15810  0.85850  0.96580  Biso   1.000  H
  H207     1.0000 0.20440  0.80780  0.98740  Biso   1.000  H
  C252     1.0000 0.68230  0.04170  0.97865  Biso   1.000  C
  H208     1.0000 0.62700  0.08690  0.97270  Biso   1.000  H
  H209     1.0000 0.73950  0.03500  0.96820  Biso   1.000  H
  H210     1.0000 0.70950  0.07280  0.99200  Biso   1.000  H
  I15      1.0000 0.05638  0.19820  0.59913  Biso   1.000  I
  I16      1.0000 0.04593  0.83780  0.59021  Biso   1.000  I
  Cu15     1.0000 0.05077  0.02989  0.57470  Biso   1.000  Cu
  Cu16     1.0000 0.05523  0.00476  0.61534  Biso   1.000  Cu
  O29      1.0000 0.53110  0.24210  0.45846  Biso   1.000  O
  O30      1.0000 0.55540  0.86890  0.45785  Biso   1.000  O
  O31      1.0000 0.73690  0.04980  0.48077  Biso   1.000  O
  O32      1.0000 0.35980  0.05900  0.48311  Biso   1.000  O
  N29      1.0000 0.49760  0.42710  0.38566  Biso   1.000  N
  N30      1.0000 0.51390  0.68310  0.38495  Biso   1.000  N
  N31      1.0000 0.92510  0.04840  0.55393  Biso   1.000  N
  N32      1.0000 0.18200  0.03980  0.55592  Biso   1.000  N
  C253     1.0000 0.54320  0.05450  0.45773  Biso   1.000  C
  C254     1.0000 0.53100  0.14940  0.44628  Biso   1.000  C
  C255     1.0000 0.52270  0.14860  0.42432  Biso   1.000  C
  C256     1.0000 0.52230  0.05570  0.41395  Biso   1.000  C
  H211     1.0000 0.51430  0.05640  0.39870  Biso   1.000  H
  C257     1.0000 0.53300  0.95860  0.42408  Biso   1.000  C
  C258     1.0000 0.54660  0.96300  0.44641  Biso   1.000  C
  C259     1.0000 0.51420  0.24840  0.41130  Biso   1.000  C
  C260     1.0000 0.43440  0.25950  0.39578  Biso   1.000  C
  H212     1.0000 0.38330  0.20580  0.39390  Biso   1.000  H
  C261     1.0000 0.43110  0.34790  0.38358  Biso   1.000  C
  H213     1.0000 0.37780  0.35320  0.37290  Biso   1.000  H
  C262     1.0000 0.57310  0.41790  0.40074  Biso   1.000  C
  H214     1.0000 0.62220  0.47360  0.40230  Biso   1.000  H
  C263     1.0000 0.58260  0.33280  0.41384  Biso   1.000  C
  H215     1.0000 0.63540  0.33100  0.42460  Biso   1.000  H
  C264     1.0000 0.52860  0.86170  0.41144  Biso   1.000  C
  C265     1.0000 0.58930  0.84840  0.39297  Biso   1.000  C
  H216     1.0000 0.63950  0.90050  0.38920  Biso   1.000  H
  C266     1.0000 0.57760  0.76110  0.38009  Biso   1.000  C
  H217     1.0000 0.61720  0.75690  0.36710  Biso   1.000  H
  C267     1.0000 0.45650  0.69210  0.40314  Biso   1.000  C
  H218     1.0000 0.40810  0.63800  0.40670  Biso   1.000  H
  C268     1.0000 0.46610  0.77720  0.41665  Biso   1.000  C
  H219     1.0000 0.42870  0.77760  0.42990  Biso   1.000  H
  C269     1.0000 0.43110  0.29230  0.46056  Biso   1.000  C
  H220     1.0000 0.41060  0.32270  0.44670  Biso   1.000  H
  H221     1.0000 0.43570  0.34820  0.47140  Biso   1.000  H
  H222     1.0000 0.37850  0.24050  0.46500  Biso   1.000  H
  C270     1.0000 0.66010  0.82300  0.45622  Biso   1.000  C
  H223     1.0000 0.67980  0.81670  0.44100  Biso   1.000  H
  H224     1.0000 0.66010  0.75310  0.46290  Biso   1.000  H
  H225     1.0000 0.71090  0.86820  0.46370  Biso   1.000  H
  C271     1.0000 0.54860  0.05520  0.48194  Biso   1.000  C
  C272     1.0000 0.64360  0.05600  0.49254  Biso   1.000  C
  C273     1.0000 0.64830  0.06010  0.51523  Biso   1.000  C
  C274     1.0000 0.55630  0.05780  0.52641  Biso   1.000  C
  H226     1.0000 0.55930  0.05750  0.54170  Biso   1.000  H
  C275     1.0000 0.45760  0.05600  0.51651  Biso   1.000  C
  C276     1.0000 0.45540  0.05800  0.49406  Biso   1.000  C
  C277     1.0000 0.74870  0.05780  0.52727  Biso   1.000  C
  C278     1.0000 0.82670  0.98520  0.52343  Biso   1.000  C
  H227     1.0000 0.82230  0.93800  0.51160  Biso   1.000  H
  C279     1.0000 0.91380  0.98300  0.53762  Biso   1.000  C
  H228     1.0000 0.96680  0.93170  0.53530  Biso   1.000  H
  C280     1.0000 0.85150  0.12020  0.55738  Biso   1.000  C
  H229     1.0000 0.85950  0.16760  0.56910  Biso   1.000  H
  C281     1.0000 0.76350  0.12800  0.54444  Biso   1.000  C
  H230     1.0000 0.71270  0.18110  0.54720  Biso   1.000  H
  C282     1.0000 0.35950  0.05200  0.52958  Biso   1.000  C
  C283     1.0000 0.35610  0.98330  0.54691  Biso   1.000  C
  H231     1.0000 0.41490  0.94010  0.55020  Biso   1.000  H
  C284     1.0000 0.26640  0.97860  0.55925  Biso   1.000  C
  H232     1.0000 0.26410  0.92940  0.57070  Biso   1.000  H
  C285     1.0000 0.18810  0.10820  0.53943  Biso   1.000  C
  H233     1.0000 0.13030  0.15400  0.53700  Biso   1.000  H
  C286     1.0000 0.27270  0.11530  0.52602  Biso   1.000  C
  H234     1.0000 0.27210  0.16340  0.51430  Biso   1.000  H
  C287     1.0000 0.77830  0.15140  0.47450  Biso   1.000  C
  H235     1.0000 0.72540  0.18930  0.46600  Biso   1.000  H
  H236     1.0000 0.84190  0.14150  0.46580  Biso   1.000  H
  H237     1.0000 0.79560  0.19220  0.48740  Biso   1.000  H
  C288     1.0000 0.31770  0.95830  0.47865  Biso   1.000  C
  H238     1.0000 0.37300  0.91310  0.47270  Biso   1.000  H
  H239     1.0000 0.26050  0.96500  0.46820  Biso   1.000  H
  H240     1.0000 0.29050  0.92720  0.49200  Biso   1.000  H
