data_image0
_cell_length_a       20.55
_cell_length_b       14.19
_cell_length_c       6.71
_cell_angle_alpha    90
_cell_angle_beta     101.35
_cell_angle_gamma    90

_symmetry_space_group_name_H-M    "P 1"
_symmetry_int_tables_number       1

loop_
  _symmetry_equiv_pos_as_xyz
  'x, y, z'

loop_
  _atom_site_label
  _atom_site_occupancy
  _atom_site_fract_x
  _atom_site_fract_y
  _atom_site_fract_z
  _atom_site_thermal_displace_type
  _atom_site_B_iso_or_equiv
  _atom_site_type_symbol
  Ce1      1.0000 0.28460  0.59910  0.52100  Biso   1.000  Ce
  C1       1.0000 0.37800  0.44100  0.58200  Biso   1.000  C
  C2       1.0000 0.43500  0.37000  0.61600  Biso   1.000  C
  C3       1.0000 0.19200  0.45200  0.54300  Biso   1.000  C
  C4       1.0000 0.38600  0.73400  0.48900  Biso   1.000  C
  C5       1.0000 0.44100  0.81400  0.46800  Biso   1.000  C
  C6       1.0000 0.27200  0.65900  0.00200  Biso   1.000  C
  C7       1.0000 0.13600  0.72900  0.44800  Biso   1.000  C
  C8       1.0000 0.08400  0.65300  0.48600  Biso   1.000  C
  O1       1.0000 0.34800  0.46800  0.41400  Biso   1.000  O
  O2       1.0000 0.36000  0.47700  0.72000  Biso   1.000  O
  O3       1.0000 0.20800  0.49300  0.71300  Biso   1.000  O
  O4       1.0000 0.20300  0.47700  0.38500  Biso   1.000  O
  O5       1.0000 0.40600  0.65000  0.52200  Biso   1.000  O
  O6       1.0000 0.33100  0.76200  0.46200  Biso   1.000  O
  O7       1.0000 0.27700  0.60300  0.16100  Biso   1.000  O
  O8       1.0000 0.29800  0.64700  0.84300  Biso   1.000  O
  O9       1.0000 0.11900  0.81600  0.41300  Biso   1.000  O
  O10      1.0000 0.19500  0.69900  0.48800  Biso   1.000  O
  K1       1.0000 0.23780  0.90160  0.44690  Biso   1.000  K
  K2       1.0000 0.41120  0.53700  0.10020  Biso   1.000  K
  O11      1.0000 0.49500  0.61100  0.84100  Biso   1.000  O
  Ce2      1.0000 0.21540  0.09910  0.97900  Biso   1.000  Ce
  C9       1.0000 0.12200  0.94100  0.91800  Biso   1.000  C
  C10      1.0000 0.06500  0.87000  0.88400  Biso   1.000  C
  C11      1.0000 0.30800  0.95200  0.95700  Biso   1.000  C
  C12      1.0000 0.11400  0.23400  0.01100  Biso   1.000  C
  C13      1.0000 0.05900  0.31400  0.03200  Biso   1.000  C
  C14      1.0000 0.22800  0.15900  0.49800  Biso   1.000  C
  C15      1.0000 0.36400  0.22900  0.05200  Biso   1.000  C
  C16      1.0000 0.41600  0.15300  0.01400  Biso   1.000  C
  O12      1.0000 0.15200  0.96800  0.08600  Biso   1.000  O
  O13      1.0000 0.14000  0.97700  0.78000  Biso   1.000  O
  O14      1.0000 0.29200  0.99300  0.78700  Biso   1.000  O
  O15      1.0000 0.29700  0.97700  0.11500  Biso   1.000  O
  O16      1.0000 0.09400  0.15000  0.97800  Biso   1.000  O
  O17      1.0000 0.16900  0.26200  0.03800  Biso   1.000  O
  O18      1.0000 0.22300  0.10300  0.33900  Biso   1.000  O
  O19      1.0000 0.20200  0.14700  0.65700  Biso   1.000  O
  O20      1.0000 0.38100  0.31600  0.08700  Biso   1.000  O
  O21      1.0000 0.30500  0.19900  0.01200  Biso   1.000  O
  K3       1.0000 0.26220  0.40160  0.05310  Biso   1.000  K
  K4       1.0000 0.08880  0.03700  0.39980  Biso   1.000  K
  O22      1.0000 0.00500  0.11100  0.65900  Biso   1.000  O
  Ce3      1.0000 0.71540  0.40090  0.47900  Biso   1.000  Ce
  C17      1.0000 0.62200  0.55900  0.41800  Biso   1.000  C
  C18      1.0000 0.56500  0.63000  0.38400  Biso   1.000  C
  C19      1.0000 0.80800  0.54800  0.45700  Biso   1.000  C
  C20      1.0000 0.61400  0.26600  0.51100  Biso   1.000  C
  C21      1.0000 0.55900  0.18600  0.53200  Biso   1.000  C
  C22      1.0000 0.72800  0.34100  0.99800  Biso   1.000  C
  C23      1.0000 0.86400  0.27100  0.55200  Biso   1.000  C
  C24      1.0000 0.91600  0.34700  0.51400  Biso   1.000  C
  O23      1.0000 0.65200  0.53200  0.58600  Biso   1.000  O
  O24      1.0000 0.64000  0.52300  0.28000  Biso   1.000  O
  O25      1.0000 0.79200  0.50700  0.28700  Biso   1.000  O
  O26      1.0000 0.79700  0.52300  0.61500  Biso   1.000  O
  O27      1.0000 0.59400  0.35000  0.47800  Biso   1.000  O
  O28      1.0000 0.66900  0.23800  0.53800  Biso   1.000  O
  O29      1.0000 0.72300  0.39700  0.83900  Biso   1.000  O
  O30      1.0000 0.70200  0.35300  0.15700  Biso   1.000  O
  O31      1.0000 0.88100  0.18400  0.58700  Biso   1.000  O
  O32      1.0000 0.80500  0.30100  0.51200  Biso   1.000  O
  K5       1.0000 0.76220  0.09840  0.55310  Biso   1.000  K
  K6       1.0000 0.58880  0.46300  0.89980  Biso   1.000  K
  O33      1.0000 0.50500  0.38900  0.15900  Biso   1.000  O
  Ce4      1.0000 0.78460  0.90090  0.02100  Biso   1.000  Ce
  C25      1.0000 0.87800  0.05900  0.08200  Biso   1.000  C
  C26      1.0000 0.93500  0.13000  0.11600  Biso   1.000  C
  C27      1.0000 0.69200  0.04800  0.04300  Biso   1.000  C
  C28      1.0000 0.88600  0.76600  0.98900  Biso   1.000  C
  C29      1.0000 0.94100  0.68600  0.96800  Biso   1.000  C
  C30      1.0000 0.77200  0.84100  0.50200  Biso   1.000  C
  C31      1.0000 0.63600  0.77100  0.94800  Biso   1.000  C
  C32      1.0000 0.58400  0.84700  0.98600  Biso   1.000  C
  O34      1.0000 0.84800  0.03200  0.91400  Biso   1.000  O
  O35      1.0000 0.86000  0.02300  0.22000  Biso   1.000  O
  O36      1.0000 0.70800  0.00700  0.21300  Biso   1.000  O
  O37      1.0000 0.70300  0.02300  0.88500  Biso   1.000  O
  O38      1.0000 0.90600  0.85000  0.02200  Biso   1.000  O
  O39      1.0000 0.83100  0.73800  0.96200  Biso   1.000  O
  O40      1.0000 0.77700  0.89700  0.66100  Biso   1.000  O
  O41      1.0000 0.79800  0.85300  0.34300  Biso   1.000  O
  O42      1.0000 0.61900  0.68400  0.91300  Biso   1.000  O
  O43      1.0000 0.69500  0.80100  0.98800  Biso   1.000  O
  K7       1.0000 0.73780  0.59840  0.94690  Biso   1.000  K
  K8       1.0000 0.91120  0.96300  0.60020  Biso   1.000  K
  O44      1.0000 0.99500  0.88900  0.34100  Biso   1.000  O
