data_image0
_cell_length_a       10.7643
_cell_length_b       11.1903
_cell_length_c       11.8805
_cell_angle_alpha    101.006
_cell_angle_beta     110.549
_cell_angle_gamma    99.779

_symmetry_space_group_name_H-M    "P 1"
_symmetry_int_tables_number       1

loop_
  _symmetry_equiv_pos_as_xyz
  'x, y, z'

loop_
  _atom_site_label
  _atom_site_occupancy
  _atom_site_fract_x
  _atom_site_fract_y
  _atom_site_fract_z
  _atom_site_thermal_displace_type
  _atom_site_B_iso_or_equiv
  _atom_site_type_symbol
  Cu1      1.0000 0.64404  0.51070  0.01199  Biso   1.000  Cu
  O1       1.0000 0.50120  0.40030  0.04210  Biso   1.000  O
  O2       1.0000 0.26260  0.33860  0.81000  Biso   1.000  O
  O3       1.0000 0.77720  0.41290  0.05860  Biso   1.000  O
  O4       1.0000 0.24560  0.42330  0.07260  Biso   1.000  O
  Cu2      1.0000 0.56218  0.38577  0.21048  Biso   1.000  Cu
  O5       1.0000 0.37630  0.33260  0.20470  Biso   1.000  O
  O6       1.0000 0.39660  0.40840  0.71640  Biso   1.000  O
  O7       1.0000 0.72950  0.34330  0.20780  Biso   1.000  O
  C1       1.0000 0.26630  0.35840  0.14890  Biso   1.000  C
  C2       1.0000 0.14590  0.30510  0.17720  Biso   1.000  C
  C3       1.0000 0.02970  0.34960  0.14230  Biso   1.000  C
  C4       1.0000 0.15170  0.20980  0.23630  Biso   1.000  C
  C5       1.0000 0.91910  0.30260  0.17070  Biso   1.000  C
  H1       1.0000 0.02520  0.41130  0.09960  Biso   1.000  H
  C6       1.0000 0.03940  0.16110  0.25980  Biso   1.000  C
  H2       1.0000 0.22940  0.17930  0.25970  Biso   1.000  H
  C7       1.0000 0.92470  0.20600  0.23080  Biso   1.000  C
  C8       1.0000 0.79830  0.35710  0.14300  Biso   1.000  C
  O8       1.0000 0.03770  0.05550  0.30850  Biso   1.000  O
  H3       1.0000 0.85200  0.17320  0.25050  Biso   1.000  H
  C9       1.0000 0.12580  0.07100  0.43010  Biso   1.000  C
  C10      1.0000 0.18370  0.18670  0.51680  Biso   1.000  C
  C11      1.0000 0.14940  0.96140  0.46200  Biso   1.000  C
  C12      1.0000 0.26750  0.19410  0.63950  Biso   1.000  C
  H4       1.0000 0.16730  0.25940  0.49390  Biso   1.000  H
  H5       1.0000 0.10900  0.88360  0.40280  Biso   1.000  H
  C13      1.0000 0.23340  0.96950  0.58240  Biso   1.000  C
  C14      1.0000 0.29520  0.08510  0.67320  Biso   1.000  C
  C15      1.0000 0.31620  0.32370  0.73190  Biso   1.000  C
  H6       1.0000 0.24940  0.89620  0.60390  Biso   1.000  H
  C16      1.0000 0.39010  0.08930  0.80180  Biso   1.000  C
  O9       1.0000 0.38370  0.98480  0.82970  Biso   1.000  O
  O10      1.0000 0.47320  0.19030  0.87470  Biso   1.000  O
  H7       1.0000 0.47710  0.32740  0.99190  Biso   1.000  H
  H8       1.0000 0.43110  0.42980  0.02690  Biso   1.000  H
  H9       1.0000 0.70640  0.44010  0.05040  Biso   1.000  H
  Cu3      1.0000 0.35596  0.48930  0.98801  Biso   1.000  Cu
  O11      1.0000 0.49880  0.59970  0.95790  Biso   1.000  O
  O12      1.0000 0.73740  0.66140  0.19000  Biso   1.000  O
  O13      1.0000 0.22280  0.58710  0.94140  Biso   1.000  O
  O14      1.0000 0.75440  0.57670  0.92740  Biso   1.000  O
  Cu4      1.0000 0.43782  0.61423  0.78952  Biso   1.000  Cu
  O15      1.0000 0.62370  0.66740  0.79530  Biso   1.000  O
  O16      1.0000 0.60340  0.59160  0.28360  Biso   1.000  O
  O17      1.0000 0.27050  0.65670  0.79220  Biso   1.000  O
  C17      1.0000 0.73370  0.64160  0.85110  Biso   1.000  C
  C18      1.0000 0.85410  0.69490  0.82280  Biso   1.000  C
  C19      1.0000 0.97030  0.65040  0.85770  Biso   1.000  C
  C20      1.0000 0.84830  0.79020  0.76370  Biso   1.000  C
  C21      1.0000 0.08090  0.69740  0.82930  Biso   1.000  C
  H10      1.0000 0.97480  0.58870  0.90040  Biso   1.000  H
  C22      1.0000 0.96060  0.83890  0.74020  Biso   1.000  C
  H11      1.0000 0.77060  0.82070  0.74030  Biso   1.000  H
  C23      1.0000 0.07530  0.79400  0.76920  Biso   1.000  C
  C24      1.0000 0.20170  0.64290  0.85700  Biso   1.000  C
  O18      1.0000 0.96230  0.94450  0.69150  Biso   1.000  O
  H12      1.0000 0.14800  0.82680  0.74950  Biso   1.000  H
  C25      1.0000 0.87420  0.92900  0.56990  Biso   1.000  C
  C26      1.0000 0.81630  0.81330  0.48320  Biso   1.000  C
  C27      1.0000 0.85060  0.03860  0.53800  Biso   1.000  C
  C28      1.0000 0.73250  0.80590  0.36050  Biso   1.000  C
  H13      1.0000 0.83270  0.74060  0.50610  Biso   1.000  H
  H14      1.0000 0.89100  0.11640  0.59720  Biso   1.000  H
  C29      1.0000 0.76660  0.03050  0.41760  Biso   1.000  C
  C30      1.0000 0.70480  0.91490  0.32680  Biso   1.000  C
  C31      1.0000 0.68380  0.67630  0.26810  Biso   1.000  C
  H15      1.0000 0.75060  0.10380  0.39610  Biso   1.000  H
  C32      1.0000 0.60990  0.91070  0.19820  Biso   1.000  C
  O19      1.0000 0.61630  0.01520  0.17030  Biso   1.000  O
  O20      1.0000 0.52680  0.80970  0.12530  Biso   1.000  O
  H16      1.0000 0.52290  0.67260  0.00810  Biso   1.000  H
  H17      1.0000 0.56890  0.57020  0.97310  Biso   1.000  H
  H18      1.0000 0.29360  0.55990  0.94960  Biso   1.000  H
  Cu5      1.0000 0.50000  0.00000  0.00000  Biso   1.000  Cu
