data_image0
_cell_length_a       31.9204
_cell_length_b       8.3759
_cell_length_c       15.7894
_cell_angle_alpha    90
_cell_angle_beta     97.062
_cell_angle_gamma    90

_symmetry_space_group_name_H-M    "P 1"
_symmetry_int_tables_number       1

loop_
  _symmetry_equiv_pos_as_xyz
  'x, y, z'

loop_
  _atom_site_label
  _atom_site_occupancy
  _atom_site_fract_x
  _atom_site_fract_y
  _atom_site_fract_z
  _atom_site_thermal_displace_type
  _atom_site_B_iso_or_equiv
  _atom_site_type_symbol
  Zn1      1.0000 0.49334  0.75773  0.01305  Biso   1.000  Zn
  Zn2      1.0000 0.99086  0.76038  0.51140  Biso   1.000  Zn
  Zn3      1.0000 0.25491  0.52414  0.63152  Biso   1.000  Zn
  Zn4      1.0000 0.25168  0.50097  0.89113  Biso   1.000  Zn
  Zn5      1.0000 0.12716  0.70910  0.59003  Biso   1.000  Zn
  Zn6      1.0000 0.37176  0.27946  0.93842  Biso   1.000  Zn
  P1       1.0000 0.21759  0.83850  0.55380  Biso   1.000  P
  P2       1.0000 0.05745  0.98110  0.62731  Biso   1.000  P
  P3       1.0000 0.56253  0.97870  0.10912  Biso   1.000  P
  P4       1.0000 0.06318  0.54200  0.43905  Biso   1.000  P
  P5       1.0000 0.44334  0.44760  0.07850  Biso   1.000  P
  P6       1.0000 0.17671  0.47120  0.72547  Biso   1.000  P
  P7       1.0000 0.28112  0.21280  0.00601  Biso   1.000  P
  P8       1.0000 0.33093  0.52950  0.79394  Biso   1.000  P
  O1       1.0000 0.24242  0.84570  0.47830  Biso   1.000  O
  O2       1.0000 0.15100  0.32010  0.74500  Biso   1.000  O
  O3       1.0000 0.02784  0.66480  0.43680  Biso   1.000  O
  O4       1.0000 0.45933  0.62100  0.07890  Biso   1.000  O
  O5       1.0000 0.27014  0.30730  0.08350  Biso   1.000  O
  O6       1.0000 0.56010  0.06770  0.19610  Biso   1.000  O
  H1       1.0000 0.56690  0.00630  0.23580  Biso   1.000  H
  O7       1.0000 0.24295  0.75160  0.62830  Biso   1.000  O
  O8       1.0000 0.36505  0.65330  0.78490  Biso   1.000  O
  O9       1.0000 0.20941  0.01160  0.58540  Biso   1.000  O
  H2       1.0000 0.23060  0.06620  0.58340  Biso   1.000  H
  O10      1.0000 0.25735  0.27940  0.92300  Biso   1.000  O
  O11      1.0000 0.41378  0.42010  0.99620  Biso   1.000  O
  O12      1.0000 0.04533  0.37300  0.42720  Biso   1.000  O
  O13      1.0000 0.48190  0.33560  0.08100  Biso   1.000  O
  O14      1.0000 0.20316  0.41900  0.65580  Biso   1.000  O
  O15      1.0000 0.32884  0.22100  0.00670  Biso   1.000  O
  O16      1.0000 0.35156  0.37360  0.82900  Biso   1.000  O
  O17      1.0000 0.20403  0.52820  0.80580  Biso   1.000  O
  O18      1.0000 0.05787  0.04190  0.72010  Biso   1.000  O
  O19      1.0000 0.09411  0.55330  0.51940  Biso   1.000  O
  O20      1.0000 0.30527  0.48800  0.70880  Biso   1.000  O
  O21      1.0000 0.14609  0.60700  0.69800  Biso   1.000  O
  O22      1.0000 0.60845  0.92760  0.10400  Biso   1.000  O
  O23      1.0000 0.26845  0.03800  0.01730  Biso   1.000  O
  O24      1.0000 0.53419  0.83300  0.10580  Biso   1.000  O
  O25      1.0000 0.54932  0.09840  0.03950  Biso   1.000  O
  O26      1.0000 0.10011  0.90710  0.61590  Biso   1.000  O
  O27      1.0000 0.02106  0.86090  0.61120  Biso   1.000  O
  O28      1.0000 0.30212  0.59810  0.85700  Biso   1.000  O
  O29      1.0000 0.17452  0.75960  0.52770  Biso   1.000  O
  O30      1.0000 0.08694  0.57670  0.36040  Biso   1.000  O
  H3       1.0000 0.07470  0.53220  0.31810  Biso   1.000  H
  O31      1.0000 0.05000  0.12590  0.56820  Biso   1.000  O
  O32      1.0000 0.42136  0.42430  0.15790  Biso   1.000  O
  Zn7      1.0000 0.50666  0.25773  0.48695  Biso   1.000  Zn
  Zn8      1.0000 0.00914  0.26038  0.98860  Biso   1.000  Zn
  Zn9      1.0000 0.74509  0.02414  0.86848  Biso   1.000  Zn
  Zn10     1.0000 0.74832  0.00097  0.60887  Biso   1.000  Zn
  Zn11     1.0000 0.87284  0.20910  0.90997  Biso   1.000  Zn
  Zn12     1.0000 0.62824  0.77946  0.56158  Biso   1.000  Zn
  P9       1.0000 0.78241  0.33850  0.94620  Biso   1.000  P
  P10      1.0000 0.94255  0.48110  0.87269  Biso   1.000  P
  P11      1.0000 0.43747  0.47870  0.39088  Biso   1.000  P
  P12      1.0000 0.93682  0.04200  0.06095  Biso   1.000  P
  P13      1.0000 0.55666  0.94760  0.42150  Biso   1.000  P
  P14      1.0000 0.82329  0.97120  0.77453  Biso   1.000  P
  P15      1.0000 0.71888  0.71280  0.49399  Biso   1.000  P
  P16      1.0000 0.66907  0.02950  0.70606  Biso   1.000  P
  O33      1.0000 0.75758  0.34570  0.02170  Biso   1.000  O
  O34      1.0000 0.84900  0.82010  0.75500  Biso   1.000  O
  O35      1.0000 0.97216  0.16480  0.06320  Biso   1.000  O
  O36      1.0000 0.54067  0.12100  0.42110  Biso   1.000  O
  O37      1.0000 0.72986  0.80730  0.41650  Biso   1.000  O
  O38      1.0000 0.43990  0.56770  0.30390  Biso   1.000  O
  H4       1.0000 0.43310  0.50630  0.26420  Biso   1.000  H
  O39      1.0000 0.75705  0.25160  0.87170  Biso   1.000  O
  O40      1.0000 0.63495  0.15330  0.71510  Biso   1.000  O
  O41      1.0000 0.79059  0.51160  0.91460  Biso   1.000  O
  H5       1.0000 0.76940  0.56620  0.91660  Biso   1.000  H
  O42      1.0000 0.74265  0.77940  0.57700  Biso   1.000  O
  O43      1.0000 0.58622  0.92010  0.50380  Biso   1.000  O
  O44      1.0000 0.95467  0.87300  0.07280  Biso   1.000  O
  O45      1.0000 0.51810  0.83560  0.41900  Biso   1.000  O
  O46      1.0000 0.79684  0.91900  0.84420  Biso   1.000  O
  O47      1.0000 0.67116  0.72100  0.49330  Biso   1.000  O
  O48      1.0000 0.64844  0.87360  0.67100  Biso   1.000  O
  O49      1.0000 0.79597  0.02820  0.69420  Biso   1.000  O
  O50      1.0000 0.94213  0.54190  0.77990  Biso   1.000  O
  O51      1.0000 0.90589  0.05330  0.98060  Biso   1.000  O
  O52      1.0000 0.69473  0.98800  0.79120  Biso   1.000  O
  O53      1.0000 0.85391  0.10700  0.80200  Biso   1.000  O
  O54      1.0000 0.39155  0.42760  0.39600  Biso   1.000  O
  O55      1.0000 0.73155  0.53800  0.48270  Biso   1.000  O
  O56      1.0000 0.46581  0.33300  0.39420  Biso   1.000  O
  O57      1.0000 0.45068  0.59840  0.46050  Biso   1.000  O
  O58      1.0000 0.89989  0.40710  0.88410  Biso   1.000  O
  O59      1.0000 0.97894  0.36090  0.88880  Biso   1.000  O
  O60      1.0000 0.69788  0.09810  0.64300  Biso   1.000  O
  O61      1.0000 0.82548  0.25960  0.97230  Biso   1.000  O
  O62      1.0000 0.91306  0.07670  0.13960  Biso   1.000  O
  H6       1.0000 0.92530  0.03220  0.18190  Biso   1.000  H
  O63      1.0000 0.95000  0.62590  0.93180  Biso   1.000  O
  O64      1.0000 0.57864  0.92430  0.34210  Biso   1.000  O
  Zn13     1.0000 0.50666  0.24227  0.98695  Biso   1.000  Zn
  Zn14     1.0000 0.00914  0.23962  0.48860  Biso   1.000  Zn
  Zn15     1.0000 0.74509  0.47586  0.36848  Biso   1.000  Zn
  Zn16     1.0000 0.74832  0.49903  0.10887  Biso   1.000  Zn
  Zn17     1.0000 0.87284  0.29090  0.40997  Biso   1.000  Zn
  Zn18     1.0000 0.62824  0.72054  0.06158  Biso   1.000  Zn
  P17      1.0000 0.78241  0.16150  0.44620  Biso   1.000  P
  P18      1.0000 0.94255  0.01890  0.37269  Biso   1.000  P
  P19      1.0000 0.43747  0.02130  0.89088  Biso   1.000  P
  P20      1.0000 0.93682  0.45800  0.56095  Biso   1.000  P
  P21      1.0000 0.55666  0.55240  0.92150  Biso   1.000  P
  P22      1.0000 0.82329  0.52880  0.27453  Biso   1.000  P
  P23      1.0000 0.71888  0.78720  0.99399  Biso   1.000  P
  P24      1.0000 0.66907  0.47050  0.20606  Biso   1.000  P
  O65      1.0000 0.75758  0.15430  0.52170  Biso   1.000  O
  O66      1.0000 0.84900  0.67990  0.25500  Biso   1.000  O
  O67      1.0000 0.97216  0.33520  0.56320  Biso   1.000  O
  O68      1.0000 0.54067  0.37900  0.92110  Biso   1.000  O
  O69      1.0000 0.72986  0.69270  0.91650  Biso   1.000  O
  O70      1.0000 0.43990  0.93230  0.80390  Biso   1.000  O
  H7       1.0000 0.43310  0.99370  0.76420  Biso   1.000  H
  O71      1.0000 0.75705  0.24840  0.37170  Biso   1.000  O
  O72      1.0000 0.63495  0.34670  0.21510  Biso   1.000  O
  O73      1.0000 0.79059  0.98840  0.41460  Biso   1.000  O
  H8       1.0000 0.76940  0.93380  0.41660  Biso   1.000  H
  O74      1.0000 0.74265  0.72060  0.07700  Biso   1.000  O
  O75      1.0000 0.58622  0.57990  0.00380  Biso   1.000  O
  O76      1.0000 0.95467  0.62700  0.57280  Biso   1.000  O
  O77      1.0000 0.51810  0.66440  0.91900  Biso   1.000  O
  O78      1.0000 0.79684  0.58100  0.34420  Biso   1.000  O
  O79      1.0000 0.67116  0.77900  0.99330  Biso   1.000  O
  O80      1.0000 0.64844  0.62640  0.17100  Biso   1.000  O
  O81      1.0000 0.79597  0.47180  0.19420  Biso   1.000  O
  O82      1.0000 0.94213  0.95810  0.27990  Biso   1.000  O
  O83      1.0000 0.90589  0.44670  0.48060  Biso   1.000  O
  O84      1.0000 0.69473  0.51200  0.29120  Biso   1.000  O
  O85      1.0000 0.85391  0.39300  0.30200  Biso   1.000  O
  O86      1.0000 0.39155  0.07240  0.89600  Biso   1.000  O
  O87      1.0000 0.73155  0.96200  0.98270  Biso   1.000  O
  O88      1.0000 0.46581  0.16700  0.89420  Biso   1.000  O
  O89      1.0000 0.45068  0.90160  0.96050  Biso   1.000  O
  O90      1.0000 0.89989  0.09290  0.38410  Biso   1.000  O
  O91      1.0000 0.97894  0.13910  0.38880  Biso   1.000  O
  O92      1.0000 0.69788  0.40190  0.14300  Biso   1.000  O
  O93      1.0000 0.82548  0.24040  0.47230  Biso   1.000  O
  O94      1.0000 0.91306  0.42330  0.63960  Biso   1.000  O
  H9       1.0000 0.92530  0.46780  0.68190  Biso   1.000  H
  O95      1.0000 0.95000  0.87410  0.43180  Biso   1.000  O
  O96      1.0000 0.57864  0.57570  0.84210  Biso   1.000  O
  Zn19     1.0000 0.49334  0.74227  0.51305  Biso   1.000  Zn
  Zn20     1.0000 0.99086  0.73962  0.01140  Biso   1.000  Zn
  Zn21     1.0000 0.25491  0.97586  0.13152  Biso   1.000  Zn
  Zn22     1.0000 0.25168  0.99903  0.39113  Biso   1.000  Zn
  Zn23     1.0000 0.12716  0.79090  0.09003  Biso   1.000  Zn
  Zn24     1.0000 0.37176  0.22054  0.43842  Biso   1.000  Zn
  P25      1.0000 0.21759  0.66150  0.05380  Biso   1.000  P
  P26      1.0000 0.05745  0.51890  0.12731  Biso   1.000  P
  P27      1.0000 0.56253  0.52130  0.60912  Biso   1.000  P
  P28      1.0000 0.06318  0.95800  0.93905  Biso   1.000  P
  P29      1.0000 0.44334  0.05240  0.57850  Biso   1.000  P
  P30      1.0000 0.17671  0.02880  0.22547  Biso   1.000  P
  P31      1.0000 0.28112  0.28720  0.50601  Biso   1.000  P
  P32      1.0000 0.33093  0.97050  0.29394  Biso   1.000  P
  O97      1.0000 0.24242  0.65430  0.97830  Biso   1.000  O
  O98      1.0000 0.15100  0.17990  0.24500  Biso   1.000  O
  O99      1.0000 0.02784  0.83520  0.93680  Biso   1.000  O
  O100     1.0000 0.45933  0.87900  0.57890  Biso   1.000  O
  O101     1.0000 0.27014  0.19270  0.58350  Biso   1.000  O
  O102     1.0000 0.56010  0.43230  0.69610  Biso   1.000  O
  H10      1.0000 0.56690  0.49370  0.73580  Biso   1.000  H
  O103     1.0000 0.24295  0.74840  0.12830  Biso   1.000  O
  O104     1.0000 0.36505  0.84670  0.28490  Biso   1.000  O
  O105     1.0000 0.20941  0.48840  0.08540  Biso   1.000  O
  H11      1.0000 0.23060  0.43380  0.08340  Biso   1.000  H
  O106     1.0000 0.25735  0.22060  0.42300  Biso   1.000  O
  O107     1.0000 0.41378  0.07990  0.49620  Biso   1.000  O
  O108     1.0000 0.04533  0.12700  0.92720  Biso   1.000  O
  O109     1.0000 0.48190  0.16440  0.58100  Biso   1.000  O
  O110     1.0000 0.20316  0.08100  0.15580  Biso   1.000  O
  O111     1.0000 0.32884  0.27900  0.50670  Biso   1.000  O
  O112     1.0000 0.35156  0.12640  0.32900  Biso   1.000  O
  O113     1.0000 0.20403  0.97180  0.30580  Biso   1.000  O
  O114     1.0000 0.05787  0.45810  0.22010  Biso   1.000  O
  O115     1.0000 0.09411  0.94670  0.01940  Biso   1.000  O
  O116     1.0000 0.30527  0.01200  0.20880  Biso   1.000  O
  O117     1.0000 0.14609  0.89300  0.19800  Biso   1.000  O
  O118     1.0000 0.60845  0.57240  0.60400  Biso   1.000  O
  O119     1.0000 0.26845  0.46200  0.51730  Biso   1.000  O
  O120     1.0000 0.53419  0.66700  0.60580  Biso   1.000  O
  O121     1.0000 0.54932  0.40160  0.53950  Biso   1.000  O
  O122     1.0000 0.10011  0.59290  0.11590  Biso   1.000  O
  O123     1.0000 0.02106  0.63910  0.11120  Biso   1.000  O
  O124     1.0000 0.30212  0.90190  0.35700  Biso   1.000  O
  O125     1.0000 0.17452  0.74040  0.02770  Biso   1.000  O
  O126     1.0000 0.08694  0.92330  0.86040  Biso   1.000  O
  H12      1.0000 0.07470  0.96780  0.81810  Biso   1.000  H
  O127     1.0000 0.05000  0.37410  0.06820  Biso   1.000  O
  O128     1.0000 0.42136  0.07570  0.65790  Biso   1.000  O
