data_image0
_cell_length_a       10.415
_cell_length_b       10.226
_cell_length_c       8.7198
_cell_angle_alpha    90
_cell_angle_beta     109.45
_cell_angle_gamma    90

_symmetry_space_group_name_H-M    "P 1"
_symmetry_int_tables_number       1

loop_
  _symmetry_equiv_pos_as_xyz
  'x, y, z'

loop_
  _atom_site_label
  _atom_site_occupancy
  _atom_site_fract_x
  _atom_site_fract_y
  _atom_site_fract_z
  _atom_site_thermal_displace_type
  _atom_site_B_iso_or_equiv
  _atom_site_type_symbol
  O1       1.0000 0.70210  0.08170  0.27440  Biso   1.000  O
  O2       1.0000 0.57550  0.09780  0.49330  Biso   1.000  O
  C1       1.0000 0.77100  0.12990  0.41020  Biso   1.000  C
  C2       1.0000 0.69530  0.14300  0.53570  Biso   1.000  C
  O3       1.0000 0.89220  0.16600  0.45450  Biso   1.000  O
  O4       1.0000 0.75450  0.19400  0.66980  Biso   1.000  O
  O5       1.0000 0.11170  0.36730  0.56460  Biso   1.000  O
  O6       1.0000 0.87950  0.46140  0.59210  Biso   1.000  O
  C3       1.0000 0.06790  0.47290  0.49230  Biso   1.000  C
  O7       1.0000 0.29790  0.08170  0.22560  Biso   1.000  O
  O8       1.0000 0.42450  0.09780  0.00670  Biso   1.000  O
  C4       1.0000 0.22900  0.12990  0.08980  Biso   1.000  C
  C5       1.0000 0.30470  0.14300  0.96430  Biso   1.000  C
  O9       1.0000 0.10780  0.16600  0.04550  Biso   1.000  O
  O10      1.0000 0.24550  0.19400  0.83020  Biso   1.000  O
  O11      1.0000 0.88830  0.36730  0.93540  Biso   1.000  O
  O12      1.0000 0.12050  0.46140  0.90790  Biso   1.000  O
  C6       1.0000 0.93210  0.47290  0.00770  Biso   1.000  C
  O13      1.0000 0.29790  0.91830  0.72560  Biso   1.000  O
  O14      1.0000 0.42450  0.90220  0.50670  Biso   1.000  O
  C7       1.0000 0.22900  0.87010  0.58980  Biso   1.000  C
  C8       1.0000 0.30470  0.85700  0.46430  Biso   1.000  C
  O15      1.0000 0.10780  0.83400  0.54550  Biso   1.000  O
  O16      1.0000 0.24550  0.80600  0.33020  Biso   1.000  O
  O17      1.0000 0.88830  0.63270  0.43540  Biso   1.000  O
  O18      1.0000 0.12050  0.53860  0.40790  Biso   1.000  O
  C9       1.0000 0.93210  0.52710  0.50770  Biso   1.000  C
  O19      1.0000 0.70210  0.91830  0.77440  Biso   1.000  O
  O20      1.0000 0.57550  0.90220  0.99330  Biso   1.000  O
  C10      1.0000 0.77100  0.87010  0.91020  Biso   1.000  C
  C11      1.0000 0.69530  0.85700  0.03570  Biso   1.000  C
  O21      1.0000 0.89220  0.83400  0.95450  Biso   1.000  O
  O22      1.0000 0.75450  0.80600  0.16980  Biso   1.000  O
  O23      1.0000 0.11170  0.63270  0.06460  Biso   1.000  O
  O24      1.0000 0.87950  0.53860  0.09210  Biso   1.000  O
  C12      1.0000 0.06790  0.52710  0.99230  Biso   1.000  C
  La1      1.0000 0.50000  0.93196  0.25000  Biso   1.000  La
  La2      1.0000 0.50000  0.06804  0.75000  Biso   1.000  La
  La3      1.0000 0.00000  0.26379  0.75000  Biso   1.000  La
  La4      1.0000 0.00000  0.73621  0.25000  Biso   1.000  La
