data_image0
_cell_length_a       14.908
_cell_length_b       15.345
_cell_length_c       27.753
_cell_angle_alpha    90
_cell_angle_beta     90.424
_cell_angle_gamma    90

_symmetry_space_group_name_H-M    "P 1"
_symmetry_int_tables_number       1

loop_
  _symmetry_equiv_pos_as_xyz
  'x, y, z'

loop_
  _atom_site_label
  _atom_site_occupancy
  _atom_site_fract_x
  _atom_site_fract_y
  _atom_site_fract_z
  _atom_site_thermal_displace_type
  _atom_site_B_iso_or_equiv
  _atom_site_type_symbol
  C1       1.0000 0.16360  0.04770  0.39804  Biso   1.000  C
  C2       1.0000 0.13780  0.00210  0.35530  Biso   1.000  C
  H1       1.0000 0.09550  0.02260  0.33220  Biso   1.000  H
  C3       1.0000 0.18100  0.92750  0.35255  Biso   1.000  C
  H2       1.0000 0.17630  0.88550  0.32750  Biso   1.000  H
  C4       1.0000 0.23620  0.92240  0.39435  Biso   1.000  C
  C5       1.0000 0.28850  0.85200  0.40716  Biso   1.000  C
  C6       1.0000 0.33750  0.84630  0.44906  Biso   1.000  C
  C7       1.0000 0.38540  0.77070  0.46490  Biso   1.000  C
  H3       1.0000 0.39210  0.71790  0.44740  Biso   1.000  H
  C8       1.0000 0.41950  0.78780  0.50911  Biso   1.000  C
  H4       1.0000 0.45330  0.74840  0.52840  Biso   1.000  H
  C9       1.0000 0.39650  0.87420  0.52193  Biso   1.000  C
  C10      1.0000 0.42240  0.91430  0.56214  Biso   1.000  C
  C11      1.0000 0.40590  0.00530  0.57172  Biso   1.000  C
  C12      1.0000 0.43930  0.05170  0.61251  Biso   1.000  C
  H5       1.0000 0.47390  0.02810  0.63820  Biso   1.000  H
  C13      1.0000 0.41290  0.13490  0.60798  Biso   1.000  C
  H6       1.0000 0.42670  0.18140  0.62940  Biso   1.000  H
  C14      1.0000 0.35900  0.14050  0.56404  Biso   1.000  C
  C15      1.0000 0.31530  0.21370  0.54897  Biso   1.000  C
  C16      1.0000 0.25680  0.21570  0.51030  Biso   1.000  C
  C17      1.0000 0.20510  0.29000  0.49592  Biso   1.000  C
  H7       1.0000 0.20710  0.34640  0.51010  Biso   1.000  H
  C18      1.0000 0.15370  0.26530  0.45900  Biso   1.000  C
  H8       1.0000 0.11150  0.30120  0.44250  Biso   1.000  H
  C19      1.0000 0.17220  0.17550  0.44803  Biso   1.000  C
  C20      1.0000 0.13650  0.13050  0.40997  Biso   1.000  C
  C21      1.0000 0.31190  0.62560  0.31697  Biso   1.000  C
  C22      1.0000 0.23750  0.63850  0.34560  Biso   1.000  C
  H9       1.0000 0.19090  0.59630  0.34590  Biso   1.000  H
  C23      1.0000 0.23100  0.71210  0.37330  Biso   1.000  C
  H10      1.0000 0.18000  0.71940  0.39330  Biso   1.000  H
  C24      1.0000 0.29540  0.77490  0.37316  Biso   1.000  C
  C25      1.0000 0.36610  0.76320  0.34386  Biso   1.000  C
  H11      1.0000 0.41060  0.80740  0.34220  Biso   1.000  H
  C26      1.0000 0.37580  0.69000  0.31645  Biso   1.000  C
  H12      1.0000 0.42730  0.68360  0.29680  Biso   1.000  H
  C27      1.0000 0.32470  0.54250  0.28895  Biso   1.000  C
  C28      1.0000 0.57470  0.76660  0.66403  Biso   1.000  C
  C29      1.0000 0.48290  0.76410  0.66471  Biso   1.000  C
  H13      1.0000 0.45310  0.72870  0.68760  Biso   1.000  H
  C30      1.0000 0.43350  0.81270  0.63239  Biso   1.000  C
  H14      1.0000 0.36980  0.81030  0.63340  Biso   1.000  H
  C31      1.0000 0.47410  0.86440  0.59893  Biso   1.000  C
  C32      1.0000 0.56700  0.86830  0.60030  Biso   1.000  C
  H15      1.0000 0.59680  0.90630  0.57870  Biso   1.000  H
  C33      1.0000 0.61730  0.81950  0.63169  Biso   1.000  C
  H16      1.0000 0.68090  0.82230  0.63110  Biso   1.000  H
  C34      1.0000 0.63010  0.71160  0.69744  Biso   1.000  C
  C35      1.0000 0.35580  0.44460  0.63617  Biso   1.000  C
  C36      1.0000 0.42390  0.41200  0.60880  Biso   1.000  C
  H17      1.0000 0.48110  0.43940  0.60920  Biso   1.000  H
  C37      1.0000 0.40910  0.33700  0.57972  Biso   1.000  C
  H18      1.0000 0.45690  0.31550  0.56060  Biso   1.000  H
  C38      1.0000 0.32910  0.29520  0.57846  Biso   1.000  C
  C39      1.0000 0.26090  0.33040  0.60610  Biso   1.000  C
  H19      1.0000 0.20370  0.30310  0.60610  Biso   1.000  H
  C40      1.0000 0.27460  0.40410  0.63355  Biso   1.000  C
  H20      1.0000 0.22580  0.42740  0.65120  Biso   1.000  H
  C41      1.0000 0.36930  0.52070  0.66825  Biso   1.000  C
  C42      1.0000 0.92500  0.24660  0.32631  Biso   1.000  C
  C43      1.0000 0.01410  0.26910  0.31938  Biso   1.000  C
  H21      1.0000 0.02850  0.31120  0.29550  Biso   1.000  H
  C44      1.0000 0.08250  0.23210  0.34613  Biso   1.000  C
  H22      1.0000 0.14290  0.24880  0.34030  Biso   1.000  H
  C45      1.0000 0.06440  0.17130  0.38104  Biso   1.000  C
  C46      1.0000 0.97610  0.14750  0.38793  Biso   1.000  C
  H23      1.0000 0.96260  0.10460  0.41150  Biso   1.000  H
  C47      1.0000 0.90610  0.18460  0.36128  Biso   1.000  C
  H24      1.0000 0.84590  0.16760  0.36700  Biso   1.000  H
  C48      1.0000 0.85080  0.28920  0.29936  Biso   1.000  C
  Fe1      1.0000 0.73142  0.62197  0.75524  Biso   1.000  Fe
  Mn1      1.0000 0.27614  0.02189  0.48830  Biso   1.000  Mn
  N1       1.0000 0.22660  0.99690  0.42180  Biso   1.000  N
  N2       1.0000 0.34510  0.91000  0.48522  Biso   1.000  N
  N3       1.0000 0.35560  0.06010  0.54241  Biso   1.000  N
  N4       1.0000 0.23650  0.14520  0.48083  Biso   1.000  N
  O1       1.0000 0.39950  0.53305  0.26897  Biso   1.000  O
  O2       1.0000 0.25850  0.48960  0.28633  Biso   1.000  O
  O3       1.0000 0.59384  0.66434  0.73004  Biso   1.000  O
  O4       1.0000 0.71360  0.71240  0.69435  Biso   1.000  O
  O5       1.0000 0.44750  0.54480  0.67727  Biso   1.000  O
  O6       1.0000 0.29880  0.55600  0.68396  Biso   1.000  O
  O7       1.0000 0.86955  0.35550  0.27235  Biso   1.000  O
  O8       1.0000 0.77290  0.26190  0.30287  Biso   1.000  O
  C49      1.0000 0.83640  0.04770  0.10196  Biso   1.000  C
  C50      1.0000 0.86220  0.00210  0.14470  Biso   1.000  C
  H25      1.0000 0.90450  0.02260  0.16780  Biso   1.000  H
  C51      1.0000 0.81900  0.92750  0.14745  Biso   1.000  C
  H26      1.0000 0.82370  0.88550  0.17250  Biso   1.000  H
  C52      1.0000 0.76380  0.92240  0.10565  Biso   1.000  C
  C53      1.0000 0.71150  0.85200  0.09284  Biso   1.000  C
  C54      1.0000 0.66250  0.84630  0.05094  Biso   1.000  C
  C55      1.0000 0.61460  0.77070  0.03510  Biso   1.000  C
  H27      1.0000 0.60790  0.71790  0.05260  Biso   1.000  H
  C56      1.0000 0.58050  0.78780  0.99089  Biso   1.000  C
  H28      1.0000 0.54670  0.74840  0.97160  Biso   1.000  H
  C57      1.0000 0.60350  0.87420  0.97807  Biso   1.000  C
  C58      1.0000 0.57760  0.91430  0.93786  Biso   1.000  C
  C59      1.0000 0.59410  0.00530  0.92828  Biso   1.000  C
  C60      1.0000 0.56070  0.05170  0.88749  Biso   1.000  C
  H29      1.0000 0.52610  0.02810  0.86180  Biso   1.000  H
  C61      1.0000 0.58710  0.13490  0.89202  Biso   1.000  C
  H30      1.0000 0.57330  0.18140  0.87060  Biso   1.000  H
  C62      1.0000 0.64100  0.14050  0.93596  Biso   1.000  C
  C63      1.0000 0.68470  0.21370  0.95103  Biso   1.000  C
  C64      1.0000 0.74320  0.21570  0.98970  Biso   1.000  C
  C65      1.0000 0.79490  0.29000  0.00408  Biso   1.000  C
  H31      1.0000 0.79290  0.34640  0.98990  Biso   1.000  H
  C66      1.0000 0.84630  0.26530  0.04100  Biso   1.000  C
  H32      1.0000 0.88850  0.30120  0.05750  Biso   1.000  H
  C67      1.0000 0.82780  0.17550  0.05197  Biso   1.000  C
  C68      1.0000 0.86350  0.13050  0.09003  Biso   1.000  C
  C69      1.0000 0.68810  0.62560  0.18303  Biso   1.000  C
  C70      1.0000 0.76250  0.63850  0.15440  Biso   1.000  C
  H33      1.0000 0.80910  0.59630  0.15410  Biso   1.000  H
  C71      1.0000 0.76900  0.71210  0.12670  Biso   1.000  C
  H34      1.0000 0.82000  0.71940  0.10670  Biso   1.000  H
  C72      1.0000 0.70460  0.77490  0.12684  Biso   1.000  C
  C73      1.0000 0.63390  0.76320  0.15614  Biso   1.000  C
  H35      1.0000 0.58940  0.80740  0.15780  Biso   1.000  H
  C74      1.0000 0.62420  0.69000  0.18355  Biso   1.000  C
  H36      1.0000 0.57270  0.68360  0.20320  Biso   1.000  H
  C75      1.0000 0.67530  0.54250  0.21105  Biso   1.000  C
  C76      1.0000 0.42530  0.76660  0.83597  Biso   1.000  C
  C77      1.0000 0.51710  0.76410  0.83529  Biso   1.000  C
  H37      1.0000 0.54690  0.72870  0.81240  Biso   1.000  H
  C78      1.0000 0.56650  0.81270  0.86761  Biso   1.000  C
  H38      1.0000 0.63020  0.81030  0.86660  Biso   1.000  H
  C79      1.0000 0.52590  0.86440  0.90107  Biso   1.000  C
  C80      1.0000 0.43300  0.86830  0.89970  Biso   1.000  C
  H39      1.0000 0.40320  0.90630  0.92130  Biso   1.000  H
  C81      1.0000 0.38270  0.81950  0.86831  Biso   1.000  C
  H40      1.0000 0.31910  0.82230  0.86890  Biso   1.000  H
  C82      1.0000 0.36990  0.71160  0.80256  Biso   1.000  C
  C83      1.0000 0.64420  0.44460  0.86383  Biso   1.000  C
  C84      1.0000 0.57610  0.41200  0.89120  Biso   1.000  C
  H41      1.0000 0.51890  0.43940  0.89080  Biso   1.000  H
  C85      1.0000 0.59090  0.33700  0.92028  Biso   1.000  C
  H42      1.0000 0.54310  0.31550  0.93940  Biso   1.000  H
  C86      1.0000 0.67090  0.29520  0.92154  Biso   1.000  C
  C87      1.0000 0.73910  0.33040  0.89390  Biso   1.000  C
  H43      1.0000 0.79630  0.30310  0.89390  Biso   1.000  H
  C88      1.0000 0.72540  0.40410  0.86645  Biso   1.000  C
  H44      1.0000 0.77420  0.42740  0.84880  Biso   1.000  H
  C89      1.0000 0.63070  0.52070  0.83175  Biso   1.000  C
  C90      1.0000 0.07500  0.24660  0.17369  Biso   1.000  C
  C91      1.0000 0.98590  0.26910  0.18062  Biso   1.000  C
  H45      1.0000 0.97150  0.31120  0.20450  Biso   1.000  H
  C92      1.0000 0.91750  0.23210  0.15387  Biso   1.000  C
  H46      1.0000 0.85710  0.24880  0.15970  Biso   1.000  H
  C93      1.0000 0.93560  0.17130  0.11896  Biso   1.000  C
  C94      1.0000 0.02390  0.14750  0.11207  Biso   1.000  C
  H47      1.0000 0.03740  0.10460  0.08850  Biso   1.000  H
  C95      1.0000 0.09390  0.18460  0.13872  Biso   1.000  C
  H48      1.0000 0.15410  0.16760  0.13300  Biso   1.000  H
  C96      1.0000 0.14920  0.28920  0.20064  Biso   1.000  C
  Fe2      1.0000 0.26858  0.62197  0.74476  Biso   1.000  Fe
  Mn2      1.0000 0.72386  0.02189  0.01170  Biso   1.000  Mn
  N5       1.0000 0.77340  0.99690  0.07820  Biso   1.000  N
  N6       1.0000 0.65490  0.91000  0.01478  Biso   1.000  N
  N7       1.0000 0.64440  0.06010  0.95759  Biso   1.000  N
  N8       1.0000 0.76350  0.14520  0.01917  Biso   1.000  N
  O9       1.0000 0.60050  0.53305  0.23103  Biso   1.000  O
  O10      1.0000 0.74150  0.48960  0.21367  Biso   1.000  O
  O11      1.0000 0.40616  0.66434  0.76996  Biso   1.000  O
  O12      1.0000 0.28640  0.71240  0.80565  Biso   1.000  O
  O13      1.0000 0.55250  0.54480  0.82273  Biso   1.000  O
  O14      1.0000 0.70120  0.55600  0.81604  Biso   1.000  O
  O15      1.0000 0.13045  0.35550  0.22765  Biso   1.000  O
  O16      1.0000 0.22710  0.26190  0.19713  Biso   1.000  O
  C97      1.0000 0.83640  0.95230  0.60196  Biso   1.000  C
  C98      1.0000 0.86220  0.99790  0.64470  Biso   1.000  C
  H49      1.0000 0.90450  0.97740  0.66780  Biso   1.000  H
  C99      1.0000 0.81900  0.07250  0.64745  Biso   1.000  C
  H50      1.0000 0.82370  0.11450  0.67250  Biso   1.000  H
  C100     1.0000 0.76380  0.07760  0.60565  Biso   1.000  C
  C101     1.0000 0.71150  0.14800  0.59284  Biso   1.000  C
  C102     1.0000 0.66250  0.15370  0.55094  Biso   1.000  C
  C103     1.0000 0.61460  0.22930  0.53510  Biso   1.000  C
  H51      1.0000 0.60790  0.28210  0.55260  Biso   1.000  H
  C104     1.0000 0.58050  0.21220  0.49089  Biso   1.000  C
  H52      1.0000 0.54670  0.25160  0.47160  Biso   1.000  H
  C105     1.0000 0.60350  0.12580  0.47807  Biso   1.000  C
  C106     1.0000 0.57760  0.08570  0.43786  Biso   1.000  C
  C107     1.0000 0.59410  0.99470  0.42828  Biso   1.000  C
  C108     1.0000 0.56070  0.94830  0.38749  Biso   1.000  C
  H53      1.0000 0.52610  0.97190  0.36180  Biso   1.000  H
  C109     1.0000 0.58710  0.86510  0.39202  Biso   1.000  C
  H54      1.0000 0.57330  0.81860  0.37060  Biso   1.000  H
  C110     1.0000 0.64100  0.85950  0.43596  Biso   1.000  C
  C111     1.0000 0.68470  0.78630  0.45103  Biso   1.000  C
  C112     1.0000 0.74320  0.78430  0.48970  Biso   1.000  C
  C113     1.0000 0.79490  0.71000  0.50408  Biso   1.000  C
  H55      1.0000 0.79290  0.65360  0.48990  Biso   1.000  H
  C114     1.0000 0.84630  0.73470  0.54100  Biso   1.000  C
  H56      1.0000 0.88850  0.69880  0.55750  Biso   1.000  H
  C115     1.0000 0.82780  0.82450  0.55197  Biso   1.000  C
  C116     1.0000 0.86350  0.86950  0.59003  Biso   1.000  C
  C117     1.0000 0.68810  0.37440  0.68303  Biso   1.000  C
  C118     1.0000 0.76250  0.36150  0.65440  Biso   1.000  C
  H57      1.0000 0.80910  0.40370  0.65410  Biso   1.000  H
  C119     1.0000 0.76900  0.28790  0.62670  Biso   1.000  C
  H58      1.0000 0.82000  0.28060  0.60670  Biso   1.000  H
  C120     1.0000 0.70460  0.22510  0.62684  Biso   1.000  C
  C121     1.0000 0.63390  0.23680  0.65614  Biso   1.000  C
  H59      1.0000 0.58940  0.19260  0.65780  Biso   1.000  H
  C122     1.0000 0.62420  0.31000  0.68355  Biso   1.000  C
  H60      1.0000 0.57270  0.31640  0.70320  Biso   1.000  H
  C123     1.0000 0.67530  0.45750  0.71105  Biso   1.000  C
  C124     1.0000 0.42530  0.23340  0.33597  Biso   1.000  C
  C125     1.0000 0.51710  0.23590  0.33529  Biso   1.000  C
  H61      1.0000 0.54690  0.27130  0.31240  Biso   1.000  H
  C126     1.0000 0.56650  0.18730  0.36761  Biso   1.000  C
  H62      1.0000 0.63020  0.18970  0.36660  Biso   1.000  H
  C127     1.0000 0.52590  0.13560  0.40107  Biso   1.000  C
  C128     1.0000 0.43300  0.13170  0.39970  Biso   1.000  C
  H63      1.0000 0.40320  0.09370  0.42130  Biso   1.000  H
  C129     1.0000 0.38270  0.18050  0.36831  Biso   1.000  C
  H64      1.0000 0.31910  0.17770  0.36890  Biso   1.000  H
  C130     1.0000 0.36990  0.28840  0.30256  Biso   1.000  C
  C131     1.0000 0.64420  0.55540  0.36383  Biso   1.000  C
  C132     1.0000 0.57610  0.58800  0.39120  Biso   1.000  C
  H65      1.0000 0.51890  0.56060  0.39080  Biso   1.000  H
  C133     1.0000 0.59090  0.66300  0.42028  Biso   1.000  C
  H66      1.0000 0.54310  0.68450  0.43940  Biso   1.000  H
  C134     1.0000 0.67090  0.70480  0.42154  Biso   1.000  C
  C135     1.0000 0.73910  0.66960  0.39390  Biso   1.000  C
  H67      1.0000 0.79630  0.69690  0.39390  Biso   1.000  H
  C136     1.0000 0.72540  0.59590  0.36645  Biso   1.000  C
  H68      1.0000 0.77420  0.57260  0.34880  Biso   1.000  H
  C137     1.0000 0.63070  0.47930  0.33175  Biso   1.000  C
  C138     1.0000 0.07500  0.75340  0.67369  Biso   1.000  C
  C139     1.0000 0.98590  0.73090  0.68062  Biso   1.000  C
  H69      1.0000 0.97150  0.68880  0.70450  Biso   1.000  H
  C140     1.0000 0.91750  0.76790  0.65387  Biso   1.000  C
  H70      1.0000 0.85710  0.75120  0.65970  Biso   1.000  H
  C141     1.0000 0.93560  0.82870  0.61896  Biso   1.000  C
  C142     1.0000 0.02390  0.85250  0.61207  Biso   1.000  C
  H71      1.0000 0.03740  0.89540  0.58850  Biso   1.000  H
  C143     1.0000 0.09390  0.81540  0.63872  Biso   1.000  C
  H72      1.0000 0.15410  0.83240  0.63300  Biso   1.000  H
  C144     1.0000 0.14920  0.71080  0.70064  Biso   1.000  C
  Fe3      1.0000 0.26858  0.37803  0.24476  Biso   1.000  Fe
  Mn3      1.0000 0.72386  0.97811  0.51170  Biso   1.000  Mn
  N9       1.0000 0.77340  0.00310  0.57820  Biso   1.000  N
  N10      1.0000 0.65490  0.09000  0.51478  Biso   1.000  N
  N11      1.0000 0.64440  0.93990  0.45759  Biso   1.000  N
  N12      1.0000 0.76350  0.85480  0.51917  Biso   1.000  N
  O17      1.0000 0.60050  0.46695  0.73103  Biso   1.000  O
  O18      1.0000 0.74150  0.51040  0.71367  Biso   1.000  O
  O19      1.0000 0.40616  0.33566  0.26996  Biso   1.000  O
  O20      1.0000 0.28640  0.28760  0.30565  Biso   1.000  O
  O21      1.0000 0.55250  0.45520  0.32273  Biso   1.000  O
  O22      1.0000 0.70120  0.44400  0.31604  Biso   1.000  O
  O23      1.0000 0.13045  0.64450  0.72765  Biso   1.000  O
  O24      1.0000 0.22710  0.73810  0.69713  Biso   1.000  O
  C145     1.0000 0.16360  0.95230  0.89804  Biso   1.000  C
  C146     1.0000 0.13780  0.99790  0.85530  Biso   1.000  C
  H73      1.0000 0.09550  0.97740  0.83220  Biso   1.000  H
  C147     1.0000 0.18100  0.07250  0.85255  Biso   1.000  C
  H74      1.0000 0.17630  0.11450  0.82750  Biso   1.000  H
  C148     1.0000 0.23620  0.07760  0.89435  Biso   1.000  C
  C149     1.0000 0.28850  0.14800  0.90716  Biso   1.000  C
  C150     1.0000 0.33750  0.15370  0.94906  Biso   1.000  C
  C151     1.0000 0.38540  0.22930  0.96490  Biso   1.000  C
  H75      1.0000 0.39210  0.28210  0.94740  Biso   1.000  H
  C152     1.0000 0.41950  0.21220  0.00911  Biso   1.000  C
  H76      1.0000 0.45330  0.25160  0.02840  Biso   1.000  H
  C153     1.0000 0.39650  0.12580  0.02193  Biso   1.000  C
  C154     1.0000 0.42240  0.08570  0.06214  Biso   1.000  C
  C155     1.0000 0.40590  0.99470  0.07172  Biso   1.000  C
  C156     1.0000 0.43930  0.94830  0.11251  Biso   1.000  C
  H77      1.0000 0.47390  0.97190  0.13820  Biso   1.000  H
  C157     1.0000 0.41290  0.86510  0.10798  Biso   1.000  C
  H78      1.0000 0.42670  0.81860  0.12940  Biso   1.000  H
  C158     1.0000 0.35900  0.85950  0.06404  Biso   1.000  C
  C159     1.0000 0.31530  0.78630  0.04897  Biso   1.000  C
  C160     1.0000 0.25680  0.78430  0.01030  Biso   1.000  C
  C161     1.0000 0.20510  0.71000  0.99592  Biso   1.000  C
  H79      1.0000 0.20710  0.65360  0.01010  Biso   1.000  H
  C162     1.0000 0.15370  0.73470  0.95900  Biso   1.000  C
  H80      1.0000 0.11150  0.69880  0.94250  Biso   1.000  H
  C163     1.0000 0.17220  0.82450  0.94803  Biso   1.000  C
  C164     1.0000 0.13650  0.86950  0.90997  Biso   1.000  C
  C165     1.0000 0.31190  0.37440  0.81697  Biso   1.000  C
  C166     1.0000 0.23750  0.36150  0.84560  Biso   1.000  C
  H81      1.0000 0.19090  0.40370  0.84590  Biso   1.000  H
  C167     1.0000 0.23100  0.28790  0.87330  Biso   1.000  C
  H82      1.0000 0.18000  0.28060  0.89330  Biso   1.000  H
  C168     1.0000 0.29540  0.22510  0.87316  Biso   1.000  C
  C169     1.0000 0.36610  0.23680  0.84386  Biso   1.000  C
  H83      1.0000 0.41060  0.19260  0.84220  Biso   1.000  H
  C170     1.0000 0.37580  0.31000  0.81645  Biso   1.000  C
  H84      1.0000 0.42730  0.31640  0.79680  Biso   1.000  H
  C171     1.0000 0.32470  0.45750  0.78895  Biso   1.000  C
  C172     1.0000 0.57470  0.23340  0.16403  Biso   1.000  C
  C173     1.0000 0.48290  0.23590  0.16471  Biso   1.000  C
  H85      1.0000 0.45310  0.27130  0.18760  Biso   1.000  H
  C174     1.0000 0.43350  0.18730  0.13239  Biso   1.000  C
  H86      1.0000 0.36980  0.18970  0.13340  Biso   1.000  H
  C175     1.0000 0.47410  0.13560  0.09893  Biso   1.000  C
  C176     1.0000 0.56700  0.13170  0.10030  Biso   1.000  C
  H87      1.0000 0.59680  0.09370  0.07870  Biso   1.000  H
  C177     1.0000 0.61730  0.18050  0.13169  Biso   1.000  C
  H88      1.0000 0.68090  0.17770  0.13110  Biso   1.000  H
  C178     1.0000 0.63010  0.28840  0.19744  Biso   1.000  C
  C179     1.0000 0.35580  0.55540  0.13617  Biso   1.000  C
  C180     1.0000 0.42390  0.58800  0.10880  Biso   1.000  C
  H89      1.0000 0.48110  0.56060  0.10920  Biso   1.000  H
  C181     1.0000 0.40910  0.66300  0.07972  Biso   1.000  C
  H90      1.0000 0.45690  0.68450  0.06060  Biso   1.000  H
  C182     1.0000 0.32910  0.70480  0.07846  Biso   1.000  C
  C183     1.0000 0.26090  0.66960  0.10610  Biso   1.000  C
  H91      1.0000 0.20370  0.69690  0.10610  Biso   1.000  H
  C184     1.0000 0.27460  0.59590  0.13355  Biso   1.000  C
  H92      1.0000 0.22580  0.57260  0.15120  Biso   1.000  H
  C185     1.0000 0.36930  0.47930  0.16825  Biso   1.000  C
  C186     1.0000 0.92500  0.75340  0.82631  Biso   1.000  C
  C187     1.0000 0.01410  0.73090  0.81938  Biso   1.000  C
  H93      1.0000 0.02850  0.68880  0.79550  Biso   1.000  H
  C188     1.0000 0.08250  0.76790  0.84613  Biso   1.000  C
  H94      1.0000 0.14290  0.75120  0.84030  Biso   1.000  H
  C189     1.0000 0.06440  0.82870  0.88104  Biso   1.000  C
  C190     1.0000 0.97610  0.85250  0.88793  Biso   1.000  C
  H95      1.0000 0.96260  0.89540  0.91150  Biso   1.000  H
  C191     1.0000 0.90610  0.81540  0.86128  Biso   1.000  C
  H96      1.0000 0.84590  0.83240  0.86700  Biso   1.000  H
  C192     1.0000 0.85080  0.71080  0.79936  Biso   1.000  C
  Fe4      1.0000 0.73142  0.37803  0.25524  Biso   1.000  Fe
  Mn4      1.0000 0.27614  0.97811  0.98830  Biso   1.000  Mn
  N13      1.0000 0.22660  0.00310  0.92180  Biso   1.000  N
  N14      1.0000 0.34510  0.09000  0.98522  Biso   1.000  N
  N15      1.0000 0.35560  0.93990  0.04241  Biso   1.000  N
  N16      1.0000 0.23650  0.85480  0.98083  Biso   1.000  N
  O25      1.0000 0.39950  0.46695  0.76897  Biso   1.000  O
  O26      1.0000 0.25850  0.51040  0.78633  Biso   1.000  O
  O27      1.0000 0.59384  0.33566  0.23004  Biso   1.000  O
  O28      1.0000 0.71360  0.28760  0.19435  Biso   1.000  O
  O29      1.0000 0.44750  0.45520  0.17727  Biso   1.000  O
  O30      1.0000 0.29880  0.44400  0.18396  Biso   1.000  O
  O31      1.0000 0.86955  0.64450  0.77235  Biso   1.000  O
  O32      1.0000 0.77290  0.73810  0.80287  Biso   1.000  O
  Fe5      1.0000 0.50000  0.55912  0.75000  Biso   1.000  Fe
  Fe6      1.0000 0.50000  0.44088  0.25000  Biso   1.000  Fe
