data_image0
_cell_length_a       13.153
_cell_length_b       13.986
_cell_length_c       21.683
_cell_angle_alpha    90
_cell_angle_beta     121.056
_cell_angle_gamma    90

_symmetry_space_group_name_H-M    "P 1"
_symmetry_int_tables_number       1

loop_
  _symmetry_equiv_pos_as_xyz
  'x, y, z'

loop_
  _atom_site_label
  _atom_site_occupancy
  _atom_site_fract_x
  _atom_site_fract_y
  _atom_site_fract_z
  _atom_site_thermal_displace_type
  _atom_site_B_iso_or_equiv
  _atom_site_type_symbol
  Mn1      1.0000 0.72526  0.54571  0.72526  Biso   1.000  Mn
  Mn2      1.0000 0.77625  0.70394  0.86040  Biso   1.000  Mn
  O1       1.0000 0.59070  0.64330  0.66140  Biso   1.000  O
  O2       1.0000 0.63650  0.73710  0.75500  Biso   1.000  O
  O3       1.0000 0.35960  0.00230  0.72000  Biso   1.000  O
  O4       1.0000 0.26810  0.07130  0.61200  Biso   1.000  O
  O5       1.0000 0.30680  0.55880  0.35630  Biso   1.000  O
  O6       1.0000 0.15640  0.58700  0.24830  Biso   1.000  O
  O7       1.0000 0.87760  0.86720  0.22120  Biso   1.000  O
  O8       1.0000 0.87160  0.88180  0.32010  Biso   1.000  O
  N1       1.0000 0.93850  0.72020  0.97130  Biso   1.000  N
  N2       1.0000 0.87030  0.83980  0.85810  Biso   1.000  N
  C1       1.0000 0.57320  0.71370  0.68950  Biso   1.000  C
  C2       1.0000 0.47050  0.77790  0.64210  Biso   1.000  C
  C3       1.0000 0.44630  0.85770  0.66980  Biso   1.000  C
  H1       1.0000 0.49180  0.87070  0.71880  Biso   1.000  H
  C4       1.0000 0.35380  0.91880  0.62440  Biso   1.000  C
  C5       1.0000 0.32490  0.00390  0.65440  Biso   1.000  C
  C6       1.0000 0.28680  0.89820  0.55070  Biso   1.000  C
  H2       1.0000 0.22860  0.94120  0.51990  Biso   1.000  H
  C7       1.0000 0.30470  0.81620  0.52260  Biso   1.000  C
  C8       1.0000 0.40000  0.75610  0.56980  Biso   1.000  C
  H3       1.0000 0.41540  0.70100  0.55190  Biso   1.000  H
  C9       1.0000 0.22700  0.78940  0.44480  Biso   1.000  C
  C10      1.0000 0.25780  0.71750  0.41360  Biso   1.000  C
  H4       1.0000 0.32970  0.68590  0.44150  Biso   1.000  H
  C11      1.0000 0.18490  0.69110  0.34200  Biso   1.000  C
  C12      1.0000 0.21700  0.60940  0.31250  Biso   1.000  C
  C13      1.0000 0.07720  0.73980  0.29940  Biso   1.000  C
  H5       1.0000 0.02970  0.72560  0.25070  Biso   1.000  H
  C14      1.0000 0.04270  0.80810  0.32980  Biso   1.000  C
  C15      1.0000 0.92350  0.85490  0.28660  Biso   1.000  C
  C16      1.0000 0.11590  0.83380  0.40220  Biso   1.000  C
  H6       1.0000 0.09090  0.88030  0.42220  Biso   1.000  H
  C17      1.0000 0.83830  0.89240  0.79990  Biso   1.000  C
  H7       1.0000 0.77040  0.87730  0.75640  Biso   1.000  H
  C18      1.0000 0.91110  0.97410  0.80520  Biso   1.000  C
  H8       1.0000 0.89030  0.01020  0.76430  Biso   1.000  H
  C19      1.0000 0.00390  0.99730  0.86580  Biso   1.000  C
  H9       1.0000 0.04900  0.04990  0.86820  Biso   1.000  H
  C20      1.0000 0.03630  0.94480  0.92670  Biso   1.000  C
  C21      1.0000 0.13610  0.96640  0.99400  Biso   1.000  C
  H10      1.0000 0.18190  0.01950  0.99850  Biso   1.000  H
  C22      1.0000 0.16830  0.90980  0.05460  Biso   1.000  C
  H11      1.0000 0.23280  0.92770  0.09890  Biso   1.000  H
  C23      1.0000 0.10310  0.82380  0.04970  Biso   1.000  C
  C24      1.0000 0.13390  0.77270  0.10430  Biso   1.000  C
  H12      1.0000 0.19740  0.79080  0.14900  Biso   1.000  H
  C25      1.0000 0.06810  0.68360  0.09670  Biso   1.000  C
  H13      1.0000 0.09020  0.64340  0.13580  Biso   1.000  H
  C26      1.0000 0.96700  0.66090  0.02560  Biso   1.000  C
  H14      1.0000 0.92320  0.60550  0.01840  Biso   1.000  H
  C27      1.0000 0.00160  0.80180  0.98090  Biso   1.000  C
  C28      1.0000 0.96770  0.86420  0.91830  Biso   1.000  C
  Mn3      1.0000 0.27474  0.04571  0.77474  Biso   1.000  Mn
  Mn4      1.0000 0.22375  0.20394  0.63960  Biso   1.000  Mn
  O9       1.0000 0.40930  0.14330  0.83860  Biso   1.000  O
  O10      1.0000 0.36350  0.23710  0.74500  Biso   1.000  O
  O11      1.0000 0.64040  0.50230  0.78000  Biso   1.000  O
  O12      1.0000 0.73190  0.57130  0.88800  Biso   1.000  O
  O13      1.0000 0.69320  0.05880  0.14370  Biso   1.000  O
  O14      1.0000 0.84360  0.08700  0.25170  Biso   1.000  O
  O15      1.0000 0.12240  0.36720  0.27880  Biso   1.000  O
  O16      1.0000 0.12840  0.38180  0.17990  Biso   1.000  O
  N3       1.0000 0.06150  0.22020  0.52870  Biso   1.000  N
  N4       1.0000 0.12970  0.33980  0.64190  Biso   1.000  N
  C29      1.0000 0.42680  0.21370  0.81050  Biso   1.000  C
  C30      1.0000 0.52950  0.27790  0.85790  Biso   1.000  C
  C31      1.0000 0.55370  0.35770  0.83020  Biso   1.000  C
  H15      1.0000 0.50820  0.37070  0.78120  Biso   1.000  H
  C32      1.0000 0.64620  0.41880  0.87560  Biso   1.000  C
  C33      1.0000 0.67510  0.50390  0.84560  Biso   1.000  C
  C34      1.0000 0.71320  0.39820  0.94930  Biso   1.000  C
  H16      1.0000 0.77140  0.44120  0.98010  Biso   1.000  H
  C35      1.0000 0.69530  0.31620  0.97740  Biso   1.000  C
  C36      1.0000 0.60000  0.25610  0.93020  Biso   1.000  C
  H17      1.0000 0.58460  0.20100  0.94810  Biso   1.000  H
  C37      1.0000 0.77300  0.28940  0.05520  Biso   1.000  C
  C38      1.0000 0.74220  0.21750  0.08640  Biso   1.000  C
  H18      1.0000 0.67030  0.18590  0.05850  Biso   1.000  H
  C39      1.0000 0.81510  0.19110  0.15800  Biso   1.000  C
  C40      1.0000 0.78300  0.10940  0.18750  Biso   1.000  C
  C41      1.0000 0.92280  0.23980  0.20060  Biso   1.000  C
  H19      1.0000 0.97030  0.22560  0.24930  Biso   1.000  H
  C42      1.0000 0.95730  0.30810  0.17020  Biso   1.000  C
  C43      1.0000 0.07650  0.35490  0.21340  Biso   1.000  C
  C44      1.0000 0.88410  0.33380  0.09780  Biso   1.000  C
  H20      1.0000 0.90910  0.38030  0.07780  Biso   1.000  H
  C45      1.0000 0.16170  0.39240  0.70010  Biso   1.000  C
  H21      1.0000 0.22960  0.37730  0.74360  Biso   1.000  H
  C46      1.0000 0.08890  0.47410  0.69480  Biso   1.000  C
  H22      1.0000 0.10970  0.51020  0.73570  Biso   1.000  H
  C47      1.0000 0.99610  0.49730  0.63420  Biso   1.000  C
  H23      1.0000 0.95100  0.54990  0.63180  Biso   1.000  H
  C48      1.0000 0.96370  0.44480  0.57330  Biso   1.000  C
  C49      1.0000 0.86390  0.46640  0.50600  Biso   1.000  C
  H24      1.0000 0.81810  0.51950  0.50150  Biso   1.000  H
  C50      1.0000 0.83170  0.40980  0.44540  Biso   1.000  C
  H25      1.0000 0.76720  0.42770  0.40110  Biso   1.000  H
  C51      1.0000 0.89690  0.32380  0.45030  Biso   1.000  C
  C52      1.0000 0.86610  0.27270  0.39570  Biso   1.000  C
  H26      1.0000 0.80260  0.29080  0.35100  Biso   1.000  H
  C53      1.0000 0.93190  0.18360  0.40330  Biso   1.000  C
  H27      1.0000 0.90980  0.14340  0.36420  Biso   1.000  H
  C54      1.0000 0.03300  0.16090  0.47440  Biso   1.000  C
  H28      1.0000 0.07680  0.10550  0.48160  Biso   1.000  H
  C55      1.0000 0.99840  0.30180  0.51910  Biso   1.000  C
  C56      1.0000 0.03230  0.36420  0.58170  Biso   1.000  C
  Mn5      1.0000 0.27474  0.45429  0.27474  Biso   1.000  Mn
  Mn6      1.0000 0.22375  0.29606  0.13960  Biso   1.000  Mn
  O17      1.0000 0.40930  0.35670  0.33860  Biso   1.000  O
  O18      1.0000 0.36350  0.26290  0.24500  Biso   1.000  O
  O19      1.0000 0.64040  0.99770  0.28000  Biso   1.000  O
  O20      1.0000 0.73190  0.92870  0.38800  Biso   1.000  O
  O21      1.0000 0.69320  0.44120  0.64370  Biso   1.000  O
  O22      1.0000 0.84360  0.41300  0.75170  Biso   1.000  O
  O23      1.0000 0.12240  0.13280  0.77880  Biso   1.000  O
  O24      1.0000 0.12840  0.11820  0.67990  Biso   1.000  O
  N5       1.0000 0.06150  0.27980  0.02870  Biso   1.000  N
  N6       1.0000 0.12970  0.16020  0.14190  Biso   1.000  N
  C57      1.0000 0.42680  0.28630  0.31050  Biso   1.000  C
  C58      1.0000 0.52950  0.22210  0.35790  Biso   1.000  C
  C59      1.0000 0.55370  0.14230  0.33020  Biso   1.000  C
  H29      1.0000 0.50820  0.12930  0.28120  Biso   1.000  H
  C60      1.0000 0.64620  0.08120  0.37560  Biso   1.000  C
  C61      1.0000 0.67510  0.99610  0.34560  Biso   1.000  C
  C62      1.0000 0.71320  0.10180  0.44930  Biso   1.000  C
  H30      1.0000 0.77140  0.05880  0.48010  Biso   1.000  H
  C63      1.0000 0.69530  0.18380  0.47740  Biso   1.000  C
  C64      1.0000 0.60000  0.24390  0.43020  Biso   1.000  C
  H31      1.0000 0.58460  0.29900  0.44810  Biso   1.000  H
  C65      1.0000 0.77300  0.21060  0.55520  Biso   1.000  C
  C66      1.0000 0.74220  0.28250  0.58640  Biso   1.000  C
  H32      1.0000 0.67030  0.31410  0.55850  Biso   1.000  H
  C67      1.0000 0.81510  0.30890  0.65800  Biso   1.000  C
  C68      1.0000 0.78300  0.39060  0.68750  Biso   1.000  C
  C69      1.0000 0.92280  0.26020  0.70060  Biso   1.000  C
  H33      1.0000 0.97030  0.27440  0.74930  Biso   1.000  H
  C70      1.0000 0.95730  0.19190  0.67020  Biso   1.000  C
  C71      1.0000 0.07650  0.14510  0.71340  Biso   1.000  C
  C72      1.0000 0.88410  0.16620  0.59780  Biso   1.000  C
  H34      1.0000 0.90910  0.11970  0.57780  Biso   1.000  H
  C73      1.0000 0.16170  0.10760  0.20010  Biso   1.000  C
  H35      1.0000 0.22960  0.12270  0.24360  Biso   1.000  H
  C74      1.0000 0.08890  0.02590  0.19480  Biso   1.000  C
  H36      1.0000 0.10970  0.98980  0.23570  Biso   1.000  H
  C75      1.0000 0.99610  0.00270  0.13420  Biso   1.000  C
  H37      1.0000 0.95100  0.95010  0.13180  Biso   1.000  H
  C76      1.0000 0.96370  0.05520  0.07330  Biso   1.000  C
  C77      1.0000 0.86390  0.03360  0.00600  Biso   1.000  C
  H38      1.0000 0.81810  0.98050  0.00150  Biso   1.000  H
  C78      1.0000 0.83170  0.09020  0.94540  Biso   1.000  C
  H39      1.0000 0.76720  0.07230  0.90110  Biso   1.000  H
  C79      1.0000 0.89690  0.17620  0.95030  Biso   1.000  C
  C80      1.0000 0.86610  0.22730  0.89570  Biso   1.000  C
  H40      1.0000 0.80260  0.20920  0.85100  Biso   1.000  H
  C81      1.0000 0.93190  0.31640  0.90330  Biso   1.000  C
  H41      1.0000 0.90980  0.35660  0.86420  Biso   1.000  H
  C82      1.0000 0.03300  0.33910  0.97440  Biso   1.000  C
  H42      1.0000 0.07680  0.39450  0.98160  Biso   1.000  H
  C83      1.0000 0.99840  0.19820  0.01910  Biso   1.000  C
  C84      1.0000 0.03230  0.13580  0.08170  Biso   1.000  C
  Mn7      1.0000 0.72526  0.95429  0.22526  Biso   1.000  Mn
  Mn8      1.0000 0.77625  0.79606  0.36040  Biso   1.000  Mn
  O25      1.0000 0.59070  0.85670  0.16140  Biso   1.000  O
  O26      1.0000 0.63650  0.76290  0.25500  Biso   1.000  O
  O27      1.0000 0.35960  0.49770  0.22000  Biso   1.000  O
  O28      1.0000 0.26810  0.42870  0.11200  Biso   1.000  O
  O29      1.0000 0.30680  0.94120  0.85630  Biso   1.000  O
  O30      1.0000 0.15640  0.91300  0.74830  Biso   1.000  O
  O31      1.0000 0.87760  0.63280  0.72120  Biso   1.000  O
  O32      1.0000 0.87160  0.61820  0.82010  Biso   1.000  O
  N7       1.0000 0.93850  0.77980  0.47130  Biso   1.000  N
  N8       1.0000 0.87030  0.66020  0.35810  Biso   1.000  N
  C85      1.0000 0.57320  0.78630  0.18950  Biso   1.000  C
  C86      1.0000 0.47050  0.72210  0.14210  Biso   1.000  C
  C87      1.0000 0.44630  0.64230  0.16980  Biso   1.000  C
  H43      1.0000 0.49180  0.62930  0.21880  Biso   1.000  H
  C88      1.0000 0.35380  0.58120  0.12440  Biso   1.000  C
  C89      1.0000 0.32490  0.49610  0.15440  Biso   1.000  C
  C90      1.0000 0.28680  0.60180  0.05070  Biso   1.000  C
  H44      1.0000 0.22860  0.55880  0.01990  Biso   1.000  H
  C91      1.0000 0.30470  0.68380  0.02260  Biso   1.000  C
  C92      1.0000 0.40000  0.74390  0.06980  Biso   1.000  C
  H45      1.0000 0.41540  0.79900  0.05190  Biso   1.000  H
  C93      1.0000 0.22700  0.71060  0.94480  Biso   1.000  C
  C94      1.0000 0.25780  0.78250  0.91360  Biso   1.000  C
  H46      1.0000 0.32970  0.81410  0.94150  Biso   1.000  H
  C95      1.0000 0.18490  0.80890  0.84200  Biso   1.000  C
  C96      1.0000 0.21700  0.89060  0.81250  Biso   1.000  C
  C97      1.0000 0.07720  0.76020  0.79940  Biso   1.000  C
  H47      1.0000 0.02970  0.77440  0.75070  Biso   1.000  H
  C98      1.0000 0.04270  0.69190  0.82980  Biso   1.000  C
  C99      1.0000 0.92350  0.64510  0.78660  Biso   1.000  C
  C100     1.0000 0.11590  0.66620  0.90220  Biso   1.000  C
  H48      1.0000 0.09090  0.61970  0.92220  Biso   1.000  H
  C101     1.0000 0.83830  0.60760  0.29990  Biso   1.000  C
  H49      1.0000 0.77040  0.62270  0.25640  Biso   1.000  H
  C102     1.0000 0.91110  0.52590  0.30520  Biso   1.000  C
  H50      1.0000 0.89030  0.48980  0.26430  Biso   1.000  H
  C103     1.0000 0.00390  0.50270  0.36580  Biso   1.000  C
  H51      1.0000 0.04900  0.45010  0.36820  Biso   1.000  H
  C104     1.0000 0.03630  0.55520  0.42670  Biso   1.000  C
  C105     1.0000 0.13610  0.53360  0.49400  Biso   1.000  C
  H52      1.0000 0.18190  0.48050  0.49850  Biso   1.000  H
  C106     1.0000 0.16830  0.59020  0.55460  Biso   1.000  C
  H53      1.0000 0.23280  0.57230  0.59890  Biso   1.000  H
  C107     1.0000 0.10310  0.67620  0.54970  Biso   1.000  C
  C108     1.0000 0.13390  0.72730  0.60430  Biso   1.000  C
  H54      1.0000 0.19740  0.70920  0.64900  Biso   1.000  H
  C109     1.0000 0.06810  0.81640  0.59670  Biso   1.000  C
  H55      1.0000 0.09020  0.85660  0.63580  Biso   1.000  H
  C110     1.0000 0.96700  0.83910  0.52560  Biso   1.000  C
  H56      1.0000 0.92320  0.89450  0.51840  Biso   1.000  H
  C111     1.0000 0.00160  0.69820  0.48090  Biso   1.000  C
  C112     1.0000 0.96770  0.63580  0.41830  Biso   1.000  C
