data_image0
_cell_length_a       14.46
_cell_length_b       13.063
_cell_length_c       22.054
_cell_angle_alpha    90
_cell_angle_beta     125.16
_cell_angle_gamma    90

_symmetry_space_group_name_H-M    "P 1"
_symmetry_int_tables_number       1

loop_
  _symmetry_equiv_pos_as_xyz
  'x, y, z'

loop_
  _atom_site_label
  _atom_site_occupancy
  _atom_site_fract_x
  _atom_site_fract_y
  _atom_site_fract_z
  _atom_site_thermal_displace_type
  _atom_site_B_iso_or_equiv
  _atom_site_type_symbol
  Mn1      1.0000 0.22733  0.55772  0.72707  Biso   1.000  Mn
  Mn2      1.0000 0.29507  0.72915  0.86879  Biso   1.000  Mn
  O1       1.0000 0.23680  0.58910  0.88545  Biso   1.000  O
  O2       1.0000 0.15520  0.50210  0.77930  Biso   1.000  O
  O3       1.0000 0.85330  0.25940  0.74144  Biso   1.000  O
  O4       1.0000 0.90290  0.16000  0.83760  Biso   1.000  O
  O5       1.0000 0.20300  0.05690  0.14976  Biso   1.000  O
  O6       1.0000 0.35690  0.08180  0.26108  Biso   1.000  O
  O7       1.0000 0.64410  0.34350  0.28180  Biso   1.000  O
  O8       1.0000 0.62870  0.36210  0.17728  Biso   1.000  O
  C1       1.0000 0.18340  0.51410  0.84430  Biso   1.000  C
  C2       1.0000 0.15130  0.42900  0.87480  Biso   1.000  C
  C3       1.0000 0.22410  0.40240  0.94900  Biso   1.000  C
  H1       1.0000 0.28830  0.44180  0.98030  Biso   1.000  H
  C4       1.0000 0.20270  0.31750  0.97790  Biso   1.000  C
  C5       1.0000 0.10170  0.26450  0.92990  Biso   1.000  C
  H2       1.0000 0.08480  0.20820  0.94770  Biso   1.000  H
  C6       1.0000 0.02560  0.29370  0.85600  Biso   1.000  C
  C7       1.0000 0.91820  0.23340  0.80740  Biso   1.000  C
  C8       1.0000 0.05190  0.37390  0.82790  Biso   1.000  C
  H3       1.0000 0.00360  0.39110  0.77800  Biso   1.000  H
  C9       1.0000 0.28430  0.28380  0.05540  Biso   1.000  C
  C10      1.0000 0.39620  0.31840  0.09720  Biso   1.000  C
  H4       1.0000 0.42030  0.36120  0.07520  Biso   1.000  H
  C11      1.0000 0.47220  0.29010  0.17080  Biso   1.000  C
  C12      1.0000 0.58840  0.33250  0.21320  Biso   1.000  C
  C13      1.0000 0.43850  0.22480  0.20420  Biso   1.000  C
  H5       1.0000 0.48840  0.20790  0.25410  Biso   1.000  H
  C14      1.0000 0.32920  0.18430  0.16230  Biso   1.000  C
  C15      1.0000 0.29510  0.10380  0.19390  Biso   1.000  C
  C16      1.0000 0.25380  0.21560  0.08960  Biso   1.000  C
  H6       1.0000 0.18030  0.19020  0.06260  Biso   1.000  H
  Mn3      1.0000 0.77267  0.05772  0.77293  Biso   1.000  Mn
  Mn4      1.0000 0.70493  0.22915  0.63121  Biso   1.000  Mn
  O9       1.0000 0.76320  0.08910  0.61455  Biso   1.000  O
  O10      1.0000 0.84480  0.00210  0.72070  Biso   1.000  O
  O11      1.0000 0.14670  0.75940  0.75856  Biso   1.000  O
  O12      1.0000 0.09710  0.66000  0.66240  Biso   1.000  O
  O13      1.0000 0.79700  0.55690  0.35024  Biso   1.000  O
  O14      1.0000 0.64310  0.58180  0.23892  Biso   1.000  O
  O15      1.0000 0.35590  0.84350  0.21820  Biso   1.000  O
  O16      1.0000 0.37130  0.86210  0.32272  Biso   1.000  O
  C17      1.0000 0.81660  0.01410  0.65570  Biso   1.000  C
  C18      1.0000 0.84870  0.92900  0.62520  Biso   1.000  C
  C19      1.0000 0.77590  0.90240  0.55100  Biso   1.000  C
  H7       1.0000 0.71170  0.94180  0.51970  Biso   1.000  H
  C20      1.0000 0.79730  0.81750  0.52210  Biso   1.000  C
  C21      1.0000 0.89830  0.76450  0.57010  Biso   1.000  C
  H8       1.0000 0.91520  0.70820  0.55230  Biso   1.000  H
  C22      1.0000 0.97440  0.79370  0.64400  Biso   1.000  C
  C23      1.0000 0.08180  0.73340  0.69260  Biso   1.000  C
  C24      1.0000 0.94810  0.87390  0.67210  Biso   1.000  C
  H9       1.0000 0.99640  0.89110  0.72200  Biso   1.000  H
  C25      1.0000 0.71570  0.78380  0.44460  Biso   1.000  C
  C26      1.0000 0.60380  0.81840  0.40280  Biso   1.000  C
  H10      1.0000 0.57970  0.86120  0.42480  Biso   1.000  H
  C27      1.0000 0.52780  0.79010  0.32920  Biso   1.000  C
  C28      1.0000 0.41160  0.83250  0.28680  Biso   1.000  C
  C29      1.0000 0.56150  0.72480  0.29580  Biso   1.000  C
  H11      1.0000 0.51160  0.70790  0.24590  Biso   1.000  H
  C30      1.0000 0.67080  0.68430  0.33770  Biso   1.000  C
  C31      1.0000 0.70490  0.60380  0.30610  Biso   1.000  C
  C32      1.0000 0.74620  0.71560  0.41040  Biso   1.000  C
  H12      1.0000 0.81970  0.69020  0.43740  Biso   1.000  H
  Mn5      1.0000 0.77267  0.44228  0.27293  Biso   1.000  Mn
  Mn6      1.0000 0.70493  0.27085  0.13121  Biso   1.000  Mn
  O17      1.0000 0.76320  0.41090  0.11455  Biso   1.000  O
  O18      1.0000 0.84480  0.49790  0.22070  Biso   1.000  O
  O19      1.0000 0.14670  0.74060  0.25856  Biso   1.000  O
  O20      1.0000 0.09710  0.84000  0.16240  Biso   1.000  O
  O21      1.0000 0.79700  0.94310  0.85024  Biso   1.000  O
  O22      1.0000 0.64310  0.91820  0.73892  Biso   1.000  O
  O23      1.0000 0.35590  0.65650  0.71820  Biso   1.000  O
  O24      1.0000 0.37130  0.63790  0.82272  Biso   1.000  O
  C33      1.0000 0.81660  0.48590  0.15570  Biso   1.000  C
  C34      1.0000 0.84870  0.57100  0.12520  Biso   1.000  C
  C35      1.0000 0.77590  0.59760  0.05100  Biso   1.000  C
  H13      1.0000 0.71170  0.55820  0.01970  Biso   1.000  H
  C36      1.0000 0.79730  0.68250  0.02210  Biso   1.000  C
  C37      1.0000 0.89830  0.73550  0.07010  Biso   1.000  C
  H14      1.0000 0.91520  0.79180  0.05230  Biso   1.000  H
  C38      1.0000 0.97440  0.70630  0.14400  Biso   1.000  C
  C39      1.0000 0.08180  0.76660  0.19260  Biso   1.000  C
  C40      1.0000 0.94810  0.62610  0.17210  Biso   1.000  C
  H15      1.0000 0.99640  0.60890  0.22200  Biso   1.000  H
  C41      1.0000 0.71570  0.71620  0.94460  Biso   1.000  C
  C42      1.0000 0.60380  0.68160  0.90280  Biso   1.000  C
  H16      1.0000 0.57970  0.63880  0.92480  Biso   1.000  H
  C43      1.0000 0.52780  0.70990  0.82920  Biso   1.000  C
  C44      1.0000 0.41160  0.66750  0.78680  Biso   1.000  C
  C45      1.0000 0.56150  0.77520  0.79580  Biso   1.000  C
  H17      1.0000 0.51160  0.79210  0.74590  Biso   1.000  H
  C46      1.0000 0.67080  0.81570  0.83770  Biso   1.000  C
  C47      1.0000 0.70490  0.89620  0.80610  Biso   1.000  C
  C48      1.0000 0.74620  0.78440  0.91040  Biso   1.000  C
  H18      1.0000 0.81970  0.80980  0.93740  Biso   1.000  H
  Mn7      1.0000 0.22733  0.94228  0.22707  Biso   1.000  Mn
  Mn8      1.0000 0.29507  0.77085  0.36879  Biso   1.000  Mn
  O25      1.0000 0.23680  0.91090  0.38545  Biso   1.000  O
  O26      1.0000 0.15520  0.99790  0.27930  Biso   1.000  O
  O27      1.0000 0.85330  0.24060  0.24144  Biso   1.000  O
  O28      1.0000 0.90290  0.34000  0.33760  Biso   1.000  O
  O29      1.0000 0.20300  0.44310  0.64976  Biso   1.000  O
  O30      1.0000 0.35690  0.41820  0.76108  Biso   1.000  O
  O31      1.0000 0.64410  0.15650  0.78180  Biso   1.000  O
  O32      1.0000 0.62870  0.13790  0.67728  Biso   1.000  O
  C49      1.0000 0.18340  0.98590  0.34430  Biso   1.000  C
  C50      1.0000 0.15130  0.07100  0.37480  Biso   1.000  C
  C51      1.0000 0.22410  0.09760  0.44900  Biso   1.000  C
  H19      1.0000 0.28830  0.05820  0.48030  Biso   1.000  H
  C52      1.0000 0.20270  0.18250  0.47790  Biso   1.000  C
  C53      1.0000 0.10170  0.23550  0.42990  Biso   1.000  C
  H20      1.0000 0.08480  0.29180  0.44770  Biso   1.000  H
  C54      1.0000 0.02560  0.20630  0.35600  Biso   1.000  C
  C55      1.0000 0.91820  0.26660  0.30740  Biso   1.000  C
  C56      1.0000 0.05190  0.12610  0.32790  Biso   1.000  C
  H21      1.0000 0.00360  0.10890  0.27800  Biso   1.000  H
  C57      1.0000 0.28430  0.21620  0.55540  Biso   1.000  C
  C58      1.0000 0.39620  0.18160  0.59720  Biso   1.000  C
  H22      1.0000 0.42030  0.13880  0.57520  Biso   1.000  H
  C59      1.0000 0.47220  0.20990  0.67080  Biso   1.000  C
  C60      1.0000 0.58840  0.16750  0.71320  Biso   1.000  C
  C61      1.0000 0.43850  0.27520  0.70420  Biso   1.000  C
  H23      1.0000 0.48840  0.29210  0.75410  Biso   1.000  H
  C62      1.0000 0.32920  0.31570  0.66230  Biso   1.000  C
  C63      1.0000 0.29510  0.39620  0.69390  Biso   1.000  C
  C64      1.0000 0.25380  0.28440  0.58960  Biso   1.000  C
  H24      1.0000 0.18030  0.30980  0.56260  Biso   1.000  H
