data_image0
_cell_length_a       13.288
_cell_length_b       13.919
_cell_length_c       18.477
_cell_angle_alpha    90
_cell_angle_beta     96.318
_cell_angle_gamma    90

_symmetry_space_group_name_H-M    "P 1"
_symmetry_int_tables_number       1

loop_
  _symmetry_equiv_pos_as_xyz
  'x, y, z'

loop_
  _atom_site_label
  _atom_site_occupancy
  _atom_site_fract_x
  _atom_site_fract_y
  _atom_site_fract_z
  _atom_site_thermal_displace_type
  _atom_site_B_iso_or_equiv
  _atom_site_type_symbol
  Mn1      1.0000 0.98705  0.05414  0.22259  Biso   1.000  Mn
  Mn2      1.0000 0.06664  0.20730  0.36906  Biso   1.000  Mn
  C1       1.0000 0.16550  0.01030  0.33820  Biso   1.000  C
  C2       1.0000 0.23280  0.92890  0.36710  Biso   1.000  C
  C3       1.0000 0.28540  0.87430  0.32110  Biso   1.000  C
  H1       1.0000 0.28140  0.88930  0.27180  Biso   1.000  H
  C4       1.0000 0.34350  0.79790  0.34830  Biso   1.000  C
  C5       1.0000 0.34590  0.77380  0.42160  Biso   1.000  C
  H2       1.0000 0.38430  0.72140  0.43940  Biso   1.000  H
  C6       1.0000 0.29220  0.82660  0.46910  Biso   1.000  C
  C7       1.0000 0.23850  0.90600  0.44030  Biso   1.000  C
  H3       1.0000 0.20550  0.94490  0.47120  Biso   1.000  H
  C8       1.0000 0.40320  0.73750  0.30020  Biso   1.000  C
  C9       1.0000 0.28360  0.73820  0.69170  Biso   1.000  C
  H4       1.0000 0.28350  0.72080  0.74030  Biso   1.000  H
  C10      1.0000 0.22310  0.81120  0.66330  Biso   1.000  C
  C11      1.0000 0.22500  0.83970  0.59150  Biso   1.000  C
  H5       1.0000 0.18200  0.88830  0.57250  Biso   1.000  H
  C12      1.0000 0.29100  0.79610  0.54730  Biso   1.000  C
  C13      1.0000 0.34780  0.72000  0.57590  Biso   1.000  C
  H6       1.0000 0.38920  0.68780  0.54650  Biso   1.000  H
  C14      1.0000 0.34600  0.68940  0.64750  Biso   1.000  C
  C15      1.0000 0.40150  0.60190  0.67500  Biso   1.000  C
  C16      1.0000 0.14920  0.85610  0.70860  Biso   1.000  C
  C17      1.0000 0.93700  0.40350  0.33700  Biso   1.000  C
  H7       1.0000 0.95360  0.39540  0.28980  Biso   1.000  H
  C18      1.0000 0.87960  0.48250  0.35050  Biso   1.000  C
  H8       1.0000 0.85690  0.52490  0.31340  Biso   1.000  H
  C19      1.0000 0.85760  0.49630  0.41840  Biso   1.000  C
  H9       1.0000 0.82130  0.55040  0.42980  Biso   1.000  H
  C20      1.0000 0.88820  0.43150  0.47060  Biso   1.000  C
  H10      1.0000 0.87180  0.44020  0.51780  Biso   1.000  H
  C21      1.0000 0.94350  0.35280  0.45400  Biso   1.000  C
  C22      1.0000 0.97610  0.27760  0.50720  Biso   1.000  C
  C23      1.0000 0.96250  0.28460  0.58220  Biso   1.000  C
  H11      1.0000 0.93310  0.33840  0.60110  Biso   1.000  H
  C24      1.0000 0.99550  0.20680  0.62620  Biso   1.000  C
  H12      1.0000 0.98900  0.20910  0.67580  Biso   1.000  H
  C25      1.0000 0.03760  0.12650  0.59790  Biso   1.000  C
  H13      1.0000 0.05810  0.07440  0.62740  Biso   1.000  H
  C26      1.0000 0.04820  0.12550  0.52550  Biso   1.000  C
  H14      1.0000 0.07700  0.07150  0.50640  Biso   1.000  H
  N1       1.0000 0.97020  0.33820  0.38570  Biso   1.000  N
  N2       1.0000 0.02050  0.19570  0.48160  Biso   1.000  N
  O1       1.0000 0.15010  0.07650  0.38142  Biso   1.000  O
  O2       1.0000 0.12800  0.00530  0.27203  Biso   1.000  O
  O3       1.0000 0.39970  0.75970  0.23466  Biso   1.000  O
  O4       1.0000 0.45190  0.66860  0.33007  Biso   1.000  O
  O5       1.0000 0.44500  0.54980  0.63239  Biso   1.000  O
  O6       1.0000 0.40330  0.58040  0.74129  Biso   1.000  O
  O7       1.0000 0.06210  0.88240  0.67677  Biso   1.000  O
  O8       1.0000 0.17060  0.86680  0.77530  Biso   1.000  O
  Mn3      1.0000 0.51295  0.55414  0.27741  Biso   1.000  Mn
  Mn4      1.0000 0.43336  0.70730  0.13094  Biso   1.000  Mn
  C27      1.0000 0.33450  0.51030  0.16180  Biso   1.000  C
  C28      1.0000 0.26720  0.42890  0.13290  Biso   1.000  C
  C29      1.0000 0.21460  0.37430  0.17890  Biso   1.000  C
  H15      1.0000 0.21860  0.38930  0.22820  Biso   1.000  H
  C30      1.0000 0.15650  0.29790  0.15170  Biso   1.000  C
  C31      1.0000 0.15410  0.27380  0.07840  Biso   1.000  C
  H16      1.0000 0.11570  0.22140  0.06060  Biso   1.000  H
  C32      1.0000 0.20780  0.32660  0.03090  Biso   1.000  C
  C33      1.0000 0.26150  0.40600  0.05970  Biso   1.000  C
  H17      1.0000 0.29450  0.44490  0.02880  Biso   1.000  H
  C34      1.0000 0.09680  0.23750  0.19980  Biso   1.000  C
  C35      1.0000 0.21640  0.23820  0.80830  Biso   1.000  C
  H18      1.0000 0.21650  0.22080  0.75970  Biso   1.000  H
  C36      1.0000 0.27690  0.31120  0.83670  Biso   1.000  C
  C37      1.0000 0.27500  0.33970  0.90850  Biso   1.000  C
  H19      1.0000 0.31800  0.38830  0.92750  Biso   1.000  H
  C38      1.0000 0.20900  0.29610  0.95270  Biso   1.000  C
  C39      1.0000 0.15220  0.22000  0.92410  Biso   1.000  C
  H20      1.0000 0.11080  0.18780  0.95350  Biso   1.000  H
  C40      1.0000 0.15400  0.18940  0.85250  Biso   1.000  C
  C41      1.0000 0.09850  0.10190  0.82500  Biso   1.000  C
  C42      1.0000 0.35080  0.35610  0.79140  Biso   1.000  C
  C43      1.0000 0.56300  0.90350  0.16300  Biso   1.000  C
  H21      1.0000 0.54640  0.89540  0.21020  Biso   1.000  H
  C44      1.0000 0.62040  0.98250  0.14950  Biso   1.000  C
  H22      1.0000 0.64310  0.02490  0.18660  Biso   1.000  H
  C45      1.0000 0.64240  0.99630  0.08160  Biso   1.000  C
  H23      1.0000 0.67870  0.05040  0.07020  Biso   1.000  H
  C46      1.0000 0.61180  0.93150  0.02940  Biso   1.000  C
  H24      1.0000 0.62820  0.94020  0.98220  Biso   1.000  H
  C47      1.0000 0.55650  0.85280  0.04600  Biso   1.000  C
  C48      1.0000 0.52390  0.77760  0.99280  Biso   1.000  C
  C49      1.0000 0.53750  0.78460  0.91780  Biso   1.000  C
  H25      1.0000 0.56690  0.83840  0.89890  Biso   1.000  H
  C50      1.0000 0.50450  0.70680  0.87380  Biso   1.000  C
  H26      1.0000 0.51100  0.70910  0.82420  Biso   1.000  H
  C51      1.0000 0.46240  0.62650  0.90210  Biso   1.000  C
  H27      1.0000 0.44190  0.57440  0.87260  Biso   1.000  H
  C52      1.0000 0.45180  0.62550  0.97450  Biso   1.000  C
  H28      1.0000 0.42300  0.57150  0.99360  Biso   1.000  H
  N3       1.0000 0.52980  0.83820  0.11430  Biso   1.000  N
  N4       1.0000 0.47950  0.69570  0.01840  Biso   1.000  N
  O9       1.0000 0.34990  0.57650  0.11858  Biso   1.000  O
  O10      1.0000 0.37200  0.50530  0.22797  Biso   1.000  O
  O11      1.0000 0.10030  0.25970  0.26534  Biso   1.000  O
  O12      1.0000 0.04810  0.16860  0.16993  Biso   1.000  O
  O13      1.0000 0.05500  0.04980  0.86761  Biso   1.000  O
  O14      1.0000 0.09670  0.08040  0.75871  Biso   1.000  O
  O15      1.0000 0.43790  0.38240  0.82323  Biso   1.000  O
  O16      1.0000 0.32940  0.36680  0.72470  Biso   1.000  O
  Mn5      1.0000 0.01295  0.94586  0.77741  Biso   1.000  Mn
  Mn6      1.0000 0.93336  0.79270  0.63094  Biso   1.000  Mn
  C53      1.0000 0.83450  0.98970  0.66180  Biso   1.000  C
  C54      1.0000 0.76720  0.07110  0.63290  Biso   1.000  C
  C55      1.0000 0.71460  0.12570  0.67890  Biso   1.000  C
  H29      1.0000 0.71860  0.11070  0.72820  Biso   1.000  H
  C56      1.0000 0.65650  0.20210  0.65170  Biso   1.000  C
  C57      1.0000 0.65410  0.22620  0.57840  Biso   1.000  C
  H30      1.0000 0.61570  0.27860  0.56060  Biso   1.000  H
  C58      1.0000 0.70780  0.17340  0.53090  Biso   1.000  C
  C59      1.0000 0.76150  0.09400  0.55970  Biso   1.000  C
  H31      1.0000 0.79450  0.05510  0.52880  Biso   1.000  H
  C60      1.0000 0.59680  0.26250  0.69980  Biso   1.000  C
  C61      1.0000 0.71640  0.26180  0.30830  Biso   1.000  C
  H32      1.0000 0.71650  0.27920  0.25970  Biso   1.000  H
  C62      1.0000 0.77690  0.18880  0.33670  Biso   1.000  C
  C63      1.0000 0.77500  0.16030  0.40850  Biso   1.000  C
  H33      1.0000 0.81800  0.11170  0.42750  Biso   1.000  H
  C64      1.0000 0.70900  0.20390  0.45270  Biso   1.000  C
  C65      1.0000 0.65220  0.28000  0.42410  Biso   1.000  C
  H34      1.0000 0.61080  0.31220  0.45350  Biso   1.000  H
  C66      1.0000 0.65400  0.31060  0.35250  Biso   1.000  C
  C67      1.0000 0.59850  0.39810  0.32500  Biso   1.000  C
  C68      1.0000 0.85080  0.14390  0.29140  Biso   1.000  C
  C69      1.0000 0.06300  0.59650  0.66300  Biso   1.000  C
  H35      1.0000 0.04640  0.60460  0.71020  Biso   1.000  H
  C70      1.0000 0.12040  0.51750  0.64950  Biso   1.000  C
  H36      1.0000 0.14310  0.47510  0.68660  Biso   1.000  H
  C71      1.0000 0.14240  0.50370  0.58160  Biso   1.000  C
  H37      1.0000 0.17870  0.44960  0.57020  Biso   1.000  H
  C72      1.0000 0.11180  0.56850  0.52940  Biso   1.000  C
  H38      1.0000 0.12820  0.55980  0.48220  Biso   1.000  H
  C73      1.0000 0.05650  0.64720  0.54600  Biso   1.000  C
  C74      1.0000 0.02390  0.72240  0.49280  Biso   1.000  C
  C75      1.0000 0.03750  0.71540  0.41780  Biso   1.000  C
  H39      1.0000 0.06690  0.66160  0.39890  Biso   1.000  H
  C76      1.0000 0.00450  0.79320  0.37380  Biso   1.000  C
  H40      1.0000 0.01100  0.79090  0.32420  Biso   1.000  H
  C77      1.0000 0.96240  0.87350  0.40210  Biso   1.000  C
  H41      1.0000 0.94190  0.92560  0.37260  Biso   1.000  H
  C78      1.0000 0.95180  0.87450  0.47450  Biso   1.000  C
  H42      1.0000 0.92300  0.92850  0.49360  Biso   1.000  H
  N5       1.0000 0.02980  0.66180  0.61430  Biso   1.000  N
  N6       1.0000 0.97950  0.80430  0.51840  Biso   1.000  N
  O17      1.0000 0.84990  0.92350  0.61858  Biso   1.000  O
  O18      1.0000 0.87200  0.99470  0.72797  Biso   1.000  O
  O19      1.0000 0.60030  0.24030  0.76534  Biso   1.000  O
  O20      1.0000 0.54810  0.33140  0.66993  Biso   1.000  O
  O21      1.0000 0.55500  0.45020  0.36761  Biso   1.000  O
  O22      1.0000 0.59670  0.41960  0.25871  Biso   1.000  O
  O23      1.0000 0.93790  0.11760  0.32323  Biso   1.000  O
  O24      1.0000 0.82940  0.13320  0.22470  Biso   1.000  O
  Mn7      1.0000 0.48705  0.44586  0.72259  Biso   1.000  Mn
  Mn8      1.0000 0.56664  0.29270  0.86906  Biso   1.000  Mn
  C79      1.0000 0.66550  0.48970  0.83820  Biso   1.000  C
  C80      1.0000 0.73280  0.57110  0.86710  Biso   1.000  C
  C81      1.0000 0.78540  0.62570  0.82110  Biso   1.000  C
  H43      1.0000 0.78140  0.61070  0.77180  Biso   1.000  H
  C82      1.0000 0.84350  0.70210  0.84830  Biso   1.000  C
  C83      1.0000 0.84590  0.72620  0.92160  Biso   1.000  C
  H44      1.0000 0.88430  0.77860  0.93940  Biso   1.000  H
  C84      1.0000 0.79220  0.67340  0.96910  Biso   1.000  C
  C85      1.0000 0.73850  0.59400  0.94030  Biso   1.000  C
  H45      1.0000 0.70550  0.55510  0.97120  Biso   1.000  H
  C86      1.0000 0.90320  0.76250  0.80020  Biso   1.000  C
  C87      1.0000 0.78360  0.76180  0.19170  Biso   1.000  C
  H46      1.0000 0.78350  0.77920  0.24030  Biso   1.000  H
  C88      1.0000 0.72310  0.68880  0.16330  Biso   1.000  C
  C89      1.0000 0.72500  0.66030  0.09150  Biso   1.000  C
  H47      1.0000 0.68200  0.61170  0.07250  Biso   1.000  H
  C90      1.0000 0.79100  0.70390  0.04730  Biso   1.000  C
  C91      1.0000 0.84780  0.78000  0.07590  Biso   1.000  C
  H48      1.0000 0.88920  0.81220  0.04650  Biso   1.000  H
  C92      1.0000 0.84600  0.81060  0.14750  Biso   1.000  C
  C93      1.0000 0.90150  0.89810  0.17500  Biso   1.000  C
  C94      1.0000 0.64920  0.64390  0.20860  Biso   1.000  C
  C95      1.0000 0.43700  0.09650  0.83700  Biso   1.000  C
  H49      1.0000 0.45360  0.10460  0.78980  Biso   1.000  H
  C96      1.0000 0.37960  0.01750  0.85050  Biso   1.000  C
  H50      1.0000 0.35690  0.97510  0.81340  Biso   1.000  H
  C97      1.0000 0.35760  0.00370  0.91840  Biso   1.000  C
  H51      1.0000 0.32130  0.94960  0.92980  Biso   1.000  H
  C98      1.0000 0.38820  0.06850  0.97060  Biso   1.000  C
  H52      1.0000 0.37180  0.05980  0.01780  Biso   1.000  H
  C99      1.0000 0.44350  0.14720  0.95400  Biso   1.000  C
  C100     1.0000 0.47610  0.22240  0.00720  Biso   1.000  C
  C101     1.0000 0.46250  0.21540  0.08220  Biso   1.000  C
  H53      1.0000 0.43310  0.16160  0.10110  Biso   1.000  H
  C102     1.0000 0.49550  0.29320  0.12620  Biso   1.000  C
  H54      1.0000 0.48900  0.29090  0.17580  Biso   1.000  H
  C103     1.0000 0.53760  0.37350  0.09790  Biso   1.000  C
  H55      1.0000 0.55810  0.42560  0.12740  Biso   1.000  H
  C104     1.0000 0.54820  0.37450  0.02550  Biso   1.000  C
  H56      1.0000 0.57700  0.42850  0.00640  Biso   1.000  H
  N7       1.0000 0.47020  0.16180  0.88570  Biso   1.000  N
  N8       1.0000 0.52050  0.30430  0.98160  Biso   1.000  N
  O25      1.0000 0.65010  0.42350  0.88142  Biso   1.000  O
  O26      1.0000 0.62800  0.49470  0.77203  Biso   1.000  O
  O27      1.0000 0.89970  0.74030  0.73466  Biso   1.000  O
  O28      1.0000 0.95190  0.83140  0.83007  Biso   1.000  O
  O29      1.0000 0.94500  0.95020  0.13239  Biso   1.000  O
  O30      1.0000 0.90330  0.91960  0.24129  Biso   1.000  O
  O31      1.0000 0.56210  0.61760  0.17677  Biso   1.000  O
  O32      1.0000 0.67060  0.63320  0.27530  Biso   1.000  O
