data_image0
_cell_length_a       10.318
_cell_length_b       10.981
_cell_length_c       7.066
_cell_angle_alpha    90
_cell_angle_beta     90
_cell_angle_gamma    90

_symmetry_space_group_name_H-M    "P 1"
_symmetry_int_tables_number       1

loop_
  _symmetry_equiv_pos_as_xyz
  'x, y, z'

loop_
  _atom_site_label
  _atom_site_occupancy
  _atom_site_fract_x
  _atom_site_fract_y
  _atom_site_fract_z
  _atom_site_thermal_displace_type
  _atom_site_B_iso_or_equiv
  _atom_site_type_symbol
  Cu1      1.0000 0.90166  0.89151  0.61459  Biso   1.000  Cu
  S1       1.0000 0.09606  0.11115  0.69028  Biso   1.000  S
  O1       1.0000 0.05440  0.23140  0.77750  Biso   1.000  O
  O2       1.0000 0.22900  0.09160  0.77990  Biso   1.000  O
  O3       1.0000 0.00980  0.01460  0.77280  Biso   1.000  O
  Cu2      1.0000 0.59834  0.60849  0.61459  Biso   1.000  Cu
  S2       1.0000 0.40394  0.38885  0.69028  Biso   1.000  S
  O4       1.0000 0.44560  0.26860  0.77750  Biso   1.000  O
  O5       1.0000 0.27100  0.40840  0.77990  Biso   1.000  O
  O6       1.0000 0.49020  0.48540  0.77280  Biso   1.000  O
  Cu3      1.0000 0.59834  0.89151  0.38541  Biso   1.000  Cu
  S3       1.0000 0.40394  0.11115  0.30972  Biso   1.000  S
  O7       1.0000 0.44560  0.23140  0.22250  Biso   1.000  O
  O8       1.0000 0.27100  0.09160  0.22010  Biso   1.000  O
  O9       1.0000 0.49020  0.01460  0.22720  Biso   1.000  O
  Cu4      1.0000 0.90166  0.60849  0.38541  Biso   1.000  Cu
  S4       1.0000 0.09606  0.38885  0.30972  Biso   1.000  S
  O10      1.0000 0.05440  0.26860  0.22250  Biso   1.000  O
  O11      1.0000 0.22900  0.40840  0.22010  Biso   1.000  O
  O12      1.0000 0.00980  0.48540  0.22720  Biso   1.000  O
  Cu5      1.0000 0.09834  0.10849  0.38541  Biso   1.000  Cu
  S5       1.0000 0.90394  0.88885  0.30972  Biso   1.000  S
  O13      1.0000 0.94560  0.76860  0.22250  Biso   1.000  O
  O14      1.0000 0.77100  0.90840  0.22010  Biso   1.000  O
  O15      1.0000 0.99020  0.98540  0.22720  Biso   1.000  O
  Cu6      1.0000 0.40166  0.39151  0.38541  Biso   1.000  Cu
  S6       1.0000 0.59606  0.61115  0.30972  Biso   1.000  S
  O16      1.0000 0.55440  0.73140  0.22250  Biso   1.000  O
  O17      1.0000 0.72900  0.59160  0.22010  Biso   1.000  O
  O18      1.0000 0.50980  0.51460  0.22720  Biso   1.000  O
  Cu7      1.0000 0.40166  0.10849  0.61459  Biso   1.000  Cu
  S7       1.0000 0.59606  0.88885  0.69028  Biso   1.000  S
  O19      1.0000 0.55440  0.76860  0.77750  Biso   1.000  O
  O20      1.0000 0.72900  0.90840  0.77990  Biso   1.000  O
  O21      1.0000 0.50980  0.98540  0.77280  Biso   1.000  O
  Cu8      1.0000 0.09834  0.39151  0.61459  Biso   1.000  Cu
  S8       1.0000 0.90394  0.61115  0.69028  Biso   1.000  S
  O22      1.0000 0.94560  0.73140  0.77750  Biso   1.000  O
  O23      1.0000 0.77100  0.59160  0.77990  Biso   1.000  O
  O24      1.0000 0.99020  0.51460  0.77280  Biso   1.000  O
  Cd1      1.0000 0.25000  0.25000  0.00000  Biso   1.000  Cd
  Cd2      1.0000 0.75000  0.75000  0.00000  Biso   1.000  Cd
