data_image0
_cell_length_a       13.669
_cell_length_b       15.925
_cell_length_c       14.633
_cell_angle_alpha    90
_cell_angle_beta     90
_cell_angle_gamma    90

_symmetry_space_group_name_H-M    "P 1"
_symmetry_int_tables_number       1

loop_
  _symmetry_equiv_pos_as_xyz
  'x, y, z'

loop_
  _atom_site_label
  _atom_site_occupancy
  _atom_site_fract_x
  _atom_site_fract_y
  _atom_site_fract_z
  _atom_site_thermal_displace_type
  _atom_site_B_iso_or_equiv
  _atom_site_type_symbol
  Co1      1.0000 0.20609  0.49710  0.23316  Biso   1.000  Co
  Co2      1.0000 0.06400  0.41669  0.03015  Biso   1.000  Co
  C1       1.0000 0.26440  0.39540  0.11120  Biso   1.000  C
  C2       1.0000 0.29440  0.32840  0.04420  Biso   1.000  C
  C3       1.0000 0.28700  0.33490  0.94850  Biso   1.000  C
  C4       1.0000 0.24010  0.40780  0.89960  Biso   1.000  C
  C5       1.0000 0.31790  0.26720  0.89580  Biso   1.000  C
  H1       1.0000 0.31630  0.27190  0.83250  Biso   1.000  H
  C6       1.0000 0.35110  0.19250  0.93440  Biso   1.000  C
  C7       1.0000 0.37700  0.12270  0.86850  Biso   1.000  C
  C8       1.0000 0.35430  0.18520  0.02920  Biso   1.000  C
  C9       1.0000 0.37420  0.10350  0.07860  Biso   1.000  C
  C10      1.0000 0.32730  0.25400  0.08280  Biso   1.000  C
  H2       1.0000 0.33140  0.24980  0.14610  Biso   1.000  H
  O1       1.0000 0.32650  0.43330  0.15760  Biso   1.000  O
  O2       1.0000 0.17330  0.40930  0.12500  Biso   1.000  O
  O3       1.0000 0.17020  0.44660  0.93540  Biso   1.000  O
  O4       1.0000 0.27290  0.42420  0.82080  Biso   1.000  O
  O5       1.0000 0.30900  0.10160  0.81660  Biso   1.000  O
  O6       1.0000 0.46170  0.09290  0.86730  Biso   1.000  O
  O7       1.0000 0.44280  0.05450  0.05320  Biso   1.000  O
  O8       1.0000 0.31690  0.08890  0.14240  Biso   1.000  O
  Co3      1.0000 0.29391  0.00290  0.73316  Biso   1.000  Co
  Co4      1.0000 0.43600  0.08331  0.53015  Biso   1.000  Co
  C11      1.0000 0.23560  0.10460  0.61120  Biso   1.000  C
  C12      1.0000 0.20560  0.17160  0.54420  Biso   1.000  C
  C13      1.0000 0.21300  0.16510  0.44850  Biso   1.000  C
  C14      1.0000 0.25990  0.09220  0.39960  Biso   1.000  C
  C15      1.0000 0.18210  0.23280  0.39580  Biso   1.000  C
  H3       1.0000 0.18370  0.22810  0.33250  Biso   1.000  H
  C16      1.0000 0.14890  0.30750  0.43440  Biso   1.000  C
  C17      1.0000 0.12300  0.37730  0.36850  Biso   1.000  C
  C18      1.0000 0.14570  0.31480  0.52920  Biso   1.000  C
  C19      1.0000 0.12580  0.39650  0.57860  Biso   1.000  C
  C20      1.0000 0.17270  0.24600  0.58280  Biso   1.000  C
  H4       1.0000 0.16860  0.25020  0.64610  Biso   1.000  H
  O9       1.0000 0.17350  0.06670  0.65760  Biso   1.000  O
  O10      1.0000 0.32670  0.09070  0.62500  Biso   1.000  O
  O11      1.0000 0.32980  0.05340  0.43540  Biso   1.000  O
  O12      1.0000 0.22710  0.07580  0.32080  Biso   1.000  O
  O13      1.0000 0.19100  0.39840  0.31660  Biso   1.000  O
  O14      1.0000 0.03830  0.40710  0.36730  Biso   1.000  O
  O15      1.0000 0.05720  0.44550  0.55320  Biso   1.000  O
  O16      1.0000 0.18310  0.41110  0.64240  Biso   1.000  O
  Co5      1.0000 0.79391  0.49710  0.26684  Biso   1.000  Co
  Co6      1.0000 0.93600  0.41669  0.46985  Biso   1.000  Co
  C21      1.0000 0.73560  0.39540  0.38880  Biso   1.000  C
  C22      1.0000 0.70560  0.32840  0.45580  Biso   1.000  C
  C23      1.0000 0.71300  0.33490  0.55150  Biso   1.000  C
  C24      1.0000 0.75990  0.40780  0.60040  Biso   1.000  C
  C25      1.0000 0.68210  0.26720  0.60420  Biso   1.000  C
  H5       1.0000 0.68370  0.27190  0.66750  Biso   1.000  H
  C26      1.0000 0.64890  0.19250  0.56560  Biso   1.000  C
  C27      1.0000 0.62300  0.12270  0.63150  Biso   1.000  C
  C28      1.0000 0.64570  0.18520  0.47080  Biso   1.000  C
  C29      1.0000 0.62580  0.10350  0.42140  Biso   1.000  C
  C30      1.0000 0.67270  0.25400  0.41720  Biso   1.000  C
  H6       1.0000 0.66860  0.24980  0.35390  Biso   1.000  H
  O17      1.0000 0.67350  0.43330  0.34240  Biso   1.000  O
  O18      1.0000 0.82670  0.40930  0.37500  Biso   1.000  O
  O19      1.0000 0.82980  0.44660  0.56460  Biso   1.000  O
  O20      1.0000 0.72710  0.42420  0.67920  Biso   1.000  O
  O21      1.0000 0.69100  0.10160  0.68340  Biso   1.000  O
  O22      1.0000 0.53830  0.09290  0.63270  Biso   1.000  O
  O23      1.0000 0.55720  0.05450  0.44680  Biso   1.000  O
  O24      1.0000 0.68310  0.08890  0.35760  Biso   1.000  O
  Co7      1.0000 0.70609  0.00290  0.76684  Biso   1.000  Co
  Co8      1.0000 0.56400  0.08331  0.96985  Biso   1.000  Co
  C31      1.0000 0.76440  0.10460  0.88880  Biso   1.000  C
  C32      1.0000 0.79440  0.17160  0.95580  Biso   1.000  C
  C33      1.0000 0.78700  0.16510  0.05150  Biso   1.000  C
  C34      1.0000 0.74010  0.09220  0.10040  Biso   1.000  C
  C35      1.0000 0.81790  0.23280  0.10420  Biso   1.000  C
  H7       1.0000 0.81630  0.22810  0.16750  Biso   1.000  H
  C36      1.0000 0.85110  0.30750  0.06560  Biso   1.000  C
  C37      1.0000 0.87700  0.37730  0.13150  Biso   1.000  C
  C38      1.0000 0.85430  0.31480  0.97080  Biso   1.000  C
  C39      1.0000 0.87420  0.39650  0.92140  Biso   1.000  C
  C40      1.0000 0.82730  0.24600  0.91720  Biso   1.000  C
  H8       1.0000 0.83140  0.25020  0.85390  Biso   1.000  H
  O25      1.0000 0.82650  0.06670  0.84240  Biso   1.000  O
  O26      1.0000 0.67330  0.09070  0.87500  Biso   1.000  O
  O27      1.0000 0.67020  0.05340  0.06460  Biso   1.000  O
  O28      1.0000 0.77290  0.07580  0.17920  Biso   1.000  O
  O29      1.0000 0.80900  0.39840  0.18340  Biso   1.000  O
  O30      1.0000 0.96170  0.40710  0.13270  Biso   1.000  O
  O31      1.0000 0.94280  0.44550  0.94680  Biso   1.000  O
  O32      1.0000 0.81690  0.41110  0.85760  Biso   1.000  O
  Co9      1.0000 0.79391  0.50290  0.76684  Biso   1.000  Co
  Co10     1.0000 0.93600  0.58331  0.96985  Biso   1.000  Co
  C41      1.0000 0.73560  0.60460  0.88880  Biso   1.000  C
  C42      1.0000 0.70560  0.67160  0.95580  Biso   1.000  C
  C43      1.0000 0.71300  0.66510  0.05150  Biso   1.000  C
  C44      1.0000 0.75990  0.59220  0.10040  Biso   1.000  C
  C45      1.0000 0.68210  0.73280  0.10420  Biso   1.000  C
  H9       1.0000 0.68370  0.72810  0.16750  Biso   1.000  H
  C46      1.0000 0.64890  0.80750  0.06560  Biso   1.000  C
  C47      1.0000 0.62300  0.87730  0.13150  Biso   1.000  C
  C48      1.0000 0.64570  0.81480  0.97080  Biso   1.000  C
  C49      1.0000 0.62580  0.89650  0.92140  Biso   1.000  C
  C50      1.0000 0.67270  0.74600  0.91720  Biso   1.000  C
  H10      1.0000 0.66860  0.75020  0.85390  Biso   1.000  H
  O33      1.0000 0.67350  0.56670  0.84240  Biso   1.000  O
  O34      1.0000 0.82670  0.59070  0.87500  Biso   1.000  O
  O35      1.0000 0.82980  0.55340  0.06460  Biso   1.000  O
  O36      1.0000 0.72710  0.57580  0.17920  Biso   1.000  O
  O37      1.0000 0.69100  0.89840  0.18340  Biso   1.000  O
  O38      1.0000 0.53830  0.90710  0.13270  Biso   1.000  O
  O39      1.0000 0.55720  0.94550  0.94680  Biso   1.000  O
  O40      1.0000 0.68310  0.91110  0.85760  Biso   1.000  O
  Co11     1.0000 0.70609  0.99710  0.26684  Biso   1.000  Co
  Co12     1.0000 0.56400  0.91669  0.46985  Biso   1.000  Co
  C51      1.0000 0.76440  0.89540  0.38880  Biso   1.000  C
  C52      1.0000 0.79440  0.82840  0.45580  Biso   1.000  C
  C53      1.0000 0.78700  0.83490  0.55150  Biso   1.000  C
  C54      1.0000 0.74010  0.90780  0.60040  Biso   1.000  C
  C55      1.0000 0.81790  0.76720  0.60420  Biso   1.000  C
  H11      1.0000 0.81630  0.77190  0.66750  Biso   1.000  H
  C56      1.0000 0.85110  0.69250  0.56560  Biso   1.000  C
  C57      1.0000 0.87700  0.62270  0.63150  Biso   1.000  C
  C58      1.0000 0.85430  0.68520  0.47080  Biso   1.000  C
  C59      1.0000 0.87420  0.60350  0.42140  Biso   1.000  C
  C60      1.0000 0.82730  0.75400  0.41720  Biso   1.000  C
  H12      1.0000 0.83140  0.74980  0.35390  Biso   1.000  H
  O41      1.0000 0.82650  0.93330  0.34240  Biso   1.000  O
  O42      1.0000 0.67330  0.90930  0.37500  Biso   1.000  O
  O43      1.0000 0.67020  0.94660  0.56460  Biso   1.000  O
  O44      1.0000 0.77290  0.92420  0.67920  Biso   1.000  O
  O45      1.0000 0.80900  0.60160  0.68340  Biso   1.000  O
  O46      1.0000 0.96170  0.59290  0.63270  Biso   1.000  O
  O47      1.0000 0.94280  0.55450  0.44680  Biso   1.000  O
  O48      1.0000 0.81690  0.58890  0.35760  Biso   1.000  O
  Co13     1.0000 0.20609  0.50290  0.73316  Biso   1.000  Co
  Co14     1.0000 0.06400  0.58331  0.53015  Biso   1.000  Co
  C61      1.0000 0.26440  0.60460  0.61120  Biso   1.000  C
  C62      1.0000 0.29440  0.67160  0.54420  Biso   1.000  C
  C63      1.0000 0.28700  0.66510  0.44850  Biso   1.000  C
  C64      1.0000 0.24010  0.59220  0.39960  Biso   1.000  C
  C65      1.0000 0.31790  0.73280  0.39580  Biso   1.000  C
  H13      1.0000 0.31630  0.72810  0.33250  Biso   1.000  H
  C66      1.0000 0.35110  0.80750  0.43440  Biso   1.000  C
  C67      1.0000 0.37700  0.87730  0.36850  Biso   1.000  C
  C68      1.0000 0.35430  0.81480  0.52920  Biso   1.000  C
  C69      1.0000 0.37420  0.89650  0.57860  Biso   1.000  C
  C70      1.0000 0.32730  0.74600  0.58280  Biso   1.000  C
  H14      1.0000 0.33140  0.75020  0.64610  Biso   1.000  H
  O49      1.0000 0.32650  0.56670  0.65760  Biso   1.000  O
  O50      1.0000 0.17330  0.59070  0.62500  Biso   1.000  O
  O51      1.0000 0.17020  0.55340  0.43540  Biso   1.000  O
  O52      1.0000 0.27290  0.57580  0.32080  Biso   1.000  O
  O53      1.0000 0.30900  0.89840  0.31660  Biso   1.000  O
  O54      1.0000 0.46170  0.90710  0.36730  Biso   1.000  O
  O55      1.0000 0.44280  0.94550  0.55320  Biso   1.000  O
  O56      1.0000 0.31690  0.91110  0.64240  Biso   1.000  O
  Co15     1.0000 0.29391  0.99710  0.23316  Biso   1.000  Co
  Co16     1.0000 0.43600  0.91669  0.03015  Biso   1.000  Co
  C71      1.0000 0.23560  0.89540  0.11120  Biso   1.000  C
  C72      1.0000 0.20560  0.82840  0.04420  Biso   1.000  C
  C73      1.0000 0.21300  0.83490  0.94850  Biso   1.000  C
  C74      1.0000 0.25990  0.90780  0.89960  Biso   1.000  C
  C75      1.0000 0.18210  0.76720  0.89580  Biso   1.000  C
  H15      1.0000 0.18370  0.77190  0.83250  Biso   1.000  H
  C76      1.0000 0.14890  0.69250  0.93440  Biso   1.000  C
  C77      1.0000 0.12300  0.62270  0.86850  Biso   1.000  C
  C78      1.0000 0.14570  0.68520  0.02920  Biso   1.000  C
  C79      1.0000 0.12580  0.60350  0.07860  Biso   1.000  C
  C80      1.0000 0.17270  0.75400  0.08280  Biso   1.000  C
  H16      1.0000 0.16860  0.74980  0.14610  Biso   1.000  H
  O57      1.0000 0.17350  0.93330  0.15760  Biso   1.000  O
  O58      1.0000 0.32670  0.90930  0.12500  Biso   1.000  O
  O59      1.0000 0.32980  0.94660  0.93540  Biso   1.000  O
  O60      1.0000 0.22710  0.92420  0.82080  Biso   1.000  O
  O61      1.0000 0.19100  0.60160  0.81660  Biso   1.000  O
  O62      1.0000 0.03830  0.59290  0.86730  Biso   1.000  O
  O63      1.0000 0.05720  0.55450  0.05320  Biso   1.000  O
  O64      1.0000 0.18310  0.58890  0.14240  Biso   1.000  O
