data_image0
_cell_length_a       19.576
_cell_length_b       18.535
_cell_length_c       7.8377
_cell_angle_alpha    90
_cell_angle_beta     94.15
_cell_angle_gamma    90

_symmetry_space_group_name_H-M    "P 1"
_symmetry_int_tables_number       1

loop_
  _symmetry_equiv_pos_as_xyz
  'x, y, z'

loop_
  _atom_site_label
  _atom_site_occupancy
  _atom_site_fract_x
  _atom_site_fract_y
  _atom_site_fract_z
  _atom_site_thermal_displace_type
  _atom_site_B_iso_or_equiv
  _atom_site_type_symbol
  Zn1      1.0000 0.35840  0.14483  0.35670  Biso   1.000  Zn
  Zn2      1.0000 0.08590  0.97672  0.36570  Biso   1.000  Zn
  C1       1.0000 0.98480  0.32170  0.97100  Biso   1.000  C
  C2       1.0000 0.04710  0.27880  0.02900  Biso   1.000  C
  C3       1.0000 0.04550  0.21200  0.07600  Biso   1.000  C
  H1       1.0000 0.00340  0.18880  0.06080  Biso   1.000  H
  C4       1.0000 0.10200  0.16920  0.14900  Biso   1.000  C
  C5       1.0000 0.09060  0.09500  0.21700  Biso   1.000  C
  C6       1.0000 0.16060  0.20560  0.15700  Biso   1.000  C
  C7       1.0000 0.22770  0.16310  0.21900  Biso   1.000  C
  C8       1.0000 0.16810  0.28020  0.11600  Biso   1.000  C
  H2       1.0000 0.21050  0.30280  0.13360  Biso   1.000  H
  C9       1.0000 0.11250  0.31740  0.05300  Biso   1.000  C
  C10      1.0000 0.12260  0.39660  0.00300  Biso   1.000  C
  O1       1.0000 0.93440  0.28210  0.92450  Biso   1.000  O
  O2       1.0000 0.98200  0.39050  0.97980  Biso   1.000  O
  O3       1.0000 0.11760  0.41170  0.84650  Biso   1.000  O
  O4       1.0000 0.13190  0.43900  0.11070  Biso   1.000  O
  O5       1.0000 0.07760  0.04410  0.10630  Biso   1.000  O
  O6       1.0000 0.08950  0.08870  0.36300  Biso   1.000  O
  O7       1.0000 0.22710  0.10430  0.20350  Biso   1.000  O
  O8       1.0000 0.28110  0.20490  0.28160  Biso   1.000  O
  Zn3      1.0000 0.85840  0.64483  0.35670  Biso   1.000  Zn
  Zn4      1.0000 0.58590  0.47672  0.36570  Biso   1.000  Zn
  C11      1.0000 0.48480  0.82170  0.97100  Biso   1.000  C
  C12      1.0000 0.54710  0.77880  0.02900  Biso   1.000  C
  C13      1.0000 0.54550  0.71200  0.07600  Biso   1.000  C
  H3       1.0000 0.50340  0.68880  0.06080  Biso   1.000  H
  C14      1.0000 0.60200  0.66920  0.14900  Biso   1.000  C
  C15      1.0000 0.59060  0.59500  0.21700  Biso   1.000  C
  C16      1.0000 0.66060  0.70560  0.15700  Biso   1.000  C
  C17      1.0000 0.72770  0.66310  0.21900  Biso   1.000  C
  C18      1.0000 0.66810  0.78020  0.11600  Biso   1.000  C
  H4       1.0000 0.71050  0.80280  0.13360  Biso   1.000  H
  C19      1.0000 0.61250  0.81740  0.05300  Biso   1.000  C
  C20      1.0000 0.62260  0.89660  0.00300  Biso   1.000  C
  O9       1.0000 0.43440  0.78210  0.92450  Biso   1.000  O
  O10      1.0000 0.48200  0.89050  0.97980  Biso   1.000  O
  O11      1.0000 0.61760  0.91170  0.84650  Biso   1.000  O
  O12      1.0000 0.63190  0.93900  0.11070  Biso   1.000  O
  O13      1.0000 0.57760  0.54410  0.10630  Biso   1.000  O
  O14      1.0000 0.58950  0.58870  0.36300  Biso   1.000  O
  O15      1.0000 0.72710  0.60430  0.20350  Biso   1.000  O
  O16      1.0000 0.78110  0.70490  0.28160  Biso   1.000  O
  Zn5      1.0000 0.64160  0.14483  0.14330  Biso   1.000  Zn
  Zn6      1.0000 0.91410  0.97672  0.13430  Biso   1.000  Zn
  C21      1.0000 0.01520  0.32170  0.52900  Biso   1.000  C
  C22      1.0000 0.95290  0.27880  0.47100  Biso   1.000  C
  C23      1.0000 0.95450  0.21200  0.42400  Biso   1.000  C
  H5       1.0000 0.99660  0.18880  0.43920  Biso   1.000  H
  C24      1.0000 0.89800  0.16920  0.35100  Biso   1.000  C
  C25      1.0000 0.90940  0.09500  0.28300  Biso   1.000  C
  C26      1.0000 0.83940  0.20560  0.34300  Biso   1.000  C
  C27      1.0000 0.77230  0.16310  0.28100  Biso   1.000  C
  C28      1.0000 0.83190  0.28020  0.38400  Biso   1.000  C
  H6       1.0000 0.78950  0.30280  0.36640  Biso   1.000  H
  C29      1.0000 0.88750  0.31740  0.44700  Biso   1.000  C
  C30      1.0000 0.87740  0.39660  0.49700  Biso   1.000  C
  O17      1.0000 0.06560  0.28210  0.57550  Biso   1.000  O
  O18      1.0000 0.01800  0.39050  0.52020  Biso   1.000  O
  O19      1.0000 0.88240  0.41170  0.65350  Biso   1.000  O
  O20      1.0000 0.86810  0.43900  0.38930  Biso   1.000  O
  O21      1.0000 0.92240  0.04410  0.39370  Biso   1.000  O
  O22      1.0000 0.91050  0.08870  0.13700  Biso   1.000  O
  O23      1.0000 0.77290  0.10430  0.29650  Biso   1.000  O
  O24      1.0000 0.71890  0.20490  0.21840  Biso   1.000  O
  Zn7      1.0000 0.14160  0.64483  0.14330  Biso   1.000  Zn
  Zn8      1.0000 0.41410  0.47672  0.13430  Biso   1.000  Zn
  C31      1.0000 0.51520  0.82170  0.52900  Biso   1.000  C
  C32      1.0000 0.45290  0.77880  0.47100  Biso   1.000  C
  C33      1.0000 0.45450  0.71200  0.42400  Biso   1.000  C
  H7       1.0000 0.49660  0.68880  0.43920  Biso   1.000  H
  C34      1.0000 0.39800  0.66920  0.35100  Biso   1.000  C
  C35      1.0000 0.40940  0.59500  0.28300  Biso   1.000  C
  C36      1.0000 0.33940  0.70560  0.34300  Biso   1.000  C
  C37      1.0000 0.27230  0.66310  0.28100  Biso   1.000  C
  C38      1.0000 0.33190  0.78020  0.38400  Biso   1.000  C
  H8       1.0000 0.28950  0.80280  0.36640  Biso   1.000  H
  C39      1.0000 0.38750  0.81740  0.44700  Biso   1.000  C
  C40      1.0000 0.37740  0.89660  0.49700  Biso   1.000  C
  O25      1.0000 0.56560  0.78210  0.57550  Biso   1.000  O
  O26      1.0000 0.51800  0.89050  0.52020  Biso   1.000  O
  O27      1.0000 0.38240  0.91170  0.65350  Biso   1.000  O
  O28      1.0000 0.36810  0.93900  0.38930  Biso   1.000  O
  O29      1.0000 0.42240  0.54410  0.39370  Biso   1.000  O
  O30      1.0000 0.41050  0.58870  0.13700  Biso   1.000  O
  O31      1.0000 0.27290  0.60430  0.29650  Biso   1.000  O
  O32      1.0000 0.21890  0.70490  0.21840  Biso   1.000  O
  Zn9      1.0000 0.64160  0.85517  0.64330  Biso   1.000  Zn
  Zn10     1.0000 0.91410  0.02328  0.63430  Biso   1.000  Zn
  C41      1.0000 0.01520  0.67830  0.02900  Biso   1.000  C
  C42      1.0000 0.95290  0.72120  0.97100  Biso   1.000  C
  C43      1.0000 0.95450  0.78800  0.92400  Biso   1.000  C
  H9       1.0000 0.99660  0.81120  0.93920  Biso   1.000  H
  C44      1.0000 0.89800  0.83080  0.85100  Biso   1.000  C
  C45      1.0000 0.90940  0.90500  0.78300  Biso   1.000  C
  C46      1.0000 0.83940  0.79440  0.84300  Biso   1.000  C
  C47      1.0000 0.77230  0.83690  0.78100  Biso   1.000  C
  C48      1.0000 0.83190  0.71980  0.88400  Biso   1.000  C
  H10      1.0000 0.78950  0.69720  0.86640  Biso   1.000  H
  C49      1.0000 0.88750  0.68260  0.94700  Biso   1.000  C
  C50      1.0000 0.87740  0.60340  0.99700  Biso   1.000  C
  O33      1.0000 0.06560  0.71790  0.07550  Biso   1.000  O
  O34      1.0000 0.01800  0.60950  0.02020  Biso   1.000  O
  O35      1.0000 0.88240  0.58830  0.15350  Biso   1.000  O
  O36      1.0000 0.86810  0.56100  0.88930  Biso   1.000  O
  O37      1.0000 0.92240  0.95590  0.89370  Biso   1.000  O
  O38      1.0000 0.91050  0.91130  0.63700  Biso   1.000  O
  O39      1.0000 0.77290  0.89570  0.79650  Biso   1.000  O
  O40      1.0000 0.71890  0.79510  0.71840  Biso   1.000  O
  Zn11     1.0000 0.14160  0.35517  0.64330  Biso   1.000  Zn
  Zn12     1.0000 0.41410  0.52328  0.63430  Biso   1.000  Zn
  C51      1.0000 0.51520  0.17830  0.02900  Biso   1.000  C
  C52      1.0000 0.45290  0.22120  0.97100  Biso   1.000  C
  C53      1.0000 0.45450  0.28800  0.92400  Biso   1.000  C
  H11      1.0000 0.49660  0.31120  0.93920  Biso   1.000  H
  C54      1.0000 0.39800  0.33080  0.85100  Biso   1.000  C
  C55      1.0000 0.40940  0.40500  0.78300  Biso   1.000  C
  C56      1.0000 0.33940  0.29440  0.84300  Biso   1.000  C
  C57      1.0000 0.27230  0.33690  0.78100  Biso   1.000  C
  C58      1.0000 0.33190  0.21980  0.88400  Biso   1.000  C
  H12      1.0000 0.28950  0.19720  0.86640  Biso   1.000  H
  C59      1.0000 0.38750  0.18260  0.94700  Biso   1.000  C
  C60      1.0000 0.37740  0.10340  0.99700  Biso   1.000  C
  O41      1.0000 0.56560  0.21790  0.07550  Biso   1.000  O
  O42      1.0000 0.51800  0.10950  0.02020  Biso   1.000  O
  O43      1.0000 0.38240  0.08830  0.15350  Biso   1.000  O
  O44      1.0000 0.36810  0.06100  0.88930  Biso   1.000  O
  O45      1.0000 0.42240  0.45590  0.89370  Biso   1.000  O
  O46      1.0000 0.41050  0.41130  0.63700  Biso   1.000  O
  O47      1.0000 0.27290  0.39570  0.79650  Biso   1.000  O
  O48      1.0000 0.21890  0.29510  0.71840  Biso   1.000  O
  Zn13     1.0000 0.35840  0.85517  0.85670  Biso   1.000  Zn
  Zn14     1.0000 0.08590  0.02328  0.86570  Biso   1.000  Zn
  C61      1.0000 0.98480  0.67830  0.47100  Biso   1.000  C
  C62      1.0000 0.04710  0.72120  0.52900  Biso   1.000  C
  C63      1.0000 0.04550  0.78800  0.57600  Biso   1.000  C
  H13      1.0000 0.00340  0.81120  0.56080  Biso   1.000  H
  C64      1.0000 0.10200  0.83080  0.64900  Biso   1.000  C
  C65      1.0000 0.09060  0.90500  0.71700  Biso   1.000  C
  C66      1.0000 0.16060  0.79440  0.65700  Biso   1.000  C
  C67      1.0000 0.22770  0.83690  0.71900  Biso   1.000  C
  C68      1.0000 0.16810  0.71980  0.61600  Biso   1.000  C
  H14      1.0000 0.21050  0.69720  0.63360  Biso   1.000  H
  C69      1.0000 0.11250  0.68260  0.55300  Biso   1.000  C
  C70      1.0000 0.12260  0.60340  0.50300  Biso   1.000  C
  O49      1.0000 0.93440  0.71790  0.42450  Biso   1.000  O
  O50      1.0000 0.98200  0.60950  0.47980  Biso   1.000  O
  O51      1.0000 0.11760  0.58830  0.34650  Biso   1.000  O
  O52      1.0000 0.13190  0.56100  0.61070  Biso   1.000  O
  O53      1.0000 0.07760  0.95590  0.60630  Biso   1.000  O
  O54      1.0000 0.08950  0.91130  0.86300  Biso   1.000  O
  O55      1.0000 0.22710  0.89570  0.70350  Biso   1.000  O
  O56      1.0000 0.28110  0.79510  0.78160  Biso   1.000  O
  Zn15     1.0000 0.85840  0.35517  0.85670  Biso   1.000  Zn
  Zn16     1.0000 0.58590  0.52328  0.86570  Biso   1.000  Zn
  C71      1.0000 0.48480  0.17830  0.47100  Biso   1.000  C
  C72      1.0000 0.54710  0.22120  0.52900  Biso   1.000  C
  C73      1.0000 0.54550  0.28800  0.57600  Biso   1.000  C
  H15      1.0000 0.50340  0.31120  0.56080  Biso   1.000  H
  C74      1.0000 0.60200  0.33080  0.64900  Biso   1.000  C
  C75      1.0000 0.59060  0.40500  0.71700  Biso   1.000  C
  C76      1.0000 0.66060  0.29440  0.65700  Biso   1.000  C
  C77      1.0000 0.72770  0.33690  0.71900  Biso   1.000  C
  C78      1.0000 0.66810  0.21980  0.61600  Biso   1.000  C
  H16      1.0000 0.71050  0.19720  0.63360  Biso   1.000  H
  C79      1.0000 0.61250  0.18260  0.55300  Biso   1.000  C
  C80      1.0000 0.62260  0.10340  0.50300  Biso   1.000  C
  O57      1.0000 0.43440  0.21790  0.42450  Biso   1.000  O
  O58      1.0000 0.48200  0.10950  0.47980  Biso   1.000  O
  O59      1.0000 0.61760  0.08830  0.34650  Biso   1.000  O
  O60      1.0000 0.63190  0.06100  0.61070  Biso   1.000  O
  O61      1.0000 0.57760  0.45590  0.60630  Biso   1.000  O
  O62      1.0000 0.58950  0.41130  0.86300  Biso   1.000  O
  O63      1.0000 0.72710  0.39570  0.70350  Biso   1.000  O
  O64      1.0000 0.78110  0.29510  0.78160  Biso   1.000  O
