data_image0
_cell_length_a       20.2663
_cell_length_b       20.2663
_cell_length_c       20.2663
_cell_angle_alpha    90
_cell_angle_beta     90
_cell_angle_gamma    90

_symmetry_space_group_name_H-M    "P 1"
_symmetry_int_tables_number       1

loop_
  _symmetry_equiv_pos_as_xyz
  'x, y, z'

loop_
  _atom_site_label
  _atom_site_occupancy
  _atom_site_fract_x
  _atom_site_fract_y
  _atom_site_fract_z
  _atom_site_thermal_displace_type
  _atom_site_B_iso_or_equiv
  _atom_site_type_symbol
  Eu1      1.0000 0.25777  0.14551  0.52011  Biso   1.000  Eu
  O1       1.0000 0.28910  0.08740  0.62370  Biso   1.000  O
  O2       1.0000 0.20295  0.03370  0.66760  Biso   1.000  O
  O3       1.0000 0.28250  0.91770  0.92380  Biso   1.000  O
  O4       1.0000 0.19653  0.93580  0.85654  Biso   1.000  O
  N1       1.0000 0.27000  0.99490  0.76920  Biso   1.000  N
  C1       1.0000 0.26290  0.05150  0.66570  Biso   1.000  C
  C2       1.0000 0.30600  0.02570  0.72190  Biso   1.000  C
  C3       1.0000 0.37310  0.03150  0.72470  Biso   1.000  C
  H1       1.0000 0.39680  0.05240  0.69000  Biso   1.000  H
  C4       1.0000 0.40580  0.00620  0.77910  Biso   1.000  C
  H2       1.0000 0.45240  0.01000  0.78250  Biso   1.000  H
  C5       1.0000 0.37000  0.97530  0.82870  Biso   1.000  C
  H3       1.0000 0.39140  0.95700  0.86620  Biso   1.000  H
  C6       1.0000 0.30200  0.97190  0.82170  Biso   1.000  C
  C7       1.0000 0.25800  0.93960  0.87180  Biso   1.000  C
  Eu2      1.0000 0.24223  0.85449  0.02011  Biso   1.000  Eu
  O5       1.0000 0.21090  0.91260  0.12370  Biso   1.000  O
  O6       1.0000 0.29705  0.96630  0.16760  Biso   1.000  O
  O7       1.0000 0.21750  0.08230  0.42380  Biso   1.000  O
  O8       1.0000 0.30347  0.06420  0.35654  Biso   1.000  O
  N2       1.0000 0.23000  0.00510  0.26920  Biso   1.000  N
  C8       1.0000 0.23710  0.94850  0.16570  Biso   1.000  C
  C9       1.0000 0.19400  0.97430  0.22190  Biso   1.000  C
  C10      1.0000 0.12690  0.96850  0.22470  Biso   1.000  C
  H4       1.0000 0.10320  0.94760  0.19000  Biso   1.000  H
  C11      1.0000 0.09420  0.99380  0.27910  Biso   1.000  C
  H5       1.0000 0.04760  0.99000  0.28250  Biso   1.000  H
  C12      1.0000 0.13000  0.02470  0.32870  Biso   1.000  C
  H6       1.0000 0.10860  0.04300  0.36620  Biso   1.000  H
  C13      1.0000 0.19800  0.02810  0.32170  Biso   1.000  C
  C14      1.0000 0.24200  0.06040  0.37180  Biso   1.000  C
  Eu3      1.0000 0.74223  0.64551  0.97989  Biso   1.000  Eu
  O9       1.0000 0.71090  0.58740  0.87630  Biso   1.000  O
  O10      1.0000 0.79705  0.53370  0.83240  Biso   1.000  O
  O11      1.0000 0.71750  0.41770  0.57620  Biso   1.000  O
  O12      1.0000 0.80347  0.43580  0.64346  Biso   1.000  O
  N3       1.0000 0.73000  0.49490  0.73080  Biso   1.000  N
  C15      1.0000 0.73710  0.55150  0.83430  Biso   1.000  C
  C16      1.0000 0.69400  0.52570  0.77810  Biso   1.000  C
  C17      1.0000 0.62690  0.53150  0.77530  Biso   1.000  C
  H7       1.0000 0.60320  0.55240  0.81000  Biso   1.000  H
  C18      1.0000 0.59420  0.50620  0.72090  Biso   1.000  C
  H8       1.0000 0.54760  0.51000  0.71750  Biso   1.000  H
  C19      1.0000 0.63000  0.47530  0.67130  Biso   1.000  C
  H9       1.0000 0.60860  0.45700  0.63380  Biso   1.000  H
  C20      1.0000 0.69800  0.47190  0.67830  Biso   1.000  C
  C21      1.0000 0.74200  0.43960  0.62820  Biso   1.000  C
  Eu4      1.0000 0.75777  0.35449  0.47989  Biso   1.000  Eu
  O13      1.0000 0.78910  0.41260  0.37630  Biso   1.000  O
  O14      1.0000 0.70295  0.46630  0.33240  Biso   1.000  O
  O15      1.0000 0.78250  0.58230  0.07620  Biso   1.000  O
  O16      1.0000 0.69653  0.56420  0.14346  Biso   1.000  O
  N4       1.0000 0.77000  0.50510  0.23080  Biso   1.000  N
  C22      1.0000 0.76290  0.44850  0.33430  Biso   1.000  C
  C23      1.0000 0.80600  0.47430  0.27810  Biso   1.000  C
  C24      1.0000 0.87310  0.46850  0.27530  Biso   1.000  C
  H10      1.0000 0.89680  0.44760  0.31000  Biso   1.000  H
  C25      1.0000 0.90580  0.49380  0.22090  Biso   1.000  C
  H11      1.0000 0.95240  0.49000  0.21750  Biso   1.000  H
  C26      1.0000 0.87000  0.52470  0.17130  Biso   1.000  C
  H12      1.0000 0.89140  0.54300  0.13380  Biso   1.000  H
  C27      1.0000 0.80200  0.52810  0.17830  Biso   1.000  C
  C28      1.0000 0.75800  0.56040  0.12820  Biso   1.000  C
  Eu5      1.0000 0.52011  0.25777  0.14551  Biso   1.000  Eu
  O17      1.0000 0.62370  0.28910  0.08740  Biso   1.000  O
  O18      1.0000 0.66760  0.20295  0.03370  Biso   1.000  O
  O19      1.0000 0.92380  0.28250  0.91770  Biso   1.000  O
  O20      1.0000 0.85654  0.19653  0.93580  Biso   1.000  O
  N5       1.0000 0.76920  0.27000  0.99490  Biso   1.000  N
  C29      1.0000 0.66570  0.26290  0.05150  Biso   1.000  C
  C30      1.0000 0.72190  0.30600  0.02570  Biso   1.000  C
  C31      1.0000 0.72470  0.37310  0.03150  Biso   1.000  C
  H13      1.0000 0.69000  0.39680  0.05240  Biso   1.000  H
  C32      1.0000 0.77910  0.40580  0.00620  Biso   1.000  C
  H14      1.0000 0.78250  0.45240  0.01000  Biso   1.000  H
  C33      1.0000 0.82870  0.37000  0.97530  Biso   1.000  C
  H15      1.0000 0.86620  0.39140  0.95700  Biso   1.000  H
  C34      1.0000 0.82170  0.30200  0.97190  Biso   1.000  C
  C35      1.0000 0.87180  0.25800  0.93960  Biso   1.000  C
  Eu6      1.0000 0.02011  0.24223  0.85449  Biso   1.000  Eu
  O21      1.0000 0.12370  0.21090  0.91260  Biso   1.000  O
  O22      1.0000 0.16760  0.29705  0.96630  Biso   1.000  O
  O23      1.0000 0.42380  0.21750  0.08230  Biso   1.000  O
  O24      1.0000 0.35654  0.30347  0.06420  Biso   1.000  O
  N6       1.0000 0.26920  0.23000  0.00510  Biso   1.000  N
  C36      1.0000 0.16570  0.23710  0.94850  Biso   1.000  C
  C37      1.0000 0.22190  0.19400  0.97430  Biso   1.000  C
  C38      1.0000 0.22470  0.12690  0.96850  Biso   1.000  C
  H16      1.0000 0.19000  0.10320  0.94760  Biso   1.000  H
  C39      1.0000 0.27910  0.09420  0.99380  Biso   1.000  C
  H17      1.0000 0.28250  0.04760  0.99000  Biso   1.000  H
  C40      1.0000 0.32870  0.13000  0.02470  Biso   1.000  C
  H18      1.0000 0.36620  0.10860  0.04300  Biso   1.000  H
  C41      1.0000 0.32170  0.19800  0.02810  Biso   1.000  C
  C42      1.0000 0.37180  0.24200  0.06040  Biso   1.000  C
  Eu7      1.0000 0.97989  0.74223  0.64551  Biso   1.000  Eu
  O25      1.0000 0.87630  0.71090  0.58740  Biso   1.000  O
  O26      1.0000 0.83240  0.79705  0.53370  Biso   1.000  O
  O27      1.0000 0.57620  0.71750  0.41770  Biso   1.000  O
  O28      1.0000 0.64346  0.80347  0.43580  Biso   1.000  O
  N7       1.0000 0.73080  0.73000  0.49490  Biso   1.000  N
  C43      1.0000 0.83430  0.73710  0.55150  Biso   1.000  C
  C44      1.0000 0.77810  0.69400  0.52570  Biso   1.000  C
  C45      1.0000 0.77530  0.62690  0.53150  Biso   1.000  C
  H19      1.0000 0.81000  0.60320  0.55240  Biso   1.000  H
  C46      1.0000 0.72090  0.59420  0.50620  Biso   1.000  C
  H20      1.0000 0.71750  0.54760  0.51000  Biso   1.000  H
  C47      1.0000 0.67130  0.63000  0.47530  Biso   1.000  C
  H21      1.0000 0.63380  0.60860  0.45700  Biso   1.000  H
  C48      1.0000 0.67830  0.69800  0.47190  Biso   1.000  C
  C49      1.0000 0.62820  0.74200  0.43960  Biso   1.000  C
  Eu8      1.0000 0.47989  0.75777  0.35449  Biso   1.000  Eu
  O29      1.0000 0.37630  0.78910  0.41260  Biso   1.000  O
  O30      1.0000 0.33240  0.70295  0.46630  Biso   1.000  O
  O31      1.0000 0.07620  0.78250  0.58230  Biso   1.000  O
  O32      1.0000 0.14346  0.69653  0.56420  Biso   1.000  O
  N8       1.0000 0.23080  0.77000  0.50510  Biso   1.000  N
  C50      1.0000 0.33430  0.76290  0.44850  Biso   1.000  C
  C51      1.0000 0.27810  0.80600  0.47430  Biso   1.000  C
  C52      1.0000 0.27530  0.87310  0.46850  Biso   1.000  C
  H22      1.0000 0.31000  0.89680  0.44760  Biso   1.000  H
  C53      1.0000 0.22090  0.90580  0.49380  Biso   1.000  C
  H23      1.0000 0.21750  0.95240  0.49000  Biso   1.000  H
  C54      1.0000 0.17130  0.87000  0.52470  Biso   1.000  C
  H24      1.0000 0.13380  0.89140  0.54300  Biso   1.000  H
  C55      1.0000 0.17830  0.80200  0.52810  Biso   1.000  C
  C56      1.0000 0.12820  0.75800  0.56040  Biso   1.000  C
  Eu9      1.0000 0.14551  0.52011  0.25777  Biso   1.000  Eu
  O33      1.0000 0.08740  0.62370  0.28910  Biso   1.000  O
  O34      1.0000 0.03370  0.66760  0.20295  Biso   1.000  O
  O35      1.0000 0.91770  0.92380  0.28250  Biso   1.000  O
  O36      1.0000 0.93580  0.85654  0.19653  Biso   1.000  O
  N9       1.0000 0.99490  0.76920  0.27000  Biso   1.000  N
  C57      1.0000 0.05150  0.66570  0.26290  Biso   1.000  C
  C58      1.0000 0.02570  0.72190  0.30600  Biso   1.000  C
  C59      1.0000 0.03150  0.72470  0.37310  Biso   1.000  C
  H25      1.0000 0.05240  0.69000  0.39680  Biso   1.000  H
  C60      1.0000 0.00620  0.77910  0.40580  Biso   1.000  C
  H26      1.0000 0.01000  0.78250  0.45240  Biso   1.000  H
  C61      1.0000 0.97530  0.82870  0.37000  Biso   1.000  C
  H27      1.0000 0.95700  0.86620  0.39140  Biso   1.000  H
  C62      1.0000 0.97190  0.82170  0.30200  Biso   1.000  C
  C63      1.0000 0.93960  0.87180  0.25800  Biso   1.000  C
  Eu10     1.0000 0.85449  0.02011  0.24223  Biso   1.000  Eu
  O37      1.0000 0.91260  0.12370  0.21090  Biso   1.000  O
  O38      1.0000 0.96630  0.16760  0.29705  Biso   1.000  O
  O39      1.0000 0.08230  0.42380  0.21750  Biso   1.000  O
  O40      1.0000 0.06420  0.35654  0.30347  Biso   1.000  O
  N10      1.0000 0.00510  0.26920  0.23000  Biso   1.000  N
  C64      1.0000 0.94850  0.16570  0.23710  Biso   1.000  C
  C65      1.0000 0.97430  0.22190  0.19400  Biso   1.000  C
  C66      1.0000 0.96850  0.22470  0.12690  Biso   1.000  C
  H28      1.0000 0.94760  0.19000  0.10320  Biso   1.000  H
  C67      1.0000 0.99380  0.27910  0.09420  Biso   1.000  C
  H29      1.0000 0.99000  0.28250  0.04760  Biso   1.000  H
  C68      1.0000 0.02470  0.32870  0.13000  Biso   1.000  C
  H30      1.0000 0.04300  0.36620  0.10860  Biso   1.000  H
  C69      1.0000 0.02810  0.32170  0.19800  Biso   1.000  C
  C70      1.0000 0.06040  0.37180  0.24200  Biso   1.000  C
  Eu11     1.0000 0.64551  0.97989  0.74223  Biso   1.000  Eu
  O41      1.0000 0.58740  0.87630  0.71090  Biso   1.000  O
  O42      1.0000 0.53370  0.83240  0.79705  Biso   1.000  O
  O43      1.0000 0.41770  0.57620  0.71750  Biso   1.000  O
  O44      1.0000 0.43580  0.64346  0.80347  Biso   1.000  O
  N11      1.0000 0.49490  0.73080  0.73000  Biso   1.000  N
  C71      1.0000 0.55150  0.83430  0.73710  Biso   1.000  C
  C72      1.0000 0.52570  0.77810  0.69400  Biso   1.000  C
  C73      1.0000 0.53150  0.77530  0.62690  Biso   1.000  C
  H31      1.0000 0.55240  0.81000  0.60320  Biso   1.000  H
  C74      1.0000 0.50620  0.72090  0.59420  Biso   1.000  C
  H32      1.0000 0.51000  0.71750  0.54760  Biso   1.000  H
  C75      1.0000 0.47530  0.67130  0.63000  Biso   1.000  C
  H33      1.0000 0.45700  0.63380  0.60860  Biso   1.000  H
  C76      1.0000 0.47190  0.67830  0.69800  Biso   1.000  C
  C77      1.0000 0.43960  0.62820  0.74200  Biso   1.000  C
  Eu12     1.0000 0.35449  0.47989  0.75777  Biso   1.000  Eu
  O45      1.0000 0.41260  0.37630  0.78910  Biso   1.000  O
  O46      1.0000 0.46630  0.33240  0.70295  Biso   1.000  O
  O47      1.0000 0.58230  0.07620  0.78250  Biso   1.000  O
  O48      1.0000 0.56420  0.14346  0.69653  Biso   1.000  O
  N12      1.0000 0.50510  0.23080  0.77000  Biso   1.000  N
  C78      1.0000 0.44850  0.33430  0.76290  Biso   1.000  C
  C79      1.0000 0.47430  0.27810  0.80600  Biso   1.000  C
  C80      1.0000 0.46850  0.27530  0.87310  Biso   1.000  C
  H34      1.0000 0.44760  0.31000  0.89680  Biso   1.000  H
  C81      1.0000 0.49380  0.22090  0.90580  Biso   1.000  C
  H35      1.0000 0.49000  0.21750  0.95240  Biso   1.000  H
  C82      1.0000 0.52470  0.17130  0.87000  Biso   1.000  C
  H36      1.0000 0.54300  0.13380  0.89140  Biso   1.000  H
  C83      1.0000 0.52810  0.17830  0.80200  Biso   1.000  C
  C84      1.0000 0.56040  0.12820  0.75800  Biso   1.000  C
  Eu13     1.0000 0.74223  0.85449  0.47989  Biso   1.000  Eu
  O49      1.0000 0.71090  0.91260  0.37630  Biso   1.000  O
  O50      1.0000 0.79705  0.96630  0.33240  Biso   1.000  O
  O51      1.0000 0.71750  0.08230  0.07620  Biso   1.000  O
  O52      1.0000 0.80347  0.06420  0.14346  Biso   1.000  O
  N13      1.0000 0.73000  0.00510  0.23080  Biso   1.000  N
  C85      1.0000 0.73710  0.94850  0.33430  Biso   1.000  C
  C86      1.0000 0.69400  0.97430  0.27810  Biso   1.000  C
  C87      1.0000 0.62690  0.96850  0.27530  Biso   1.000  C
  H37      1.0000 0.60320  0.94760  0.31000  Biso   1.000  H
  C88      1.0000 0.59420  0.99380  0.22090  Biso   1.000  C
  H38      1.0000 0.54760  0.99000  0.21750  Biso   1.000  H
  C89      1.0000 0.63000  0.02470  0.17130  Biso   1.000  C
  H39      1.0000 0.60860  0.04300  0.13380  Biso   1.000  H
  C90      1.0000 0.69800  0.02810  0.17830  Biso   1.000  C
  C91      1.0000 0.74200  0.06040  0.12820  Biso   1.000  C
  Eu14     1.0000 0.75777  0.14551  0.97989  Biso   1.000  Eu
  O53      1.0000 0.78910  0.08740  0.87630  Biso   1.000  O
  O54      1.0000 0.70295  0.03370  0.83240  Biso   1.000  O
  O55      1.0000 0.78250  0.91770  0.57620  Biso   1.000  O
  O56      1.0000 0.69653  0.93580  0.64346  Biso   1.000  O
  N14      1.0000 0.77000  0.99490  0.73080  Biso   1.000  N
  C92      1.0000 0.76290  0.05150  0.83430  Biso   1.000  C
  C93      1.0000 0.80600  0.02570  0.77810  Biso   1.000  C
  C94      1.0000 0.87310  0.03150  0.77530  Biso   1.000  C
  H40      1.0000 0.89680  0.05240  0.81000  Biso   1.000  H
  C95      1.0000 0.90580  0.00620  0.72090  Biso   1.000  C
  H41      1.0000 0.95240  0.01000  0.71750  Biso   1.000  H
  C96      1.0000 0.87000  0.97530  0.67130  Biso   1.000  C
  H42      1.0000 0.89140  0.95700  0.63380  Biso   1.000  H
  C97      1.0000 0.80200  0.97190  0.67830  Biso   1.000  C
  C98      1.0000 0.75800  0.93960  0.62820  Biso   1.000  C
  Eu15     1.0000 0.25777  0.35449  0.02011  Biso   1.000  Eu
  O57      1.0000 0.28910  0.41260  0.12370  Biso   1.000  O
  O58      1.0000 0.20295  0.46630  0.16760  Biso   1.000  O
  O59      1.0000 0.28250  0.58230  0.42380  Biso   1.000  O
  O60      1.0000 0.19653  0.56420  0.35654  Biso   1.000  O
  N15      1.0000 0.27000  0.50510  0.26920  Biso   1.000  N
  C99      1.0000 0.26290  0.44850  0.16570  Biso   1.000  C
  C100     1.0000 0.30600  0.47430  0.22190  Biso   1.000  C
  C101     1.0000 0.37310  0.46850  0.22470  Biso   1.000  C
  H43      1.0000 0.39680  0.44760  0.19000  Biso   1.000  H
  C102     1.0000 0.40580  0.49380  0.27910  Biso   1.000  C
  H44      1.0000 0.45240  0.49000  0.28250  Biso   1.000  H
  C103     1.0000 0.37000  0.52470  0.32870  Biso   1.000  C
  H45      1.0000 0.39140  0.54300  0.36620  Biso   1.000  H
  C104     1.0000 0.30200  0.52810  0.32170  Biso   1.000  C
  C105     1.0000 0.25800  0.56040  0.37180  Biso   1.000  C
  Eu16     1.0000 0.24223  0.64551  0.52011  Biso   1.000  Eu
  O61      1.0000 0.21090  0.58740  0.62370  Biso   1.000  O
  O62      1.0000 0.29705  0.53370  0.66760  Biso   1.000  O
  O63      1.0000 0.21750  0.41770  0.92380  Biso   1.000  O
  O64      1.0000 0.30347  0.43580  0.85654  Biso   1.000  O
  N16      1.0000 0.23000  0.49490  0.76920  Biso   1.000  N
  C106     1.0000 0.23710  0.55150  0.66570  Biso   1.000  C
  C107     1.0000 0.19400  0.52570  0.72190  Biso   1.000  C
  C108     1.0000 0.12690  0.53150  0.72470  Biso   1.000  C
  H46      1.0000 0.10320  0.55240  0.69000  Biso   1.000  H
  C109     1.0000 0.09420  0.50620  0.77910  Biso   1.000  C
  H47      1.0000 0.04760  0.51000  0.78250  Biso   1.000  H
  C110     1.0000 0.13000  0.47530  0.82870  Biso   1.000  C
  H48      1.0000 0.10860  0.45700  0.86620  Biso   1.000  H
  C111     1.0000 0.19800  0.47190  0.82170  Biso   1.000  C
  C112     1.0000 0.24200  0.43960  0.87180  Biso   1.000  C
  Eu17     1.0000 0.47989  0.74223  0.85449  Biso   1.000  Eu
  O65      1.0000 0.37630  0.71090  0.91260  Biso   1.000  O
  O66      1.0000 0.33240  0.79705  0.96630  Biso   1.000  O
  O67      1.0000 0.07620  0.71750  0.08230  Biso   1.000  O
  O68      1.0000 0.14346  0.80347  0.06420  Biso   1.000  O
  N17      1.0000 0.23080  0.73000  0.00510  Biso   1.000  N
  C113     1.0000 0.33430  0.73710  0.94850  Biso   1.000  C
  C114     1.0000 0.27810  0.69400  0.97430  Biso   1.000  C
  C115     1.0000 0.27530  0.62690  0.96850  Biso   1.000  C
  H49      1.0000 0.31000  0.60320  0.94760  Biso   1.000  H
  C116     1.0000 0.22090  0.59420  0.99380  Biso   1.000  C
  H50      1.0000 0.21750  0.54760  0.99000  Biso   1.000  H
  C117     1.0000 0.17130  0.63000  0.02470  Biso   1.000  C
  H51      1.0000 0.13380  0.60860  0.04300  Biso   1.000  H
  C118     1.0000 0.17830  0.69800  0.02810  Biso   1.000  C
  C119     1.0000 0.12820  0.74200  0.06040  Biso   1.000  C
  Eu18     1.0000 0.97989  0.75777  0.14551  Biso   1.000  Eu
  O69      1.0000 0.87630  0.78910  0.08740  Biso   1.000  O
  O70      1.0000 0.83240  0.70295  0.03370  Biso   1.000  O
  O71      1.0000 0.57620  0.78250  0.91770  Biso   1.000  O
  O72      1.0000 0.64346  0.69653  0.93580  Biso   1.000  O
  N18      1.0000 0.73080  0.77000  0.99490  Biso   1.000  N
  C120     1.0000 0.83430  0.76290  0.05150  Biso   1.000  C
  C121     1.0000 0.77810  0.80600  0.02570  Biso   1.000  C
  C122     1.0000 0.77530  0.87310  0.03150  Biso   1.000  C
  H52      1.0000 0.81000  0.89680  0.05240  Biso   1.000  H
  C123     1.0000 0.72090  0.90580  0.00620  Biso   1.000  C
  H53      1.0000 0.71750  0.95240  0.01000  Biso   1.000  H
  C124     1.0000 0.67130  0.87000  0.97530  Biso   1.000  C
  H54      1.0000 0.63380  0.89140  0.95700  Biso   1.000  H
  C125     1.0000 0.67830  0.80200  0.97190  Biso   1.000  C
  C126     1.0000 0.62820  0.75800  0.93960  Biso   1.000  C
  Eu19     1.0000 0.02011  0.25777  0.35449  Biso   1.000  Eu
  O73      1.0000 0.12370  0.28910  0.41260  Biso   1.000  O
  O74      1.0000 0.16760  0.20295  0.46630  Biso   1.000  O
  O75      1.0000 0.42380  0.28250  0.58230  Biso   1.000  O
  O76      1.0000 0.35654  0.19653  0.56420  Biso   1.000  O
  N19      1.0000 0.26920  0.27000  0.50510  Biso   1.000  N
  C127     1.0000 0.16570  0.26290  0.44850  Biso   1.000  C
  C128     1.0000 0.22190  0.30600  0.47430  Biso   1.000  C
  C129     1.0000 0.22470  0.37310  0.46850  Biso   1.000  C
  H55      1.0000 0.19000  0.39680  0.44760  Biso   1.000  H
  C130     1.0000 0.27910  0.40580  0.49380  Biso   1.000  C
  H56      1.0000 0.28250  0.45240  0.49000  Biso   1.000  H
  C131     1.0000 0.32870  0.37000  0.52470  Biso   1.000  C
  H57      1.0000 0.36620  0.39140  0.54300  Biso   1.000  H
  C132     1.0000 0.32170  0.30200  0.52810  Biso   1.000  C
  C133     1.0000 0.37180  0.25800  0.56040  Biso   1.000  C
  Eu20     1.0000 0.52011  0.24223  0.64551  Biso   1.000  Eu
  O77      1.0000 0.62370  0.21090  0.58740  Biso   1.000  O
  O78      1.0000 0.66760  0.29705  0.53370  Biso   1.000  O
  O79      1.0000 0.92380  0.21750  0.41770  Biso   1.000  O
  O80      1.0000 0.85654  0.30347  0.43580  Biso   1.000  O
  N20      1.0000 0.76920  0.23000  0.49490  Biso   1.000  N
  C134     1.0000 0.66570  0.23710  0.55150  Biso   1.000  C
  C135     1.0000 0.72190  0.19400  0.52570  Biso   1.000  C
  C136     1.0000 0.72470  0.12690  0.53150  Biso   1.000  C
  H58      1.0000 0.69000  0.10320  0.55240  Biso   1.000  H
  C137     1.0000 0.77910  0.09420  0.50620  Biso   1.000  C
  H59      1.0000 0.78250  0.04760  0.51000  Biso   1.000  H
  C138     1.0000 0.82870  0.13000  0.47530  Biso   1.000  C
  H60      1.0000 0.86620  0.10860  0.45700  Biso   1.000  H
  C139     1.0000 0.82170  0.19800  0.47190  Biso   1.000  C
  C140     1.0000 0.87180  0.24200  0.43960  Biso   1.000  C
  Eu21     1.0000 0.85449  0.47989  0.74223  Biso   1.000  Eu
  O81      1.0000 0.91260  0.37630  0.71090  Biso   1.000  O
  O82      1.0000 0.96630  0.33240  0.79705  Biso   1.000  O
  O83      1.0000 0.08230  0.07620  0.71750  Biso   1.000  O
  O84      1.0000 0.06420  0.14346  0.80347  Biso   1.000  O
  N21      1.0000 0.00510  0.23080  0.73000  Biso   1.000  N
  C141     1.0000 0.94850  0.33430  0.73710  Biso   1.000  C
  C142     1.0000 0.97430  0.27810  0.69400  Biso   1.000  C
  C143     1.0000 0.96850  0.27530  0.62690  Biso   1.000  C
  H61      1.0000 0.94760  0.31000  0.60320  Biso   1.000  H
  C144     1.0000 0.99380  0.22090  0.59420  Biso   1.000  C
  H62      1.0000 0.99000  0.21750  0.54760  Biso   1.000  H
  C145     1.0000 0.02470  0.17130  0.63000  Biso   1.000  C
  H63      1.0000 0.04300  0.13380  0.60860  Biso   1.000  H
  C146     1.0000 0.02810  0.17830  0.69800  Biso   1.000  C
  C147     1.0000 0.06040  0.12820  0.74200  Biso   1.000  C
  Eu22     1.0000 0.14551  0.97989  0.75777  Biso   1.000  Eu
  O85      1.0000 0.08740  0.87630  0.78910  Biso   1.000  O
  O86      1.0000 0.03370  0.83240  0.70295  Biso   1.000  O
  O87      1.0000 0.91770  0.57620  0.78250  Biso   1.000  O
  O88      1.0000 0.93580  0.64346  0.69653  Biso   1.000  O
  N22      1.0000 0.99490  0.73080  0.77000  Biso   1.000  N
  C148     1.0000 0.05150  0.83430  0.76290  Biso   1.000  C
  C149     1.0000 0.02570  0.77810  0.80600  Biso   1.000  C
  C150     1.0000 0.03150  0.77530  0.87310  Biso   1.000  C
  H64      1.0000 0.05240  0.81000  0.89680  Biso   1.000  H
  C151     1.0000 0.00620  0.72090  0.90580  Biso   1.000  C
  H65      1.0000 0.01000  0.71750  0.95240  Biso   1.000  H
  C152     1.0000 0.97530  0.67130  0.87000  Biso   1.000  C
  H66      1.0000 0.95700  0.63380  0.89140  Biso   1.000  H
  C153     1.0000 0.97190  0.67830  0.80200  Biso   1.000  C
  C154     1.0000 0.93960  0.62820  0.75800  Biso   1.000  C
  Eu23     1.0000 0.35449  0.02011  0.25777  Biso   1.000  Eu
  O89      1.0000 0.41260  0.12370  0.28910  Biso   1.000  O
  O90      1.0000 0.46630  0.16760  0.20295  Biso   1.000  O
  O91      1.0000 0.58230  0.42380  0.28250  Biso   1.000  O
  O92      1.0000 0.56420  0.35654  0.19653  Biso   1.000  O
  N23      1.0000 0.50510  0.26920  0.27000  Biso   1.000  N
  C155     1.0000 0.44850  0.16570  0.26290  Biso   1.000  C
  C156     1.0000 0.47430  0.22190  0.30600  Biso   1.000  C
  C157     1.0000 0.46850  0.22470  0.37310  Biso   1.000  C
  H67      1.0000 0.44760  0.19000  0.39680  Biso   1.000  H
  C158     1.0000 0.49380  0.27910  0.40580  Biso   1.000  C
  H68      1.0000 0.49000  0.28250  0.45240  Biso   1.000  H
  C159     1.0000 0.52470  0.32870  0.37000  Biso   1.000  C
  H69      1.0000 0.54300  0.36620  0.39140  Biso   1.000  H
  C160     1.0000 0.52810  0.32170  0.30200  Biso   1.000  C
  C161     1.0000 0.56040  0.37180  0.25800  Biso   1.000  C
  Eu24     1.0000 0.64551  0.52011  0.24223  Biso   1.000  Eu
  O93      1.0000 0.58740  0.62370  0.21090  Biso   1.000  O
  O94      1.0000 0.53370  0.66760  0.29705  Biso   1.000  O
  O95      1.0000 0.41770  0.92380  0.21750  Biso   1.000  O
  O96      1.0000 0.43580  0.85654  0.30347  Biso   1.000  O
  N24      1.0000 0.49490  0.76920  0.23000  Biso   1.000  N
  C162     1.0000 0.55150  0.66570  0.23710  Biso   1.000  C
  C163     1.0000 0.52570  0.72190  0.19400  Biso   1.000  C
  C164     1.0000 0.53150  0.72470  0.12690  Biso   1.000  C
  H70      1.0000 0.55240  0.69000  0.10320  Biso   1.000  H
  C165     1.0000 0.50620  0.77910  0.09420  Biso   1.000  C
  H71      1.0000 0.51000  0.78250  0.04760  Biso   1.000  H
  C166     1.0000 0.47530  0.82870  0.13000  Biso   1.000  C
  H72      1.0000 0.45700  0.86620  0.10860  Biso   1.000  H
  C167     1.0000 0.47190  0.82170  0.19800  Biso   1.000  C
  C168     1.0000 0.43960  0.87180  0.24200  Biso   1.000  C
