data_image0
_cell_length_a       10.2008
_cell_length_b       20.4494
_cell_length_c       20.5893
_cell_angle_alpha    88.589
_cell_angle_beta     76.395
_cell_angle_gamma    87.033

_symmetry_space_group_name_H-M    "P 1"
_symmetry_int_tables_number       1

loop_
  _symmetry_equiv_pos_as_xyz
  'x, y, z'

loop_
  _atom_site_label
  _atom_site_occupancy
  _atom_site_fract_x
  _atom_site_fract_y
  _atom_site_fract_z
  _atom_site_thermal_displace_type
  _atom_site_B_iso_or_equiv
  _atom_site_type_symbol
  O1       1.0000 0.14730  0.73570  0.16372  Biso   1.000  O
  C1       1.0000 0.70590  0.32790  0.35890  Biso   1.000  C
  C2       1.0000 0.58200  0.28830  0.37100  Biso   1.000  C
  C3       1.0000 0.58890  0.22420  0.39420  Biso   1.000  C
  H1       1.0000 0.67070  0.20570  0.39990  Biso   1.000  H
  C4       1.0000 0.47420  0.18740  0.40910  Biso   1.000  C
  C5       1.0000 0.35490  0.21430  0.39710  Biso   1.000  C
  H2       1.0000 0.27860  0.18960  0.40590  Biso   1.000  H
  C6       1.0000 0.34720  0.27750  0.37230  Biso   1.000  C
  C7       1.0000 0.46070  0.31550  0.36100  Biso   1.000  C
  H3       1.0000 0.45490  0.35890  0.34690  Biso   1.000  H
  C8       1.0000 0.48020  0.12030  0.44010  Biso   1.000  C
  C9       1.0000 0.21520  0.30610  0.36030  Biso   1.000  C
  C10      1.0000 0.92590  0.36180  0.19080  Biso   1.000  C
  C11      1.0000 0.96350  0.32730  0.12440  Biso   1.000  C
  C12      1.0000 0.09730  0.30940  0.09540  Biso   1.000  C
  H4       1.0000 0.16480  0.32030  0.11610  Biso   1.000  H
  C13      1.0000 0.13110  0.27540  0.03540  Biso   1.000  C
  C14      1.0000 0.03000  0.25640  0.00620  Biso   1.000  C
  H5       1.0000 0.05210  0.23240  0.96700  Biso   1.000  H
  C15      1.0000 0.89520  0.27320  0.03550  Biso   1.000  C
  C16      1.0000 0.86390  0.31050  0.09330  Biso   1.000  C
  H6       1.0000 0.77470  0.32430  0.11120  Biso   1.000  H
  C17      1.0000 0.27750  0.25720  0.00550  Biso   1.000  C
  C18      1.0000 0.78220  0.25010  0.00760  Biso   1.000  C
  C19      1.0000 0.99510  0.51470  0.26990  Biso   1.000  C
  C20      1.0000 0.12930  0.54650  0.24800  Biso   1.000  C
  C21      1.0000 0.13160  0.60730  0.21650  Biso   1.000  C
  H7       1.0000 0.05150  0.62840  0.21170  Biso   1.000  H
  C22      1.0000 0.25370  0.63670  0.19220  Biso   1.000  C
  C23      1.0000 0.37220  0.60490  0.19970  Biso   1.000  C
  H8       1.0000 0.45420  0.62370  0.18200  Biso   1.000  H
  C24      1.0000 0.37020  0.54520  0.23320  Biso   1.000  C
  C25      1.0000 0.24760  0.51530  0.25730  Biso   1.000  C
  H9       1.0000 0.24540  0.47500  0.27940  Biso   1.000  H
  C26      1.0000 0.25800  0.70320  0.15840  Biso   1.000  C
  C27      1.0000 0.50080  0.51460  0.24430  Biso   1.000  C
  C28      1.0000 0.38890  0.87050  0.16870  Biso   1.000  C
  C29      1.0000 0.49090  0.88290  0.20860  Biso   1.000  C
  C30      1.0000 0.62820  0.87360  0.18020  Biso   1.000  C
  H10      1.0000 0.65700  0.85870  0.13660  Biso   1.000  H
  C31      1.0000 0.72250  0.88610  0.21640  Biso   1.000  C
  C32      1.0000 0.67970  0.90890  0.28110  Biso   1.000  C
  H11      1.0000 0.74290  0.91840  0.30510  Biso   1.000  H
  C33      1.0000 0.54200  0.91760  0.31050  Biso   1.000  C
  C34      1.0000 0.44930  0.90450  0.27390  Biso   1.000  C
  H12      1.0000 0.35760  0.91030  0.29340  Biso   1.000  H
  C35      1.0000 0.87140  0.87410  0.18660  Biso   1.000  C
  C36      1.0000 0.49680  0.94300  0.38070  Biso   1.000  C
  Cd1      1.0000 0.98413  0.36566  0.33926  Biso   1.000  Cd
  Cd2      1.0000 0.45396  0.77897  0.03517  Biso   1.000  Cd
  Cd3      1.0000 0.13473  0.84238  0.13364  Biso   1.000  Cd
  Cd4      1.0000 0.34614  0.99409  0.50605  Biso   1.000  Cd
  Cd5      1.0000 0.72949  0.46802  0.27948  Biso   1.000  Cd
  O2       1.0000 0.81740  0.29650  0.35300  Biso   1.000  O
  O3       1.0000 0.69070  0.38898  0.35905  Biso   1.000  O
  O4       1.0000 0.37240  0.09071  0.45499  Biso   1.000  O
  O5       1.0000 0.59310  0.09899  0.44902  Biso   1.000  O
  O6       1.0000 0.11560  0.27180  0.37260  Biso   1.000  O
  O7       1.0000 0.21060  0.36291  0.33760  Biso   1.000  O
  O8       1.0000 0.01110  0.35903  0.22580  Biso   1.000  O
  O9       1.0000 0.81090  0.38955  0.20545  Biso   1.000  O
  O10      1.0000 0.66770  0.27874  0.02461  Biso   1.000  O
  O11      1.0000 0.80490  0.20080  0.97061  Biso   1.000  O
  O12      1.0000 0.31460  0.24080  0.94616  Biso   1.000  O
  O13      1.0000 0.35980  0.25870  0.04120  Biso   1.000  O
  O14      1.0000 0.97580  0.47579  0.31904  Biso   1.000  O
  O15      1.0000 0.90760  0.52987  0.23746  Biso   1.000  O
  O16      1.0000 0.37220  0.72066  0.12798  Biso   1.000  O
  O17      1.0000 0.61020  0.53870  0.21399  Biso   1.000  O
  O18      1.0000 0.49800  0.46783  0.28427  Biso   1.000  O
  O19      1.0000 0.42900  0.86414  0.10643  Biso   1.000  O
  O20      1.0000 0.26830  0.86780  0.20018  Biso   1.000  O
  O21      1.0000 0.37250  0.94761  0.40630  Biso   1.000  O
  O22      1.0000 0.58690  0.95845  0.40885  Biso   1.000  O
  O23      1.0000 0.95370  0.89740  0.21440  Biso   1.000  O
  O24      1.0000 0.90780  0.83990  0.13592  Biso   1.000  O
  O25      1.0000 0.85270  0.26430  0.83628  Biso   1.000  O
  C37      1.0000 0.29410  0.67210  0.64110  Biso   1.000  C
  C38      1.0000 0.41800  0.71170  0.62900  Biso   1.000  C
  C39      1.0000 0.41110  0.77580  0.60580  Biso   1.000  C
  H13      1.0000 0.32930  0.79430  0.60010  Biso   1.000  H
  C40      1.0000 0.52580  0.81260  0.59090  Biso   1.000  C
  C41      1.0000 0.64510  0.78570  0.60290  Biso   1.000  C
  H14      1.0000 0.72140  0.81040  0.59410  Biso   1.000  H
  C42      1.0000 0.65280  0.72250  0.62770  Biso   1.000  C
  C43      1.0000 0.53930  0.68450  0.63900  Biso   1.000  C
  H15      1.0000 0.54510  0.64110  0.65310  Biso   1.000  H
  C44      1.0000 0.51980  0.87970  0.55990  Biso   1.000  C
  C45      1.0000 0.78480  0.69390  0.63970  Biso   1.000  C
  C46      1.0000 0.07410  0.63820  0.80920  Biso   1.000  C
  C47      1.0000 0.03650  0.67270  0.87560  Biso   1.000  C
  C48      1.0000 0.90270  0.69060  0.90460  Biso   1.000  C
  H16      1.0000 0.83520  0.67970  0.88390  Biso   1.000  H
  C49      1.0000 0.86890  0.72460  0.96460  Biso   1.000  C
  C50      1.0000 0.97000  0.74360  0.99380  Biso   1.000  C
  H17      1.0000 0.94790  0.76760  0.03300  Biso   1.000  H
  C51      1.0000 0.10480  0.72680  0.96450  Biso   1.000  C
  C52      1.0000 0.13610  0.68950  0.90670  Biso   1.000  C
  H18      1.0000 0.22530  0.67570  0.88880  Biso   1.000  H
  C53      1.0000 0.72250  0.74280  0.99450  Biso   1.000  C
  C54      1.0000 0.21780  0.74990  0.99240  Biso   1.000  C
  C55      1.0000 0.00490  0.48530  0.73010  Biso   1.000  C
  C56      1.0000 0.87070  0.45350  0.75200  Biso   1.000  C
  C57      1.0000 0.86840  0.39270  0.78350  Biso   1.000  C
  H19      1.0000 0.94850  0.37160  0.78830  Biso   1.000  H
  C58      1.0000 0.74630  0.36330  0.80780  Biso   1.000  C
  C59      1.0000 0.62780  0.39510  0.80030  Biso   1.000  C
  H20      1.0000 0.54580  0.37630  0.81800  Biso   1.000  H
  C60      1.0000 0.62980  0.45480  0.76680  Biso   1.000  C
  C61      1.0000 0.75240  0.48470  0.74270  Biso   1.000  C
  H21      1.0000 0.75460  0.52500  0.72060  Biso   1.000  H
  C62      1.0000 0.74200  0.29680  0.84160  Biso   1.000  C
  C63      1.0000 0.49920  0.48540  0.75570  Biso   1.000  C
  C64      1.0000 0.61110  0.12950  0.83130  Biso   1.000  C
  C65      1.0000 0.50910  0.11710  0.79140  Biso   1.000  C
  C66      1.0000 0.37180  0.12640  0.81980  Biso   1.000  C
  H22      1.0000 0.34300  0.14130  0.86340  Biso   1.000  H
  C67      1.0000 0.27750  0.11390  0.78360  Biso   1.000  C
  C68      1.0000 0.32030  0.09110  0.71890  Biso   1.000  C
  H23      1.0000 0.25710  0.08160  0.69490  Biso   1.000  H
  C69      1.0000 0.45800  0.08240  0.68950  Biso   1.000  C
  C70      1.0000 0.55070  0.09550  0.72610  Biso   1.000  C
  H24      1.0000 0.64240  0.08970  0.70660  Biso   1.000  H
  C71      1.0000 0.12860  0.12590  0.81340  Biso   1.000  C
  C72      1.0000 0.50320  0.05700  0.61930  Biso   1.000  C
  Cd6      1.0000 0.01587  0.63434  0.66074  Biso   1.000  Cd
  Cd7      1.0000 0.54604  0.22103  0.96482  Biso   1.000  Cd
  Cd8      1.0000 0.86527  0.15762  0.86636  Biso   1.000  Cd
  Cd9      1.0000 0.65386  0.00591  0.49395  Biso   1.000  Cd
  Cd10     1.0000 0.27051  0.53198  0.72052  Biso   1.000  Cd
  O26      1.0000 0.18260  0.70350  0.64700  Biso   1.000  O
  O27      1.0000 0.30930  0.61102  0.64095  Biso   1.000  O
  O28      1.0000 0.62760  0.90929  0.54501  Biso   1.000  O
  O29      1.0000 0.40690  0.90101  0.55098  Biso   1.000  O
  O30      1.0000 0.88440  0.72820  0.62740  Biso   1.000  O
  O31      1.0000 0.78940  0.63709  0.66240  Biso   1.000  O
  O32      1.0000 0.98890  0.64097  0.77420  Biso   1.000  O
  O33      1.0000 0.18910  0.61045  0.79455  Biso   1.000  O
  O34      1.0000 0.33230  0.72126  0.97539  Biso   1.000  O
  O35      1.0000 0.19510  0.79920  0.02939  Biso   1.000  O
  O36      1.0000 0.68540  0.75920  0.05384  Biso   1.000  O
  O37      1.0000 0.64020  0.74130  0.95880  Biso   1.000  O
  O38      1.0000 0.02420  0.52421  0.68096  Biso   1.000  O
  O39      1.0000 0.09240  0.47013  0.76254  Biso   1.000  O
  O40      1.0000 0.62780  0.27934  0.87202  Biso   1.000  O
  O41      1.0000 0.38980  0.46130  0.78601  Biso   1.000  O
  O42      1.0000 0.50200  0.53217  0.71573  Biso   1.000  O
  O43      1.0000 0.57100  0.13586  0.89357  Biso   1.000  O
  O44      1.0000 0.73170  0.13220  0.79982  Biso   1.000  O
  O45      1.0000 0.62750  0.05239  0.59370  Biso   1.000  O
  O46      1.0000 0.41310  0.04155  0.59115  Biso   1.000  O
  O47      1.0000 0.04630  0.10260  0.78560  Biso   1.000  O
  O48      1.0000 0.09220  0.16010  0.86408  Biso   1.000  O
