data_KUJNEJ_clean
_audit_creation_date              2014-07-02
_audit_creation_method            'Materials Studio'
_symmetry_space_group_name_H-M    'P1'
_symmetry_Int_Tables_number       1
_symmetry_cell_setting            triclinic
loop_
_symmetry_equiv_pos_as_xyz
  x,y,z
_cell_length_a                    24.6661
_cell_length_b                    24.6661
_cell_length_c                    24.6661
_cell_angle_alpha                 109.4710
_cell_angle_beta                  109.4710
_cell_angle_gamma                 109.4710
loop_
_atom_site_label
_atom_site_type_symbol
_atom_site_fract_x
_atom_site_fract_y
_atom_site_fract_z
_atom_site_U_iso_or_equiv
_atom_site_adp_type
_atom_site_occupancy
Ni1    Ni    0.08020   0.08945   0.40686   0.01267  Uiso   1.00
Ni2    Ni    0.68259   0.67334   0.59313   0.01267  Uiso   1.00
Ni3    Ni    0.31741   0.91055   0.99075   0.01267  Uiso   1.00
Ni4    Ni    0.91980   0.32666   0.00926   0.01267  Uiso   1.00
Ni5    Ni    0.99075   0.31741   0.91055   0.01267  Uiso   1.00
Ni6    Ni    0.00925   0.91979   0.32666   0.01267  Uiso   1.00
Ni7    Ni    0.40686   0.08020   0.08945   0.01267  Uiso   1.00
Ni8    Ni    0.59314   0.68260   0.67334   0.01267  Uiso   1.00
Ni9    Ni    0.67334   0.59314   0.68259   0.01267  Uiso   1.00
Ni10   Ni    0.08946   0.40687   0.08021   0.01267  Uiso   1.00
Ni11   Ni    0.32666   0.00925   0.91980   0.01267  Uiso   1.00
Ni12   Ni    0.91054   0.99074   0.31740   0.01267  Uiso   1.00
H1     H     0.18280   0.10930   0.59430   0.01267  Uiso   1.00
H2     H     0.24220   0.11260   0.69420   0.01267  Uiso   1.00
H3     H     0.20990   0.93350   0.59400   0.01267  Uiso   1.00
H4     H     0.14810   0.92650   0.49240   0.01267  Uiso   1.00
H5     H     0.30100   0.11750   0.77970   0.01267  Uiso   1.00
H6     H     0.33860   0.11150   0.87270   0.01267  Uiso   1.00
H7     H     0.26250   0.92150   0.77420   0.01267  Uiso   1.00
H8     H     0.22200   0.91890   0.67250   0.01267  Uiso   1.00
H9     H     0.12810   0.92030   0.23260   0.01267  Uiso   1.00
H10    H     0.16570   0.86930   0.15960   0.01267  Uiso   1.00
H11    H     0.22180   0.12020   0.34360   0.01267  Uiso   1.00
H12    H     0.51500   0.58850   0.40570   0.01267  Uiso   1.00
H13    H     0.41840   0.54800   0.30580   0.01267  Uiso   1.00
H14    H     0.33950   0.61590   0.40600   0.01267  Uiso   1.00
H15    H     0.43410   0.65570   0.50760   0.01267  Uiso   1.00
H16    H     0.33780   0.52130   0.22030   0.01267  Uiso   1.00
H17    H     0.23880   0.46590   0.12730   0.01267  Uiso   1.00
H18    H     0.14730   0.48830   0.22580   0.01267  Uiso   1.00
H19    H     0.24640   0.54950   0.32750   0.01267  Uiso   1.00
H20    H     0.68770   0.89550   0.76740   0.01267  Uiso   1.00
H21    H     0.70970   0.00610   0.84040   0.01267  Uiso   1.00
H22    H     0.77660   0.87820   0.65640   0.01267  Uiso   1.00
H23    H     0.48500   0.89070   0.07350   0.01267  Uiso   1.00
H24    H     0.58160   0.88740   0.12960   0.01267  Uiso   1.00
H25    H     0.66050   0.06650   0.27640   0.01267  Uiso   1.00
H26    H     0.56590   0.07350   0.22160   0.01267  Uiso   1.00
H27    H     0.66220   0.88250   0.18350   0.01267  Uiso   1.00
H28    H     0.76120   0.88850   0.22710   0.01267  Uiso   1.00
H29    H     0.85270   0.07850   0.34100   0.01267  Uiso   1.00
H30    H     0.75360   0.08110   0.30310   0.01267  Uiso   1.00
H31    H     0.31230   0.07970   0.20780   0.01267  Uiso   1.00
H32    H     0.29030   0.13070   0.29640   0.01267  Uiso   1.00
H33    H     0.22340   0.87980   0.10160   0.01267  Uiso   1.00
H34    H     0.81720   0.41150   0.92650   0.01267  Uiso   1.00
H35    H     0.75780   0.45200   0.87040   0.01267  Uiso   1.00
H36    H     0.79010   0.38410   0.72360   0.01267  Uiso   1.00
H37    H     0.85190   0.34430   0.77840   0.01267  Uiso   1.00
H38    H     0.69900   0.47870   0.81650   0.01267  Uiso   1.00
H39    H     0.66140   0.53410   0.77290   0.01267  Uiso   1.00
H40    H     0.73750   0.51170   0.65900   0.01267  Uiso   1.00
H41    H     0.77800   0.45050   0.69690   0.01267  Uiso   1.00
H42    H     0.87190   0.10450   0.79220   0.01267  Uiso   1.00
H43    H     0.83430   0.99390   0.70360   0.01267  Uiso   1.00
H44    H     0.77820   0.12180   0.89840   0.01267  Uiso   1.00
H45    H     0.07350   0.48500   0.89070   0.01267  Uiso   1.00
H46    H     0.12960   0.58160   0.88740   0.01267  Uiso   1.00
H47    H     0.27640   0.66050   0.06650   0.01267  Uiso   1.00
H48    H     0.22160   0.56590   0.07350   0.01267  Uiso   1.00
H49    H     0.18350   0.66220   0.88250   0.01267  Uiso   1.00
H50    H     0.22710   0.76120   0.88850   0.01267  Uiso   1.00
H51    H     0.34100   0.85270   0.07850   0.01267  Uiso   1.00
H52    H     0.30310   0.75360   0.08110   0.01267  Uiso   1.00
H53    H     0.20780   0.31230   0.07970   0.01267  Uiso   1.00
H54    H     0.29640   0.29030   0.13070   0.01267  Uiso   1.00
H55    H     0.10160   0.22340   0.87980   0.01267  Uiso   1.00
H56    H     0.92650   0.81720   0.41150   0.01267  Uiso   1.00
H57    H     0.87040   0.75780   0.45200   0.01267  Uiso   1.00
H58    H     0.72360   0.79010   0.38410   0.01267  Uiso   1.00
H59    H     0.77840   0.85190   0.34430   0.01267  Uiso   1.00
H60    H     0.81650   0.69900   0.47870   0.01267  Uiso   1.00
H61    H     0.77290   0.66140   0.53410   0.01267  Uiso   1.00
H62    H     0.65900   0.73750   0.51170   0.01267  Uiso   1.00
H63    H     0.69690   0.77800   0.45050   0.01267  Uiso   1.00
H64    H     0.79220   0.87190   0.10450   0.01267  Uiso   1.00
H65    H     0.70360   0.83430   0.99390   0.01267  Uiso   1.00
H66    H     0.89840   0.77820   0.12180   0.01267  Uiso   1.00
H67    H     0.59430   0.18280   0.10930   0.01267  Uiso   1.00
H68    H     0.69420   0.24220   0.11260   0.01267  Uiso   1.00
H69    H     0.59400   0.20990   0.93350   0.01267  Uiso   1.00
H70    H     0.49240   0.14810   0.92650   0.01267  Uiso   1.00
H71    H     0.77970   0.30100   0.11750   0.01267  Uiso   1.00
H72    H     0.87270   0.33860   0.11150   0.01267  Uiso   1.00
H73    H     0.77420   0.26250   0.92150   0.01267  Uiso   1.00
H74    H     0.67250   0.22200   0.91890   0.01267  Uiso   1.00
H75    H     0.23260   0.12810   0.92030   0.01267  Uiso   1.00
H76    H     0.15960   0.16570   0.86930   0.01267  Uiso   1.00
H77    H     0.34360   0.22180   0.12020   0.01267  Uiso   1.00
H78    H     0.40570   0.51500   0.58850   0.01267  Uiso   1.00
H79    H     0.30580   0.41840   0.54800   0.01267  Uiso   1.00
H80    H     0.40600   0.33950   0.61590   0.01267  Uiso   1.00
H81    H     0.50760   0.43410   0.65570   0.01267  Uiso   1.00
H82    H     0.22030   0.33780   0.52130   0.01267  Uiso   1.00
H83    H     0.12730   0.23880   0.46590   0.01267  Uiso   1.00
H84    H     0.22580   0.14730   0.48830   0.01267  Uiso   1.00
H85    H     0.32750   0.24640   0.54950   0.01267  Uiso   1.00
H86    H     0.76740   0.68770   0.89550   0.01267  Uiso   1.00
H87    H     0.84040   0.70970   0.00610   0.01267  Uiso   1.00
H88    H     0.65640   0.77660   0.87820   0.01267  Uiso   1.00
H89    H     0.58850   0.40570   0.51500   0.01267  Uiso   1.00
H90    H     0.54800   0.30580   0.41840   0.01267  Uiso   1.00
H91    H     0.61590   0.40600   0.33950   0.01267  Uiso   1.00
H92    H     0.65570   0.50760   0.43410   0.01267  Uiso   1.00
H93    H     0.52130   0.22030   0.33780   0.01267  Uiso   1.00
H94    H     0.46590   0.12730   0.23880   0.01267  Uiso   1.00
H95    H     0.48830   0.22580   0.14730   0.01267  Uiso   1.00
H96    H     0.54950   0.32750   0.24640   0.01267  Uiso   1.00
H97    H     0.89550   0.76740   0.68770   0.01267  Uiso   1.00
H98    H     0.00610   0.84040   0.70970   0.01267  Uiso   1.00
H99    H     0.87820   0.65640   0.77660   0.01267  Uiso   1.00
H100   H     0.10930   0.59430   0.18280   0.01267  Uiso   1.00
H101   H     0.11260   0.69420   0.24220   0.01267  Uiso   1.00
H102   H     0.93350   0.59400   0.20990   0.01267  Uiso   1.00
H103   H     0.92650   0.49240   0.14810   0.01267  Uiso   1.00
H104   H     0.11750   0.77970   0.30100   0.01267  Uiso   1.00
H105   H     0.11150   0.87270   0.33860   0.01267  Uiso   1.00
H106   H     0.92150   0.77420   0.26250   0.01267  Uiso   1.00
H107   H     0.91890   0.67250   0.22200   0.01267  Uiso   1.00
H108   H     0.92030   0.23260   0.12810   0.01267  Uiso   1.00
H109   H     0.86930   0.15960   0.16570   0.01267  Uiso   1.00
H110   H     0.12020   0.34360   0.22180   0.01267  Uiso   1.00
H111   H     0.41150   0.92650   0.81720   0.01267  Uiso   1.00
H112   H     0.45200   0.87040   0.75780   0.01267  Uiso   1.00
H113   H     0.38410   0.72360   0.79010   0.01267  Uiso   1.00
H114   H     0.34430   0.77840   0.85190   0.01267  Uiso   1.00
H115   H     0.47870   0.81650   0.69900   0.01267  Uiso   1.00
H116   H     0.53410   0.77290   0.66140   0.01267  Uiso   1.00
H117   H     0.51170   0.65900   0.73750   0.01267  Uiso   1.00
H118   H     0.45050   0.69690   0.77800   0.01267  Uiso   1.00
H119   H     0.10450   0.79220   0.87190   0.01267  Uiso   1.00
H120   H     0.99390   0.70360   0.83430   0.01267  Uiso   1.00
H121   H     0.12180   0.89840   0.77820   0.01267  Uiso   1.00
H122   H     0.89070   0.07350   0.48500   0.01267  Uiso   1.00
H123   H     0.88740   0.12960   0.58160   0.01267  Uiso   1.00
H124   H     0.06650   0.27640   0.66050   0.01267  Uiso   1.00
H125   H     0.07350   0.22160   0.56590   0.01267  Uiso   1.00
H126   H     0.88250   0.18350   0.66220   0.01267  Uiso   1.00
H127   H     0.88850   0.22710   0.76120   0.01267  Uiso   1.00
H128   H     0.07850   0.34100   0.85270   0.01267  Uiso   1.00
H129   H     0.08110   0.30310   0.75360   0.01267  Uiso   1.00
H130   H     0.07970   0.20780   0.31230   0.01267  Uiso   1.00
H131   H     0.13070   0.29640   0.29030   0.01267  Uiso   1.00
H132   H     0.87980   0.10160   0.22340   0.01267  Uiso   1.00
C1     C     0.11786   0.01292   0.47056   0.01267  Uiso   1.00
C2     C     0.15809   0.01632   0.53385   0.01267  Uiso   1.00
C3     C     0.18640   0.07179   0.59297   0.01267  Uiso   1.00
C4     C     0.22153   0.07339   0.65288   0.01267  Uiso   1.00
C5     C     0.22593   0.01936   0.65189   0.01267  Uiso   1.00
C6     C     0.20265   0.96920   0.59507   0.01267  Uiso   1.00
C7     C     0.16623   0.96522   0.53333   0.01267  Uiso   1.00
C8     C     0.25336   0.01974   0.71612   0.01267  Uiso   1.00
C9     C     0.29036   0.07540   0.77636   0.01267  Uiso   1.00
C10    C     0.31193   0.07103   0.83150   0.01267  Uiso   1.00
C11    C     0.26850   0.96180   0.77490   0.01267  Uiso   1.00
C12    C     0.24380   0.95906   0.71338   0.01267  Uiso   1.00
C13    C     0.11979   0.01033   0.31846   0.01267  Uiso   1.00
C14    C     0.16646   0.01714   0.29012   0.01267  Uiso   1.00
C15    C     0.15982   0.96312   0.24458   0.01267  Uiso   1.00
C16    C     0.20035   0.96908   0.21335   0.01267  Uiso   1.00
C17    C     0.19372   0.91181   0.16763   0.01267  Uiso   1.00
C18    C     0.21608   0.08177   0.31051   0.01267  Uiso   1.00
C19    C     0.54236   0.64730   0.52944   0.01267  Uiso   1.00
C20    C     0.48247   0.62424   0.46615   0.01267  Uiso   1.00
C21    C     0.47882   0.59343   0.40703   0.01267  Uiso   1.00
C22    C     0.42051   0.56865   0.34712   0.01267  Uiso   1.00
C23    C     0.36747   0.57404   0.34811   0.01267  Uiso   1.00
C24    C     0.37413   0.60758   0.40493   0.01267  Uiso   1.00
C25    C     0.43189   0.63290   0.46667   0.01267  Uiso   1.00
C26    C     0.30362   0.53724   0.28388   0.01267  Uiso   1.00
C27    C     0.29904   0.51400   0.22364   0.01267  Uiso   1.00
C28    C     0.23953   0.48043   0.16850   0.01267  Uiso   1.00
C29    C     0.18690   0.49360   0.22510   0.01267  Uiso   1.00
C30    C     0.24568   0.53042   0.28662   0.01267  Uiso   1.00
C31    C     0.69187   0.80133   0.68154   0.01267  Uiso   1.00
C32    C     0.72702   0.87634   0.70988   0.01267  Uiso   1.00
C33    C     0.71854   0.91524   0.75542   0.01267  Uiso   1.00
C34    C     0.75573   0.98700   0.78665   0.01267  Uiso   1.00
C35    C     0.74418   0.02609   0.83237   0.01267  Uiso   1.00
C36    C     0.77126   0.90557   0.68949   0.01267  Uiso   1.00
C37    C     0.45764   0.98708   0.10494   0.01267  Uiso   1.00
C38    C     0.51753   0.98368   0.14177   0.01267  Uiso   1.00
C39    C     0.52118   0.92821   0.11461   0.01267  Uiso   1.00
C40    C     0.57949   0.92661   0.14814   0.01267  Uiso   1.00
C41    C     0.63253   0.98064   0.20657   0.01267  Uiso   1.00
C42    C     0.62587   0.03080   0.23345   0.01267  Uiso   1.00
C43    C     0.56811   0.03478   0.20101   0.01267  Uiso   1.00
C44    C     0.69638   0.98026   0.23362   0.01267  Uiso   1.00
C45    C     0.70096   0.92460   0.21496   0.01267  Uiso   1.00
C46    C     0.76047   0.92897   0.24090   0.01267  Uiso   1.00
C47    C     0.81310   0.03820   0.30670   0.01267  Uiso   1.00
C48    C     0.75432   0.04094   0.28474   0.01267  Uiso   1.00
C49    C     0.30813   0.98967   0.10946   0.01267  Uiso   1.00
C50    C     0.27298   0.98286   0.14932   0.01267  Uiso   1.00
C51    C     0.28146   0.03688   0.19670   0.01267  Uiso   1.00
C52    C     0.24427   0.03092   0.23127   0.01267  Uiso   1.00
C53    C     0.25582   0.08819   0.28191   0.01267  Uiso   1.00
C54    C     0.22874   0.91823   0.13431   0.01267  Uiso   1.00
C55    C     0.88214   0.35270   0.89506   0.01267  Uiso   1.00
C56    C     0.84191   0.37576   0.85823   0.01267  Uiso   1.00
C57    C     0.81360   0.40657   0.88539   0.01267  Uiso   1.00
C58    C     0.77847   0.43135   0.85186   0.01267  Uiso   1.00
C59    C     0.77407   0.42596   0.79343   0.01267  Uiso   1.00
C60    C     0.79735   0.39242   0.76655   0.01267  Uiso   1.00
C61    C     0.83377   0.36710   0.79899   0.01267  Uiso   1.00
C62    C     0.74664   0.46276   0.76638   0.01267  Uiso   1.00
C63    C     0.70964   0.48600   0.78504   0.01267  Uiso   1.00
C64    C     0.68807   0.51957   0.75910   0.01267  Uiso   1.00
C65    C     0.73150   0.50640   0.69330   0.01267  Uiso   1.00
C66    C     0.75620   0.46958   0.71526   0.01267  Uiso   1.00
C67    C     0.88021   0.19867   0.89054   0.01267  Uiso   1.00
C68    C     0.83354   0.12366   0.85068   0.01267  Uiso   1.00
C69    C     0.84018   0.08476   0.80330   0.01267  Uiso   1.00
C70    C     0.79965   0.01300   0.76873   0.01267  Uiso   1.00
C71    C     0.80628   0.97391   0.71809   0.01267  Uiso   1.00
C72    C     0.78392   0.09443   0.86569   0.01267  Uiso   1.00
C73    C     0.10494   0.45764   0.98708   0.01267  Uiso   1.00
C74    C     0.14177   0.51753   0.98368   0.01267  Uiso   1.00
C75    C     0.11461   0.52118   0.92821   0.01267  Uiso   1.00
C76    C     0.14814   0.57949   0.92661   0.01267  Uiso   1.00
C77    C     0.20657   0.63253   0.98064   0.01267  Uiso   1.00
C78    C     0.23345   0.62587   0.03080   0.01267  Uiso   1.00
C79    C     0.20101   0.56811   0.03478   0.01267  Uiso   1.00
C80    C     0.23362   0.69638   0.98026   0.01267  Uiso   1.00
C81    C     0.21496   0.70096   0.92460   0.01267  Uiso   1.00
C82    C     0.24090   0.76047   0.92897   0.01267  Uiso   1.00
C83    C     0.30670   0.81310   0.03820   0.01267  Uiso   1.00
C84    C     0.28474   0.75432   0.04094   0.01267  Uiso   1.00
C85    C     0.10946   0.30813   0.98967   0.01267  Uiso   1.00
C86    C     0.14932   0.27298   0.98286   0.01267  Uiso   1.00
C87    C     0.19670   0.28146   0.03688   0.01267  Uiso   1.00
C88    C     0.23127   0.24427   0.03092   0.01267  Uiso   1.00
C89    C     0.28191   0.25582   0.08819   0.01267  Uiso   1.00
C90    C     0.13431   0.22874   0.91823   0.01267  Uiso   1.00
C91    C     0.89506   0.88214   0.35270   0.01267  Uiso   1.00
C92    C     0.85823   0.84191   0.37576   0.01267  Uiso   1.00
C93    C     0.88539   0.81360   0.40657   0.01267  Uiso   1.00
C94    C     0.85186   0.77847   0.43135   0.01267  Uiso   1.00
C95    C     0.79343   0.77407   0.42596   0.01267  Uiso   1.00
C96    C     0.76655   0.79735   0.39242   0.01267  Uiso   1.00
C97    C     0.79899   0.83377   0.36710   0.01267  Uiso   1.00
C98    C     0.76638   0.74664   0.46276   0.01267  Uiso   1.00
C99    C     0.78504   0.70964   0.48600   0.01267  Uiso   1.00
C100   C     0.75910   0.68807   0.51957   0.01267  Uiso   1.00
C101   C     0.69330   0.73150   0.50640   0.01267  Uiso   1.00
C102   C     0.71526   0.75620   0.46958   0.01267  Uiso   1.00
C103   C     0.89054   0.88021   0.19867   0.01267  Uiso   1.00
C104   C     0.85068   0.83354   0.12366   0.01267  Uiso   1.00
C105   C     0.80330   0.84018   0.08476   0.01267  Uiso   1.00
C106   C     0.76873   0.79965   0.01300   0.01267  Uiso   1.00
C107   C     0.71809   0.80628   0.97391   0.01267  Uiso   1.00
C108   C     0.86569   0.78392   0.09443   0.01267  Uiso   1.00
C109   C     0.47056   0.11786   0.01292   0.01267  Uiso   1.00
C110   C     0.53385   0.15809   0.01632   0.01267  Uiso   1.00
C111   C     0.59297   0.18640   0.07179   0.01267  Uiso   1.00
C112   C     0.65288   0.22153   0.07339   0.01267  Uiso   1.00
C113   C     0.65189   0.22593   0.01936   0.01267  Uiso   1.00
C114   C     0.59507   0.20265   0.96920   0.01267  Uiso   1.00
C115   C     0.53333   0.16623   0.96522   0.01267  Uiso   1.00
C116   C     0.71612   0.25336   0.01974   0.01267  Uiso   1.00
C117   C     0.77636   0.29036   0.07540   0.01267  Uiso   1.00
C118   C     0.83150   0.31193   0.07103   0.01267  Uiso   1.00
C119   C     0.77490   0.26850   0.96180   0.01267  Uiso   1.00
C120   C     0.71338   0.24380   0.95906   0.01267  Uiso   1.00
C121   C     0.31846   0.11979   0.01033   0.01267  Uiso   1.00
C122   C     0.29012   0.16646   0.01714   0.01267  Uiso   1.00
C123   C     0.24458   0.15982   0.96312   0.01267  Uiso   1.00
C124   C     0.21335   0.20035   0.96908   0.01267  Uiso   1.00
C125   C     0.16763   0.19372   0.91181   0.01267  Uiso   1.00
C126   C     0.31051   0.21608   0.08177   0.01267  Uiso   1.00
C127   C     0.52944   0.54236   0.64730   0.01267  Uiso   1.00
C128   C     0.46615   0.48247   0.62424   0.01267  Uiso   1.00
C129   C     0.40703   0.47882   0.59343   0.01267  Uiso   1.00
C130   C     0.34712   0.42051   0.56865   0.01267  Uiso   1.00
C131   C     0.34811   0.36747   0.57404   0.01267  Uiso   1.00
C132   C     0.40493   0.37413   0.60758   0.01267  Uiso   1.00
C133   C     0.46667   0.43189   0.63290   0.01267  Uiso   1.00
C134   C     0.28388   0.30362   0.53724   0.01267  Uiso   1.00
C135   C     0.22364   0.29904   0.51400   0.01267  Uiso   1.00
C136   C     0.16850   0.23953   0.48043   0.01267  Uiso   1.00
C137   C     0.22510   0.18690   0.49360   0.01267  Uiso   1.00
C138   C     0.28662   0.24568   0.53042   0.01267  Uiso   1.00
C139   C     0.68154   0.69187   0.80133   0.01267  Uiso   1.00
C140   C     0.70988   0.72702   0.87634   0.01267  Uiso   1.00
C141   C     0.75542   0.71854   0.91524   0.01267  Uiso   1.00
C142   C     0.78665   0.75573   0.98700   0.01267  Uiso   1.00
C143   C     0.83237   0.74418   0.02609   0.01267  Uiso   1.00
C144   C     0.68949   0.77126   0.90557   0.01267  Uiso   1.00
C145   C     0.64730   0.52944   0.54236   0.01267  Uiso   1.00
C146   C     0.62424   0.46615   0.48247   0.01267  Uiso   1.00
C147   C     0.59343   0.40703   0.47882   0.01267  Uiso   1.00
C148   C     0.56865   0.34712   0.42051   0.01267  Uiso   1.00
C149   C     0.57404   0.34811   0.36747   0.01267  Uiso   1.00
C150   C     0.60758   0.40493   0.37413   0.01267  Uiso   1.00
C151   C     0.63290   0.46667   0.43189   0.01267  Uiso   1.00
C152   C     0.53724   0.28388   0.30362   0.01267  Uiso   1.00
C153   C     0.51400   0.22364   0.29904   0.01267  Uiso   1.00
C154   C     0.48043   0.16850   0.23953   0.01267  Uiso   1.00
C155   C     0.49360   0.22510   0.18690   0.01267  Uiso   1.00
C156   C     0.53042   0.28662   0.24568   0.01267  Uiso   1.00
C157   C     0.80133   0.68154   0.69187   0.01267  Uiso   1.00
C158   C     0.87634   0.70988   0.72702   0.01267  Uiso   1.00
C159   C     0.91524   0.75542   0.71854   0.01267  Uiso   1.00
C160   C     0.98700   0.78665   0.75573   0.01267  Uiso   1.00
C161   C     0.02609   0.83237   0.74418   0.01267  Uiso   1.00
C162   C     0.90557   0.68949   0.77126   0.01267  Uiso   1.00
C163   C     0.01292   0.47056   0.11786   0.01267  Uiso   1.00
C164   C     0.01632   0.53385   0.15809   0.01267  Uiso   1.00
C165   C     0.07179   0.59297   0.18640   0.01267  Uiso   1.00
C166   C     0.07339   0.65288   0.22153   0.01267  Uiso   1.00
C167   C     0.01936   0.65189   0.22593   0.01267  Uiso   1.00
C168   C     0.96920   0.59507   0.20265   0.01267  Uiso   1.00
C169   C     0.96522   0.53333   0.16623   0.01267  Uiso   1.00
C170   C     0.01974   0.71612   0.25336   0.01267  Uiso   1.00
C171   C     0.07540   0.77636   0.29036   0.01267  Uiso   1.00
C172   C     0.07103   0.83150   0.31193   0.01267  Uiso   1.00
C173   C     0.96180   0.77490   0.26850   0.01267  Uiso   1.00
C174   C     0.95906   0.71338   0.24380   0.01267  Uiso   1.00
C175   C     0.01033   0.31846   0.11979   0.01267  Uiso   1.00
C176   C     0.01714   0.29012   0.16646   0.01267  Uiso   1.00
C177   C     0.96312   0.24458   0.15982   0.01267  Uiso   1.00
C178   C     0.96908   0.21335   0.20035   0.01267  Uiso   1.00
C179   C     0.91181   0.16763   0.19372   0.01267  Uiso   1.00
C180   C     0.08177   0.31051   0.21608   0.01267  Uiso   1.00
C181   C     0.35270   0.89506   0.88214   0.01267  Uiso   1.00
C182   C     0.37576   0.85823   0.84191   0.01267  Uiso   1.00
C183   C     0.40657   0.88539   0.81360   0.01267  Uiso   1.00
C184   C     0.43135   0.85186   0.77847   0.01267  Uiso   1.00
C185   C     0.42596   0.79343   0.77407   0.01267  Uiso   1.00
C186   C     0.39242   0.76655   0.79735   0.01267  Uiso   1.00
C187   C     0.36710   0.79899   0.83377   0.01267  Uiso   1.00
C188   C     0.46276   0.76638   0.74664   0.01267  Uiso   1.00
C189   C     0.48600   0.78504   0.70964   0.01267  Uiso   1.00
C190   C     0.51957   0.75910   0.68807   0.01267  Uiso   1.00
C191   C     0.50640   0.69330   0.73150   0.01267  Uiso   1.00
C192   C     0.46958   0.71526   0.75620   0.01267  Uiso   1.00
C193   C     0.19867   0.89054   0.88021   0.01267  Uiso   1.00
C194   C     0.12366   0.85068   0.83354   0.01267  Uiso   1.00
C195   C     0.08476   0.80330   0.84018   0.01267  Uiso   1.00
C196   C     0.01300   0.76873   0.79965   0.01267  Uiso   1.00
C197   C     0.97391   0.71809   0.80628   0.01267  Uiso   1.00
C198   C     0.09443   0.86569   0.78392   0.01267  Uiso   1.00
C199   C     0.98708   0.10494   0.45764   0.01267  Uiso   1.00
C200   C     0.98368   0.14177   0.51753   0.01267  Uiso   1.00
C201   C     0.92821   0.11461   0.52118   0.01267  Uiso   1.00
C202   C     0.92661   0.14814   0.57949   0.01267  Uiso   1.00
C203   C     0.98064   0.20657   0.63253   0.01267  Uiso   1.00
C204   C     0.03080   0.23345   0.62587   0.01267  Uiso   1.00
C205   C     0.03478   0.20101   0.56811   0.01267  Uiso   1.00
C206   C     0.98026   0.23362   0.69638   0.01267  Uiso   1.00
C207   C     0.92460   0.21496   0.70096   0.01267  Uiso   1.00
C208   C     0.92897   0.24090   0.76047   0.01267  Uiso   1.00
C209   C     0.03820   0.30670   0.81310   0.01267  Uiso   1.00
C210   C     0.04094   0.28474   0.75432   0.01267  Uiso   1.00
C211   C     0.98967   0.10946   0.30813   0.01267  Uiso   1.00
C212   C     0.98286   0.14932   0.27298   0.01267  Uiso   1.00
C213   C     0.03688   0.19670   0.28146   0.01267  Uiso   1.00
C214   C     0.03092   0.23127   0.24427   0.01267  Uiso   1.00
C215   C     0.08819   0.28191   0.25582   0.01267  Uiso   1.00
C216   C     0.91823   0.13431   0.22874   0.01267  Uiso   1.00
N1     N     0.29967   0.01572   0.83393   0.01267  Uiso   1.00
N2     N     0.18179   0.46574   0.16607   0.01267  Uiso   1.00
N3     N     0.81821   0.98428   0.28395   0.01267  Uiso   1.00
N4     N     0.70033   0.53426   0.71605   0.01267  Uiso   1.00
N5     N     0.28395   0.81821   0.98428   0.01267  Uiso   1.00
N6     N     0.71605   0.70033   0.53426   0.01267  Uiso   1.00
N7     N     0.83393   0.29967   0.01572   0.01267  Uiso   1.00
N8     N     0.16607   0.18179   0.46574   0.01267  Uiso   1.00
N9     N     0.46574   0.16607   0.18179   0.01267  Uiso   1.00
N10    N     0.01572   0.83393   0.29967   0.01267  Uiso   1.00
N11    N     0.53426   0.71605   0.70033   0.01267  Uiso   1.00
N12    N     0.98428   0.28395   0.81821   0.01267  Uiso   1.00
O1     O     0.11724   0.06558   0.47686   0.01267  Uiso   1.00
O2     O     0.08809   0.95962   0.41939   0.01267  Uiso   1.00
O3     O     0.12996   0.06310   0.35962   0.01267  Uiso   1.00
O4     O     0.07448   0.95300   0.29510   0.01267  Uiso   1.00
O5     O     0.58872   0.64038   0.52314   0.01267  Uiso   1.00
O6     O     0.54023   0.66870   0.58061   0.01267  Uiso   1.00
O7     O     0.70348   0.77034   0.64038   0.01267  Uiso   1.00
O8     O     0.65790   0.77938   0.70490   0.01267  Uiso   1.00
O9     O     0.41128   0.93442   0.05166   0.01267  Uiso   1.00
O10    O     0.45977   0.04038   0.12847   0.01267  Uiso   1.00
O11    O     0.29652   0.93690   0.06686   0.01267  Uiso   1.00
O12    O     0.34210   0.04700   0.12148   0.01267  Uiso   1.00
O13    O     0.88276   0.35962   0.94834   0.01267  Uiso   1.00
O14    O     0.91191   0.33130   0.87153   0.01267  Uiso   1.00
O15    O     0.87004   0.22966   0.93314   0.01267  Uiso   1.00
O16    O     0.92552   0.22062   0.87852   0.01267  Uiso   1.00
O17    O     0.05166   0.41128   0.93442   0.01267  Uiso   1.00
O18    O     0.12847   0.45977   0.04038   0.01267  Uiso   1.00
O19    O     0.06686   0.29652   0.93690   0.01267  Uiso   1.00
O20    O     0.12148   0.34210   0.04700   0.01267  Uiso   1.00
O21    O     0.94834   0.88276   0.35962   0.01267  Uiso   1.00
O22    O     0.87153   0.91191   0.33130   0.01267  Uiso   1.00
O23    O     0.93314   0.87004   0.22966   0.01267  Uiso   1.00
O24    O     0.87852   0.92552   0.22062   0.01267  Uiso   1.00
O25    O     0.47686   0.11724   0.06558   0.01267  Uiso   1.00
O26    O     0.41939   0.08809   0.95962   0.01267  Uiso   1.00
O27    O     0.35962   0.12996   0.06310   0.01267  Uiso   1.00
O28    O     0.29510   0.07448   0.95300   0.01267  Uiso   1.00
O29    O     0.52314   0.58872   0.64038   0.01267  Uiso   1.00
O30    O     0.58061   0.54023   0.66870   0.01267  Uiso   1.00
O31    O     0.64038   0.70348   0.77034   0.01267  Uiso   1.00
O32    O     0.70490   0.65790   0.77938   0.01267  Uiso   1.00
O33    O     0.64038   0.52314   0.58872   0.01267  Uiso   1.00
O34    O     0.66870   0.58061   0.54023   0.01267  Uiso   1.00
O35    O     0.77034   0.64038   0.70348   0.01267  Uiso   1.00
O36    O     0.77938   0.70490   0.65790   0.01267  Uiso   1.00
O37    O     0.06558   0.47686   0.11724   0.01267  Uiso   1.00
O38    O     0.95962   0.41939   0.08809   0.01267  Uiso   1.00
O39    O     0.06310   0.35962   0.12996   0.01267  Uiso   1.00
O40    O     0.95300   0.29510   0.07448   0.01267  Uiso   1.00
O41    O     0.35962   0.94834   0.88276   0.01267  Uiso   1.00
O42    O     0.33130   0.87153   0.91191   0.01267  Uiso   1.00
O43    O     0.22966   0.93314   0.87004   0.01267  Uiso   1.00
O44    O     0.22062   0.87852   0.92552   0.01267  Uiso   1.00
O45    O     0.93442   0.05166   0.41128   0.01267  Uiso   1.00
O46    O     0.04038   0.12847   0.45977   0.01267  Uiso   1.00
O47    O     0.93690   0.06686   0.29652   0.01267  Uiso   1.00
O48    O     0.04700   0.12148   0.34210   0.01267  Uiso   1.00
O49    O     0.00000   0.00000   0.34858   0.01267  Uiso   1.00
O50    O     0.65142   0.65142   0.65142   0.01267  Uiso   1.00
O51    O     0.34858   0.00000   0.00000   0.01267  Uiso   1.00
O52    O     0.00000   0.34858   0.00000   0.01267  Uiso   1.00
