data_image0
_cell_length_a       13.9538
_cell_length_b       13.9538
_cell_length_c       24.9246
_cell_angle_alpha    90
_cell_angle_beta     90
_cell_angle_gamma    120

_symmetry_space_group_name_H-M    "P 1"
_symmetry_int_tables_number       1

loop_
  _symmetry_equiv_pos_as_xyz
  'x, y, z'

loop_
  _atom_site_label
  _atom_site_occupancy
  _atom_site_fract_x
  _atom_site_fract_y
  _atom_site_fract_z
  _atom_site_thermal_displace_type
  _atom_site_B_iso_or_equiv
  _atom_site_type_symbol
  Zn1      1.0000 0.14997  0.69248  0.04676  Biso   1.000  Zn
  O1       1.0000 0.00290  0.61280  0.10615  Biso   1.000  O
  O2       1.0000 0.97730  0.60600  0.02073  Biso   1.000  O
  O3       1.0000 0.29670  0.69180  0.07393  Biso   1.000  O
  O4       1.0000 0.16100  0.54670  0.03872  Biso   1.000  O
  O5       1.0000 0.12890  0.84960  0.16232  Biso   1.000  O
  O6       1.0000 0.20580  0.83320  0.08817  Biso   1.000  O
  N1       1.0000 0.47480  0.35250  0.10448  Biso   1.000  N
  N2       1.0000 0.20380  0.76830  0.97348  Biso   1.000  N
  N3       1.0000 0.30470  0.94910  0.83063  Biso   1.000  N
  C1       1.0000 0.58960  0.40610  0.09372  Biso   1.000  C
  C2       1.0000 0.66200  0.40390  0.13218  Biso   1.000  C
  H1       1.0000 0.63450  0.36490  0.16400  Biso   1.000  H
  C3       1.0000 0.77370  0.46000  0.12235  Biso   1.000  C
  H2       1.0000 0.82180  0.45890  0.14790  Biso   1.000  H
  C4       1.0000 0.81570  0.51780  0.07540  Biso   1.000  C
  C5       1.0000 0.74460  0.51790  0.03729  Biso   1.000  C
  H3       1.0000 0.77290  0.55530  0.00510  Biso   1.000  H
  C6       1.0000 0.63180  0.46330  0.04600  Biso   1.000  C
  H4       1.0000 0.58450  0.46480  0.02010  Biso   1.000  H
  C7       1.0000 0.41790  0.41130  0.09403  Biso   1.000  C
  C8       1.0000 0.46660  0.52170  0.10840  Biso   1.000  C
  H5       1.0000 0.53490  0.55600  0.12560  Biso   1.000  H
  C9       1.0000 0.41450  0.58030  0.09734  Biso   1.000  C
  H6       1.0000 0.44830  0.65470  0.10670  Biso   1.000  H
  C10      1.0000 0.31200  0.53040  0.07238  Biso   1.000  C
  C11      1.0000 0.26370  0.41940  0.05866  Biso   1.000  C
  H7       1.0000 0.19460  0.38460  0.04220  Biso   1.000  H
  C12      1.0000 0.31530  0.36050  0.06875  Biso   1.000  C
  H8       1.0000 0.28210  0.28640  0.05880  Biso   1.000  H
  C13      1.0000 0.41530  0.23730  0.11480  Biso   1.000  C
  C14      1.0000 0.32450  0.19420  0.14968  Biso   1.000  C
  H9       1.0000 0.30870  0.24150  0.16910  Biso   1.000  H
  C15      1.0000 0.25860  0.08110  0.15507  Biso   1.000  C
  H10      1.0000 0.19820  0.05260  0.17820  Biso   1.000  H
  C16      1.0000 0.28090  0.00960  0.12676  Biso   1.000  C
  C17      1.0000 0.37480  0.05300  0.09571  Biso   1.000  C
  H11      1.0000 0.39360  0.00550  0.07850  Biso   1.000  H
  C18      1.0000 0.44190  0.16640  0.08970  Biso   1.000  C
  H12      1.0000 0.50510  0.19440  0.06850  Biso   1.000  H
  C19      1.0000 0.93780  0.58140  0.06600  Biso   1.000  C
  C20      1.0000 0.25240  0.59280  0.06079  Biso   1.000  C
  C21      1.0000 0.20010  0.88790  0.12560  Biso   1.000  C
  C22      1.0000 0.29230  0.86940  0.97233  Biso   1.000  C
  H13      1.0000 0.33130  0.89770  0.00410  Biso   1.000  H
  C23      1.0000 0.32980  0.93480  0.92708  Biso   1.000  C
  H14      1.0000 0.38990  0.00640  0.92840  Biso   1.000  H
  C24      1.0000 0.27510  0.89030  0.88040  Biso   1.000  C
  C25      1.0000 0.18900  0.78250  0.87948  Biso   1.000  C
  H15      1.0000 0.15450  0.74940  0.84730  Biso   1.000  H
  C26      1.0000 0.15520  0.72510  0.92655  Biso   1.000  C
  H16      1.0000 0.09580  0.65300  0.92590  Biso   1.000  H
  Zn2      1.0000 0.30752  0.45749  0.38010  Biso   1.000  Zn
  O7       1.0000 0.38720  0.39010  0.43948  Biso   1.000  O
  O8       1.0000 0.39400  0.37130  0.35406  Biso   1.000  O
  O9       1.0000 0.30820  0.60490  0.40726  Biso   1.000  O
  O10      1.0000 0.45330  0.61430  0.37205  Biso   1.000  O
  O11      1.0000 0.15040  0.27930  0.49565  Biso   1.000  O
  O12      1.0000 0.16680  0.37260  0.42150  Biso   1.000  O
  N4       1.0000 0.64750  0.12230  0.43781  Biso   1.000  N
  N5       1.0000 0.23170  0.43550  0.30681  Biso   1.000  N
  N6       1.0000 0.05090  0.35560  0.16396  Biso   1.000  N
  C27      1.0000 0.59390  0.18350  0.42705  Biso   1.000  C
  C28      1.0000 0.59610  0.25810  0.46551  Biso   1.000  C
  H17      1.0000 0.63510  0.26960  0.49733  Biso   1.000  H
  C29      1.0000 0.54000  0.31370  0.45568  Biso   1.000  C
  H18      1.0000 0.54110  0.36290  0.48123  Biso   1.000  H
  C30      1.0000 0.48220  0.29790  0.40873  Biso   1.000  C
  C31      1.0000 0.48210  0.22670  0.37062  Biso   1.000  C
  H19      1.0000 0.44470  0.21760  0.33843  Biso   1.000  H
  C32      1.0000 0.53670  0.16850  0.37933  Biso   1.000  C
  H20      1.0000 0.53520  0.11970  0.35343  Biso   1.000  H
  C33      1.0000 0.58870  0.00660  0.42736  Biso   1.000  C
  C34      1.0000 0.47830  0.94490  0.44173  Biso   1.000  C
  H21      1.0000 0.44400  0.97890  0.45893  Biso   1.000  H
  C35      1.0000 0.41970  0.83420  0.43067  Biso   1.000  C
  H22      1.0000 0.34530  0.79360  0.44003  Biso   1.000  H
  C36      1.0000 0.46960  0.78160  0.40571  Biso   1.000  C
  C37      1.0000 0.58060  0.84430  0.39199  Biso   1.000  C
  H23      1.0000 0.61540  0.81000  0.37553  Biso   1.000  H
  C38      1.0000 0.63950  0.95480  0.40208  Biso   1.000  C
  H24      1.0000 0.71360  0.99570  0.39213  Biso   1.000  H
  C39      1.0000 0.76270  0.17800  0.44813  Biso   1.000  C
  C40      1.0000 0.80580  0.13030  0.48301  Biso   1.000  C
  H25      1.0000 0.75850  0.06720  0.50243  Biso   1.000  H
  C41      1.0000 0.91890  0.17750  0.48840  Biso   1.000  C
  H26      1.0000 0.94740  0.14560  0.51153  Biso   1.000  H
  C42      1.0000 0.99040  0.27130  0.46009  Biso   1.000  C
  C43      1.0000 0.94700  0.32180  0.42904  Biso   1.000  C
  H27      1.0000 0.99450  0.38810  0.41183  Biso   1.000  H
  C44      1.0000 0.83360  0.27550  0.42303  Biso   1.000  C
  H28      1.0000 0.80560  0.31070  0.40183  Biso   1.000  H
  C45      1.0000 0.41860  0.35640  0.39933  Biso   1.000  C
  C46      1.0000 0.40720  0.65960  0.39412  Biso   1.000  C
  C47      1.0000 0.11210  0.31220  0.45893  Biso   1.000  C
  C48      1.0000 0.13060  0.42290  0.30566  Biso   1.000  C
  H29      1.0000 0.10230  0.43360  0.33743  Biso   1.000  H
  C49      1.0000 0.06520  0.39500  0.26041  Biso   1.000  C
  H30      1.0000 0.99360  0.38350  0.26173  Biso   1.000  H
  C50      1.0000 0.10970  0.38480  0.21373  Biso   1.000  C
  C51      1.0000 0.21750  0.40650  0.21281  Biso   1.000  C
  H31      1.0000 0.25060  0.40510  0.18063  Biso   1.000  H
  C52      1.0000 0.27490  0.43010  0.25988  Biso   1.000  C
  H32      1.0000 0.34700  0.44280  0.25923  Biso   1.000  H
  Zn3      1.0000 0.54251  0.85003  0.71343  Biso   1.000  Zn
  O13      1.0000 0.60990  0.99710  0.77282  Biso   1.000  O
  O14      1.0000 0.62870  0.02270  0.68740  Biso   1.000  O
  O15      1.0000 0.39510  0.70330  0.74060  Biso   1.000  O
  O16      1.0000 0.38570  0.83900  0.70539  Biso   1.000  O
  O17      1.0000 0.72070  0.87110  0.82899  Biso   1.000  O
  O18      1.0000 0.62740  0.79420  0.75484  Biso   1.000  O
  N7       1.0000 0.87770  0.52520  0.77115  Biso   1.000  N
  N8       1.0000 0.56450  0.79620  0.64015  Biso   1.000  N
  N9       1.0000 0.64440  0.69530  0.49730  Biso   1.000  N
  C53      1.0000 0.81650  0.41040  0.76039  Biso   1.000  C
  C54      1.0000 0.74190  0.33800  0.79885  Biso   1.000  C
  H33      1.0000 0.73040  0.36550  0.83067  Biso   1.000  H
  C55      1.0000 0.68630  0.22630  0.78902  Biso   1.000  C
  H34      1.0000 0.63710  0.17820  0.81457  Biso   1.000  H
  C56      1.0000 0.70210  0.18430  0.74207  Biso   1.000  C
  C57      1.0000 0.77330  0.25540  0.70396  Biso   1.000  C
  H35      1.0000 0.78240  0.22710  0.67177  Biso   1.000  H
  C58      1.0000 0.83150  0.36820  0.71267  Biso   1.000  C
  H36      1.0000 0.88030  0.41550  0.68677  Biso   1.000  H
  C59      1.0000 0.99340  0.58210  0.76070  Biso   1.000  C
  C60      1.0000 0.05510  0.53340  0.77507  Biso   1.000  C
  H37      1.0000 0.02110  0.46510  0.79227  Biso   1.000  H
  C61      1.0000 0.16580  0.58550  0.76401  Biso   1.000  C
  H38      1.0000 0.20640  0.55170  0.77337  Biso   1.000  H
  C62      1.0000 0.21840  0.68800  0.73905  Biso   1.000  C
  C63      1.0000 0.15570  0.73630  0.72533  Biso   1.000  C
  H39      1.0000 0.19000  0.80540  0.70887  Biso   1.000  H
  C64      1.0000 0.04520  0.68470  0.73542  Biso   1.000  C
  H40      1.0000 0.00430  0.71790  0.72547  Biso   1.000  H
  C65      1.0000 0.82200  0.58470  0.78147  Biso   1.000  C
  C66      1.0000 0.86970  0.67550  0.81635  Biso   1.000  C
  H41      1.0000 0.93280  0.69130  0.83577  Biso   1.000  H
  C67      1.0000 0.82250  0.74140  0.82174  Biso   1.000  C
  H42      1.0000 0.85440  0.80180  0.84487  Biso   1.000  H
  C68      1.0000 0.72870  0.71910  0.79343  Biso   1.000  C
  C69      1.0000 0.67820  0.62520  0.76238  Biso   1.000  C
  H43      1.0000 0.61190  0.60640  0.74517  Biso   1.000  H
  C70      1.0000 0.72450  0.55810  0.75637  Biso   1.000  C
  H44      1.0000 0.68930  0.49490  0.73517  Biso   1.000  H
  C71      1.0000 0.64360  0.06220  0.73267  Biso   1.000  C
  C72      1.0000 0.34040  0.74760  0.72746  Biso   1.000  C
  C73      1.0000 0.68780  0.79990  0.79227  Biso   1.000  C
  C74      1.0000 0.57710  0.70770  0.63900  Biso   1.000  C
  H45      1.0000 0.56640  0.66870  0.67077  Biso   1.000  H
  C75      1.0000 0.60500  0.67020  0.59375  Biso   1.000  C
  H46      1.0000 0.61650  0.61010  0.59507  Biso   1.000  H
  C76      1.0000 0.61520  0.72490  0.54707  Biso   1.000  C
  C77      1.0000 0.59350  0.81100  0.54615  Biso   1.000  C
  H47      1.0000 0.59490  0.84550  0.51397  Biso   1.000  H
  C78      1.0000 0.56990  0.84480  0.59322  Biso   1.000  C
  H48      1.0000 0.55720  0.90420  0.59257  Biso   1.000  H
  Zn4      1.0000 0.69248  0.14997  0.95324  Biso   1.000  Zn
  O19      1.0000 0.61280  0.00290  0.89385  Biso   1.000  O
  O20      1.0000 0.60600  0.97730  0.97927  Biso   1.000  O
  O21      1.0000 0.69180  0.29670  0.92607  Biso   1.000  O
  O22      1.0000 0.54670  0.16100  0.96128  Biso   1.000  O
  O23      1.0000 0.84960  0.12890  0.83768  Biso   1.000  O
  O24      1.0000 0.83320  0.20580  0.91183  Biso   1.000  O
  N10      1.0000 0.35250  0.47480  0.89552  Biso   1.000  N
  N11      1.0000 0.76830  0.20380  0.02652  Biso   1.000  N
  N12      1.0000 0.94910  0.30470  0.16937  Biso   1.000  N
  C79      1.0000 0.40610  0.58960  0.90628  Biso   1.000  C
  C80      1.0000 0.40390  0.66200  0.86782  Biso   1.000  C
  H49      1.0000 0.36490  0.63450  0.83600  Biso   1.000  H
  C81      1.0000 0.46000  0.77370  0.87765  Biso   1.000  C
  H50      1.0000 0.45890  0.82180  0.85210  Biso   1.000  H
  C82      1.0000 0.51780  0.81570  0.92460  Biso   1.000  C
  C83      1.0000 0.51790  0.74460  0.96271  Biso   1.000  C
  H51      1.0000 0.55530  0.77290  0.99490  Biso   1.000  H
  C84      1.0000 0.46330  0.63180  0.95400  Biso   1.000  C
  H52      1.0000 0.46480  0.58450  0.97990  Biso   1.000  H
  C85      1.0000 0.41130  0.41790  0.90597  Biso   1.000  C
  C86      1.0000 0.52170  0.46660  0.89160  Biso   1.000  C
  H53      1.0000 0.55600  0.53490  0.87440  Biso   1.000  H
  C87      1.0000 0.58030  0.41450  0.90266  Biso   1.000  C
  H54      1.0000 0.65470  0.44830  0.89330  Biso   1.000  H
  C88      1.0000 0.53040  0.31200  0.92762  Biso   1.000  C
  C89      1.0000 0.41940  0.26370  0.94134  Biso   1.000  C
  H55      1.0000 0.38460  0.19460  0.95780  Biso   1.000  H
  C90      1.0000 0.36050  0.31530  0.93125  Biso   1.000  C
  H56      1.0000 0.28640  0.28210  0.94120  Biso   1.000  H
  C91      1.0000 0.23730  0.41530  0.88520  Biso   1.000  C
  C92      1.0000 0.19420  0.32450  0.85032  Biso   1.000  C
  H57      1.0000 0.24150  0.30870  0.83090  Biso   1.000  H
  C93      1.0000 0.08110  0.25860  0.84493  Biso   1.000  C
  H58      1.0000 0.05260  0.19820  0.82180  Biso   1.000  H
  C94      1.0000 0.00960  0.28090  0.87324  Biso   1.000  C
  C95      1.0000 0.05300  0.37480  0.90429  Biso   1.000  C
  H59      1.0000 0.00550  0.39360  0.92150  Biso   1.000  H
  C96      1.0000 0.16640  0.44190  0.91030  Biso   1.000  C
  H60      1.0000 0.19440  0.50510  0.93150  Biso   1.000  H
  C97      1.0000 0.58140  0.93780  0.93400  Biso   1.000  C
  C98      1.0000 0.59280  0.25240  0.93921  Biso   1.000  C
  C99      1.0000 0.88790  0.20010  0.87440  Biso   1.000  C
  C100     1.0000 0.86940  0.29230  0.02767  Biso   1.000  C
  H61      1.0000 0.89770  0.33130  0.99590  Biso   1.000  H
  C101     1.0000 0.93480  0.32980  0.07292  Biso   1.000  C
  H62      1.0000 0.00640  0.38990  0.07160  Biso   1.000  H
  C102     1.0000 0.89030  0.27510  0.11960  Biso   1.000  C
  C103     1.0000 0.78250  0.18900  0.12052  Biso   1.000  C
  H63      1.0000 0.74940  0.15450  0.15270  Biso   1.000  H
  C104     1.0000 0.72510  0.15520  0.07345  Biso   1.000  C
  H64      1.0000 0.65300  0.09580  0.07410  Biso   1.000  H
  Zn5      1.0000 0.45749  0.30752  0.61990  Biso   1.000  Zn
  O25      1.0000 0.39010  0.38720  0.56052  Biso   1.000  O
  O26      1.0000 0.37130  0.39400  0.64594  Biso   1.000  O
  O27      1.0000 0.60490  0.30820  0.59274  Biso   1.000  O
  O28      1.0000 0.61430  0.45330  0.62795  Biso   1.000  O
  O29      1.0000 0.27930  0.15040  0.50435  Biso   1.000  O
  O30      1.0000 0.37260  0.16680  0.57850  Biso   1.000  O
  N13      1.0000 0.12230  0.64750  0.56219  Biso   1.000  N
  N14      1.0000 0.43550  0.23170  0.69319  Biso   1.000  N
  N15      1.0000 0.35560  0.05090  0.83604  Biso   1.000  N
  C105     1.0000 0.18350  0.59390  0.57295  Biso   1.000  C
  C106     1.0000 0.25810  0.59610  0.53449  Biso   1.000  C
  H65      1.0000 0.26960  0.63510  0.50267  Biso   1.000  H
  C107     1.0000 0.31370  0.54000  0.54432  Biso   1.000  C
  H66      1.0000 0.36290  0.54110  0.51877  Biso   1.000  H
  C108     1.0000 0.29790  0.48220  0.59127  Biso   1.000  C
  C109     1.0000 0.22670  0.48210  0.62938  Biso   1.000  C
  H67      1.0000 0.21760  0.44470  0.66157  Biso   1.000  H
  C110     1.0000 0.16850  0.53670  0.62067  Biso   1.000  C
  H68      1.0000 0.11970  0.53520  0.64657  Biso   1.000  H
  C111     1.0000 0.00660  0.58870  0.57264  Biso   1.000  C
  C112     1.0000 0.94490  0.47830  0.55827  Biso   1.000  C
  H69      1.0000 0.97890  0.44400  0.54107  Biso   1.000  H
  C113     1.0000 0.83420  0.41970  0.56933  Biso   1.000  C
  H70      1.0000 0.79360  0.34530  0.55997  Biso   1.000  H
  C114     1.0000 0.78160  0.46960  0.59429  Biso   1.000  C
  C115     1.0000 0.84430  0.58060  0.60801  Biso   1.000  C
  H71      1.0000 0.81000  0.61540  0.62447  Biso   1.000  H
  C116     1.0000 0.95480  0.63950  0.59792  Biso   1.000  C
  H72      1.0000 0.99570  0.71360  0.60787  Biso   1.000  H
  C117     1.0000 0.17800  0.76270  0.55187  Biso   1.000  C
  C118     1.0000 0.13030  0.80580  0.51699  Biso   1.000  C
  H73      1.0000 0.06720  0.75850  0.49757  Biso   1.000  H
  C119     1.0000 0.17750  0.91890  0.51160  Biso   1.000  C
  H74      1.0000 0.14560  0.94740  0.48847  Biso   1.000  H
  C120     1.0000 0.27130  0.99040  0.53991  Biso   1.000  C
  C121     1.0000 0.32180  0.94700  0.57096  Biso   1.000  C
  H75      1.0000 0.38810  0.99450  0.58817  Biso   1.000  H
  C122     1.0000 0.27550  0.83360  0.57697  Biso   1.000  C
  H76      1.0000 0.31070  0.80560  0.59817  Biso   1.000  H
  C123     1.0000 0.35640  0.41860  0.60067  Biso   1.000  C
  C124     1.0000 0.65960  0.40720  0.60588  Biso   1.000  C
  C125     1.0000 0.31220  0.11210  0.54107  Biso   1.000  C
  C126     1.0000 0.42290  0.13060  0.69434  Biso   1.000  C
  H77      1.0000 0.43360  0.10230  0.66257  Biso   1.000  H
  C127     1.0000 0.39500  0.06520  0.73959  Biso   1.000  C
  H78      1.0000 0.38350  0.99360  0.73827  Biso   1.000  H
  C128     1.0000 0.38480  0.10970  0.78627  Biso   1.000  C
  C129     1.0000 0.40650  0.21750  0.78719  Biso   1.000  C
  H79      1.0000 0.40510  0.25060  0.81937  Biso   1.000  H
  C130     1.0000 0.43010  0.27490  0.74012  Biso   1.000  C
  H80      1.0000 0.44280  0.34700  0.74077  Biso   1.000  H
  Zn6      1.0000 0.85003  0.54251  0.28657  Biso   1.000  Zn
  O31      1.0000 0.99710  0.60990  0.22718  Biso   1.000  O
  O32      1.0000 0.02270  0.62870  0.31260  Biso   1.000  O
  O33      1.0000 0.70330  0.39510  0.25940  Biso   1.000  O
  O34      1.0000 0.83900  0.38570  0.29461  Biso   1.000  O
  O35      1.0000 0.87110  0.72070  0.17101  Biso   1.000  O
  O36      1.0000 0.79420  0.62740  0.24516  Biso   1.000  O
  N16      1.0000 0.52520  0.87770  0.22885  Biso   1.000  N
  N17      1.0000 0.79620  0.56450  0.35985  Biso   1.000  N
  N18      1.0000 0.69530  0.64440  0.50270  Biso   1.000  N
  C131     1.0000 0.41040  0.81650  0.23961  Biso   1.000  C
  C132     1.0000 0.33800  0.74190  0.20115  Biso   1.000  C
  H81      1.0000 0.36550  0.73040  0.16933  Biso   1.000  H
  C133     1.0000 0.22630  0.68630  0.21098  Biso   1.000  C
  H82      1.0000 0.17820  0.63710  0.18543  Biso   1.000  H
  C134     1.0000 0.18430  0.70210  0.25793  Biso   1.000  C
  C135     1.0000 0.25540  0.77330  0.29604  Biso   1.000  C
  H83      1.0000 0.22710  0.78240  0.32823  Biso   1.000  H
  C136     1.0000 0.36820  0.83150  0.28733  Biso   1.000  C
  H84      1.0000 0.41550  0.88030  0.31323  Biso   1.000  H
  C137     1.0000 0.58210  0.99340  0.23930  Biso   1.000  C
  C138     1.0000 0.53340  0.05510  0.22493  Biso   1.000  C
  H85      1.0000 0.46510  0.02110  0.20773  Biso   1.000  H
  C139     1.0000 0.58550  0.16580  0.23599  Biso   1.000  C
  H86      1.0000 0.55170  0.20640  0.22663  Biso   1.000  H
  C140     1.0000 0.68800  0.21840  0.26095  Biso   1.000  C
  C141     1.0000 0.73630  0.15570  0.27467  Biso   1.000  C
  H87      1.0000 0.80540  0.19000  0.29113  Biso   1.000  H
  C142     1.0000 0.68470  0.04520  0.26458  Biso   1.000  C
  H88      1.0000 0.71790  0.00430  0.27453  Biso   1.000  H
  C143     1.0000 0.58470  0.82200  0.21853  Biso   1.000  C
  C144     1.0000 0.67550  0.86970  0.18365  Biso   1.000  C
  H89      1.0000 0.69130  0.93280  0.16423  Biso   1.000  H
  C145     1.0000 0.74140  0.82250  0.17826  Biso   1.000  C
  H90      1.0000 0.80180  0.85440  0.15513  Biso   1.000  H
  C146     1.0000 0.71910  0.72870  0.20657  Biso   1.000  C
  C147     1.0000 0.62520  0.67820  0.23762  Biso   1.000  C
  H91      1.0000 0.60640  0.61190  0.25483  Biso   1.000  H
  C148     1.0000 0.55810  0.72450  0.24363  Biso   1.000  C
  H92      1.0000 0.49490  0.68930  0.26483  Biso   1.000  H
  C149     1.0000 0.06220  0.64360  0.26733  Biso   1.000  C
  C150     1.0000 0.74760  0.34040  0.27254  Biso   1.000  C
  C151     1.0000 0.79990  0.68780  0.20773  Biso   1.000  C
  C152     1.0000 0.70770  0.57710  0.36100  Biso   1.000  C
  H93      1.0000 0.66870  0.56640  0.32923  Biso   1.000  H
  C153     1.0000 0.67020  0.60500  0.40625  Biso   1.000  C
  H94      1.0000 0.61010  0.61650  0.40493  Biso   1.000  H
  C154     1.0000 0.72490  0.61520  0.45293  Biso   1.000  C
  C155     1.0000 0.81100  0.59350  0.45385  Biso   1.000  C
  H95      1.0000 0.84550  0.59490  0.48603  Biso   1.000  H
  C156     1.0000 0.84480  0.56990  0.40678  Biso   1.000  C
  H96      1.0000 0.90420  0.55720  0.40743  Biso   1.000  H
  Zn7      1.0000 0.00000  0.70335  0.16667  Biso   1.000  Zn
  Zn8      1.0000 0.29665  0.29665  0.50000  Biso   1.000  Zn
  Zn9      1.0000 0.70335  0.00000  0.83333  Biso   1.000  Zn
