data_image0
_cell_length_a       13.3069
_cell_length_b       25.629
_cell_length_c       9.856
_cell_angle_alpha    90
_cell_angle_beta     91.455
_cell_angle_gamma    90

_symmetry_space_group_name_H-M    "P 1"
_symmetry_int_tables_number       1

loop_
  _symmetry_equiv_pos_as_xyz
  'x, y, z'

loop_
  _atom_site_label
  _atom_site_occupancy
  _atom_site_fract_x
  _atom_site_fract_y
  _atom_site_fract_z
  _atom_site_thermal_displace_type
  _atom_site_B_iso_or_equiv
  _atom_site_type_symbol
  Cu1      1.0000 0.28158  0.51451  0.61777  Biso   1.000  Cu
  Cu2      1.0000 0.45975  0.45968  0.55024  Biso   1.000  Cu
  Cu3      1.0000 0.38741  0.54877  0.35097  Biso   1.000  Cu
  Cu4      1.0000 0.76672  0.88946  0.60964  Biso   1.000  Cu
  Cl1      1.0000 0.67617  0.81998  0.54022  Biso   1.000  Cl
  Cl2      1.0000 0.30079  0.54860  0.86157  Biso   1.000  Cl
  O1       1.0000 0.29840  0.60839  0.38600  Biso   1.000  O
  N1       1.0000 0.01470  0.80025  0.52390  Biso   1.000  N
  O2       1.0000 0.34700  0.44926  0.66450  Biso   1.000  O
  O3       1.0000 0.41270  0.53335  0.54170  Biso   1.000  O
  N2       1.0000 0.14260  0.57175  0.15800  Biso   1.000  N
  O4       1.0000 0.58140  0.47359  0.45740  Biso   1.000  O
  N3       1.0000 0.14940  0.51823  0.15930  Biso   1.000  N
  C1       1.0000 0.17540  0.66059  0.48890  Biso   1.000  C
  O5       1.0000 0.20880  0.57561  0.55570  Biso   1.000  O
  N4       1.0000 0.99990  0.53904  0.21810  Biso   1.000  N
  C2       1.0000 0.70080  0.51602  0.32200  Biso   1.000  C
  O6       1.0000 0.52540  0.52945  0.29600  Biso   1.000  O
  N5       1.0000 0.97940  0.88240  0.54250  Biso   1.000  N
  C3       1.0000 0.19060  0.70248  0.39480  Biso   1.000  C
  H1       1.0000 0.23710  0.69900  0.32380  Biso   1.000  H
  C4       1.0000 0.82190  0.56630  0.20730  Biso   1.000  C
  H2       1.0000 0.83770  0.59490  0.15060  Biso   1.000  H
  C5       1.0000 0.06520  0.49900  0.19660  Biso   1.000  C
  H3       1.0000 0.05090  0.46290  0.20740  Biso   1.000  H
  C6       1.0000 0.13670  0.74773  0.40950  Biso   1.000  C
  H4       1.0000 0.14580  0.77580  0.34810  Biso   1.000  H
  C7       1.0000 0.10610  0.66690  0.58820  Biso   1.000  C
  H5       1.0000 0.09430  0.63890  0.64910  Biso   1.000  H
  C8       1.0000 0.87450  0.49220  0.34620  Biso   1.000  C
  H6       1.0000 0.92620  0.47110  0.38540  Biso   1.000  H
  C9       1.0000 0.72570  0.55620  0.24100  Biso   1.000  C
  H7       1.0000 0.67390  0.57830  0.20630  Biso   1.000  H
  N6       1.0000 0.89530  0.85350  0.57160  Biso   1.000  N
  C10      1.0000 0.89730  0.53318  0.25850  Biso   1.000  C
  C11      1.0000 0.05090  0.85026  0.51390  Biso   1.000  C
  H8       1.0000 0.11720  0.85970  0.49000  Biso   1.000  H
  C12      1.0000 0.77680  0.48330  0.37370  Biso   1.000  C
  H9       1.0000 0.75950  0.45440  0.42890  Biso   1.000  H
  C13      1.0000 0.05400  0.71190  0.60170  Biso   1.000  C
  H10      1.0000 0.00690  0.71590  0.67180  Biso   1.000  H
  C14      1.0000 0.91920  0.80565  0.55870  Biso   1.000  C
  H11      1.0000 0.87440  0.77730  0.57230  Biso   1.000  H
  C15      1.0000 0.23140  0.61062  0.47390  Biso   1.000  C
  C16      1.0000 0.59270  0.50499  0.36090  Biso   1.000  C
  C17      1.0000 0.07140  0.75263  0.50960  Biso   1.000  C
  C18      1.0000 0.05150  0.58330  0.19170  Biso   1.000  C
  H12      1.0000 0.02510  0.61760  0.19690  Biso   1.000  H
  Cu5      1.0000 0.78158  0.01451  0.61777  Biso   1.000  Cu
  Cu6      1.0000 0.95975  0.95968  0.55024  Biso   1.000  Cu
  Cu7      1.0000 0.88741  0.04877  0.35097  Biso   1.000  Cu
  Cu8      1.0000 0.26672  0.38946  0.60964  Biso   1.000  Cu
  Cl3      1.0000 0.17617  0.31998  0.54022  Biso   1.000  Cl
  Cl4      1.0000 0.80079  0.04860  0.86157  Biso   1.000  Cl
  O7       1.0000 0.79840  0.10839  0.38600  Biso   1.000  O
  N7       1.0000 0.51470  0.30025  0.52390  Biso   1.000  N
  O8       1.0000 0.84700  0.94926  0.66450  Biso   1.000  O
  O9       1.0000 0.91270  0.03335  0.54170  Biso   1.000  O
  N8       1.0000 0.64260  0.07175  0.15800  Biso   1.000  N
  O10      1.0000 0.08140  0.97359  0.45740  Biso   1.000  O
  N9       1.0000 0.64940  0.01823  0.15930  Biso   1.000  N
  C19      1.0000 0.67540  0.16059  0.48890  Biso   1.000  C
  O11      1.0000 0.70880  0.07561  0.55570  Biso   1.000  O
  N10      1.0000 0.49990  0.03904  0.21810  Biso   1.000  N
  C20      1.0000 0.20080  0.01602  0.32200  Biso   1.000  C
  O12      1.0000 0.02540  0.02945  0.29600  Biso   1.000  O
  N11      1.0000 0.47940  0.38240  0.54250  Biso   1.000  N
  C21      1.0000 0.69060  0.20248  0.39480  Biso   1.000  C
  H13      1.0000 0.73710  0.19900  0.32380  Biso   1.000  H
  C22      1.0000 0.32190  0.06630  0.20730  Biso   1.000  C
  H14      1.0000 0.33770  0.09490  0.15060  Biso   1.000  H
  C23      1.0000 0.56520  0.99900  0.19660  Biso   1.000  C
  H15      1.0000 0.55090  0.96290  0.20740  Biso   1.000  H
  C24      1.0000 0.63670  0.24773  0.40950  Biso   1.000  C
  H16      1.0000 0.64580  0.27580  0.34810  Biso   1.000  H
  C25      1.0000 0.60610  0.16690  0.58820  Biso   1.000  C
  H17      1.0000 0.59430  0.13890  0.64910  Biso   1.000  H
  C26      1.0000 0.37450  0.99220  0.34620  Biso   1.000  C
  H18      1.0000 0.42620  0.97110  0.38540  Biso   1.000  H
  C27      1.0000 0.22570  0.05620  0.24100  Biso   1.000  C
  H19      1.0000 0.17390  0.07830  0.20630  Biso   1.000  H
  N12      1.0000 0.39530  0.35350  0.57160  Biso   1.000  N
  C28      1.0000 0.39730  0.03318  0.25850  Biso   1.000  C
  C29      1.0000 0.55090  0.35026  0.51390  Biso   1.000  C
  H20      1.0000 0.61720  0.35970  0.49000  Biso   1.000  H
  C30      1.0000 0.27680  0.98330  0.37370  Biso   1.000  C
  H21      1.0000 0.25950  0.95440  0.42890  Biso   1.000  H
  C31      1.0000 0.55400  0.21190  0.60170  Biso   1.000  C
  H22      1.0000 0.50690  0.21590  0.67180  Biso   1.000  H
  C32      1.0000 0.41920  0.30565  0.55870  Biso   1.000  C
  H23      1.0000 0.37440  0.27730  0.57230  Biso   1.000  H
  C33      1.0000 0.73140  0.11062  0.47390  Biso   1.000  C
  C34      1.0000 0.09270  0.00499  0.36090  Biso   1.000  C
  C35      1.0000 0.57140  0.25263  0.50960  Biso   1.000  C
  C36      1.0000 0.55150  0.08330  0.19170  Biso   1.000  C
  H24      1.0000 0.52510  0.11760  0.19690  Biso   1.000  H
  Cu9      1.0000 0.28158  0.48549  0.11777  Biso   1.000  Cu
  Cu10     1.0000 0.45975  0.54032  0.05024  Biso   1.000  Cu
  Cu11     1.0000 0.38741  0.45123  0.85097  Biso   1.000  Cu
  Cu12     1.0000 0.76672  0.11054  0.10964  Biso   1.000  Cu
  Cl5      1.0000 0.67617  0.18002  0.04022  Biso   1.000  Cl
  Cl6      1.0000 0.30079  0.45140  0.36157  Biso   1.000  Cl
  O13      1.0000 0.29840  0.39161  0.88600  Biso   1.000  O
  N13      1.0000 0.01470  0.19975  0.02390  Biso   1.000  N
  O14      1.0000 0.34700  0.55074  0.16450  Biso   1.000  O
  O15      1.0000 0.41270  0.46665  0.04170  Biso   1.000  O
  N14      1.0000 0.14260  0.42825  0.65800  Biso   1.000  N
  O16      1.0000 0.58140  0.52641  0.95740  Biso   1.000  O
  N15      1.0000 0.14940  0.48177  0.65930  Biso   1.000  N
  C37      1.0000 0.17540  0.33941  0.98890  Biso   1.000  C
  O17      1.0000 0.20880  0.42439  0.05570  Biso   1.000  O
  N16      1.0000 0.99990  0.46096  0.71810  Biso   1.000  N
  C38      1.0000 0.70080  0.48398  0.82200  Biso   1.000  C
  O18      1.0000 0.52540  0.47055  0.79600  Biso   1.000  O
  N17      1.0000 0.97940  0.11760  0.04250  Biso   1.000  N
  C39      1.0000 0.19060  0.29752  0.89480  Biso   1.000  C
  H25      1.0000 0.23710  0.30100  0.82380  Biso   1.000  H
  C40      1.0000 0.82190  0.43370  0.70730  Biso   1.000  C
  H26      1.0000 0.83770  0.40510  0.65060  Biso   1.000  H
  C41      1.0000 0.06520  0.50100  0.69660  Biso   1.000  C
  H27      1.0000 0.05090  0.53710  0.70740  Biso   1.000  H
  C42      1.0000 0.13670  0.25227  0.90950  Biso   1.000  C
  H28      1.0000 0.14580  0.22420  0.84810  Biso   1.000  H
  C43      1.0000 0.10610  0.33310  0.08820  Biso   1.000  C
  H29      1.0000 0.09430  0.36110  0.14910  Biso   1.000  H
  C44      1.0000 0.87450  0.50780  0.84620  Biso   1.000  C
  H30      1.0000 0.92620  0.52890  0.88540  Biso   1.000  H
  C45      1.0000 0.72570  0.44380  0.74100  Biso   1.000  C
  H31      1.0000 0.67390  0.42170  0.70630  Biso   1.000  H
  N18      1.0000 0.89530  0.14650  0.07160  Biso   1.000  N
  C46      1.0000 0.89730  0.46682  0.75850  Biso   1.000  C
  C47      1.0000 0.05090  0.14974  0.01390  Biso   1.000  C
  H32      1.0000 0.11720  0.14030  0.99000  Biso   1.000  H
  C48      1.0000 0.77680  0.51670  0.87370  Biso   1.000  C
  H33      1.0000 0.75950  0.54560  0.92890  Biso   1.000  H
  C49      1.0000 0.05400  0.28810  0.10170  Biso   1.000  C
  H34      1.0000 0.00690  0.28410  0.17180  Biso   1.000  H
  C50      1.0000 0.91920  0.19435  0.05870  Biso   1.000  C
  H35      1.0000 0.87440  0.22270  0.07230  Biso   1.000  H
  C51      1.0000 0.23140  0.38938  0.97390  Biso   1.000  C
  C52      1.0000 0.59270  0.49501  0.86090  Biso   1.000  C
  C53      1.0000 0.07140  0.24737  0.00960  Biso   1.000  C
  C54      1.0000 0.05150  0.41670  0.69170  Biso   1.000  C
  H36      1.0000 0.02510  0.38240  0.69690  Biso   1.000  H
  Cu13     1.0000 0.78158  0.98549  0.11777  Biso   1.000  Cu
  Cu14     1.0000 0.95975  0.04032  0.05024  Biso   1.000  Cu
  Cu15     1.0000 0.88741  0.95123  0.85097  Biso   1.000  Cu
  Cu16     1.0000 0.26672  0.61054  0.10964  Biso   1.000  Cu
  Cl7      1.0000 0.17617  0.68002  0.04022  Biso   1.000  Cl
  Cl8      1.0000 0.80079  0.95140  0.36157  Biso   1.000  Cl
  O19      1.0000 0.79840  0.89161  0.88600  Biso   1.000  O
  N19      1.0000 0.51470  0.69975  0.02390  Biso   1.000  N
  O20      1.0000 0.84700  0.05074  0.16450  Biso   1.000  O
  O21      1.0000 0.91270  0.96665  0.04170  Biso   1.000  O
  N20      1.0000 0.64260  0.92825  0.65800  Biso   1.000  N
  O22      1.0000 0.08140  0.02641  0.95740  Biso   1.000  O
  N21      1.0000 0.64940  0.98177  0.65930  Biso   1.000  N
  C55      1.0000 0.67540  0.83941  0.98890  Biso   1.000  C
  O23      1.0000 0.70880  0.92439  0.05570  Biso   1.000  O
  N22      1.0000 0.49990  0.96096  0.71810  Biso   1.000  N
  C56      1.0000 0.20080  0.98398  0.82200  Biso   1.000  C
  O24      1.0000 0.02540  0.97055  0.79600  Biso   1.000  O
  N23      1.0000 0.47940  0.61760  0.04250  Biso   1.000  N
  C57      1.0000 0.69060  0.79752  0.89480  Biso   1.000  C
  H37      1.0000 0.73710  0.80100  0.82380  Biso   1.000  H
  C58      1.0000 0.32190  0.93370  0.70730  Biso   1.000  C
  H38      1.0000 0.33770  0.90510  0.65060  Biso   1.000  H
  C59      1.0000 0.56520  0.00100  0.69660  Biso   1.000  C
  H39      1.0000 0.55090  0.03710  0.70740  Biso   1.000  H
  C60      1.0000 0.63670  0.75227  0.90950  Biso   1.000  C
  H40      1.0000 0.64580  0.72420  0.84810  Biso   1.000  H
  C61      1.0000 0.60610  0.83310  0.08820  Biso   1.000  C
  H41      1.0000 0.59430  0.86110  0.14910  Biso   1.000  H
  C62      1.0000 0.37450  0.00780  0.84620  Biso   1.000  C
  H42      1.0000 0.42620  0.02890  0.88540  Biso   1.000  H
  C63      1.0000 0.22570  0.94380  0.74100  Biso   1.000  C
  H43      1.0000 0.17390  0.92170  0.70630  Biso   1.000  H
  N24      1.0000 0.39530  0.64650  0.07160  Biso   1.000  N
  C64      1.0000 0.39730  0.96682  0.75850  Biso   1.000  C
  C65      1.0000 0.55090  0.64974  0.01390  Biso   1.000  C
  H44      1.0000 0.61720  0.64030  0.99000  Biso   1.000  H
  C66      1.0000 0.27680  0.01670  0.87370  Biso   1.000  C
  H45      1.0000 0.25950  0.04560  0.92890  Biso   1.000  H
  C67      1.0000 0.55400  0.78810  0.10170  Biso   1.000  C
  H46      1.0000 0.50690  0.78410  0.17180  Biso   1.000  H
  C68      1.0000 0.41920  0.69435  0.05870  Biso   1.000  C
  H47      1.0000 0.37440  0.72270  0.07230  Biso   1.000  H
  C69      1.0000 0.73140  0.88938  0.97390  Biso   1.000  C
  C70      1.0000 0.09270  0.99501  0.86090  Biso   1.000  C
  C71      1.0000 0.57140  0.74737  0.00960  Biso   1.000  C
  C72      1.0000 0.55150  0.91670  0.69170  Biso   1.000  C
  H48      1.0000 0.52510  0.88240  0.69690  Biso   1.000  H
