data_image0
_cell_length_a       12.5078
_cell_length_b       9.4304
_cell_length_c       7.0637
_cell_angle_alpha    90
_cell_angle_beta     106.724
_cell_angle_gamma    90

_symmetry_space_group_name_H-M    "P 1"
_symmetry_int_tables_number       1

loop_
  _symmetry_equiv_pos_as_xyz
  'x, y, z'

loop_
  _atom_site_label
  _atom_site_occupancy
  _atom_site_fract_x
  _atom_site_fract_y
  _atom_site_fract_z
  _atom_site_thermal_displace_type
  _atom_site_B_iso_or_equiv
  _atom_site_type_symbol
  Cd1      1.0000 0.78617  0.16221  0.62113  Biso   1.000  Cd
  O1       1.0000 0.61240  0.24160  0.69580  Biso   1.000  O
  C1       1.0000 0.57890  0.11850  0.66210  Biso   1.000  C
  N1       1.0000 0.21710  0.23760  0.77440  Biso   1.000  N
  H1       1.0000 0.23510  0.32580  0.78720  Biso   1.000  H
  H2       1.0000 0.15400  0.21010  0.78730  Biso   1.000  H
  O2       1.0000 0.63550  0.02350  0.60420  Biso   1.000  O
  C2       1.0000 0.46780  0.07830  0.68470  Biso   1.000  C
  C3       1.0000 0.43780  0.93550  0.67960  Biso   1.000  C
  H3       1.0000 0.48760  0.86730  0.66130  Biso   1.000  H
  C4       1.0000 0.39430  0.17900  0.71050  Biso   1.000  C
  H4       1.0000 0.41290  0.27460  0.71360  Biso   1.000  H
  C5       1.0000 0.26780  0.99220  0.72740  Biso   1.000  C
  H5       1.0000 0.20000  0.96280  0.74380  Biso   1.000  H
  C6       1.0000 0.29150  0.13740  0.73210  Biso   1.000  C
  N2       1.0000 0.33990  0.89380  0.70010  Biso   1.000  N
  Cd2      1.0000 0.28617  0.66221  0.62113  Biso   1.000  Cd
  O3       1.0000 0.11240  0.74160  0.69580  Biso   1.000  O
  C7       1.0000 0.07890  0.61850  0.66210  Biso   1.000  C
  N3       1.0000 0.71710  0.73760  0.77440  Biso   1.000  N
  H6       1.0000 0.73510  0.82580  0.78720  Biso   1.000  H
  H7       1.0000 0.65400  0.71010  0.78730  Biso   1.000  H
  O4       1.0000 0.13550  0.52350  0.60420  Biso   1.000  O
  C8       1.0000 0.96780  0.57830  0.68470  Biso   1.000  C
  C9       1.0000 0.93780  0.43550  0.67960  Biso   1.000  C
  H8       1.0000 0.98760  0.36730  0.66130  Biso   1.000  H
  C10      1.0000 0.89430  0.67900  0.71050  Biso   1.000  C
  H9       1.0000 0.91290  0.77460  0.71360  Biso   1.000  H
  C11      1.0000 0.76780  0.49220  0.72740  Biso   1.000  C
  H10      1.0000 0.70000  0.46280  0.74380  Biso   1.000  H
  C12      1.0000 0.79150  0.63740  0.73210  Biso   1.000  C
  N4       1.0000 0.83990  0.39380  0.70010  Biso   1.000  N
  Cd3      1.0000 0.78617  0.83779  0.12113  Biso   1.000  Cd
  O5       1.0000 0.61240  0.75840  0.19580  Biso   1.000  O
  C13      1.0000 0.57890  0.88150  0.16210  Biso   1.000  C
  N5       1.0000 0.21710  0.76240  0.27440  Biso   1.000  N
  H11      1.0000 0.23510  0.67420  0.28720  Biso   1.000  H
  H12      1.0000 0.15400  0.78990  0.28730  Biso   1.000  H
  O6       1.0000 0.63550  0.97650  0.10420  Biso   1.000  O
  C14      1.0000 0.46780  0.92170  0.18470  Biso   1.000  C
  C15      1.0000 0.43780  0.06450  0.17960  Biso   1.000  C
  H13      1.0000 0.48760  0.13270  0.16130  Biso   1.000  H
  C16      1.0000 0.39430  0.82100  0.21050  Biso   1.000  C
  H14      1.0000 0.41290  0.72540  0.21360  Biso   1.000  H
  C17      1.0000 0.26780  0.00780  0.22740  Biso   1.000  C
  H15      1.0000 0.20000  0.03720  0.24380  Biso   1.000  H
  C18      1.0000 0.29150  0.86260  0.23210  Biso   1.000  C
  N6       1.0000 0.33990  0.10620  0.20010  Biso   1.000  N
  Cd4      1.0000 0.28617  0.33779  0.12113  Biso   1.000  Cd
  O7       1.0000 0.11240  0.25840  0.19580  Biso   1.000  O
  C19      1.0000 0.07890  0.38150  0.16210  Biso   1.000  C
  N7       1.0000 0.71710  0.26240  0.27440  Biso   1.000  N
  H16      1.0000 0.73510  0.17420  0.28720  Biso   1.000  H
  H17      1.0000 0.65400  0.28990  0.28730  Biso   1.000  H
  O8       1.0000 0.13550  0.47650  0.10420  Biso   1.000  O
  C20      1.0000 0.96780  0.42170  0.18470  Biso   1.000  C
  C21      1.0000 0.93780  0.56450  0.17960  Biso   1.000  C
  H18      1.0000 0.98760  0.63270  0.16130  Biso   1.000  H
  C22      1.0000 0.89430  0.32100  0.21050  Biso   1.000  C
  H19      1.0000 0.91290  0.22540  0.21360  Biso   1.000  H
  C23      1.0000 0.76780  0.50780  0.22740  Biso   1.000  C
  H20      1.0000 0.70000  0.53720  0.24380  Biso   1.000  H
  C24      1.0000 0.79150  0.36260  0.23210  Biso   1.000  C
  N8       1.0000 0.83990  0.60620  0.20010  Biso   1.000  N
