data_KULRIT_clean
_audit_creation_date              2014-07-02
_audit_creation_method            'Materials Studio'
_symmetry_space_group_name_H-M    'P1'
_symmetry_Int_Tables_number       1
_symmetry_cell_setting            triclinic
loop_
_symmetry_equiv_pos_as_xyz
  x,y,z
_cell_length_a                    8.5773
_cell_length_b                    12.1397
_cell_length_c                    16.7281
_cell_angle_alpha                 90.0000
_cell_angle_beta                  90.0000
_cell_angle_gamma                 93.0360
loop_
_atom_site_label
_atom_site_type_symbol
_atom_site_fract_x
_atom_site_fract_y
_atom_site_fract_z
_atom_site_U_iso_or_equiv
_atom_site_adp_type
_atom_site_occupancy
Yb1    Yb    0.48160   0.06883   0.90197   0.01267  Uiso   1.00
Yb2    Yb    0.01840   0.43117   0.40197   0.01267  Uiso   1.00
Yb3    Yb    0.51840   0.93117   0.09803   0.01267  Uiso   1.00
Yb4    Yb    0.98160   0.56883   0.59803   0.01267  Uiso   1.00
H1     H     0.84930   0.81110   0.79320   0.01267  Uiso   1.00
H2     H     0.73580   0.71190   0.81870   0.01267  Uiso   1.00
H3     H     0.77100   0.75500   0.95300   0.01267  Uiso   1.00
H4     H     0.93810   0.90480   0.99430   0.01267  Uiso   1.00
H5     H     0.97970   0.93460   0.90530   0.01267  Uiso   1.00
H6     H     0.07600   0.74000   0.98600   0.01267  Uiso   1.00
H7     H     0.19910   0.69300   0.86690   0.01267  Uiso   1.00
H8     H     0.14400   0.79970   0.82480   0.01267  Uiso   1.00
H9     H     0.94200   0.61900   0.87300   0.01267  Uiso   1.00
H10    H     0.65070   0.68890   0.29320   0.01267  Uiso   1.00
H11    H     0.76420   0.78810   0.31870   0.01267  Uiso   1.00
H12    H     0.72900   0.74500   0.45300   0.01267  Uiso   1.00
H13    H     0.56190   0.59520   0.49430   0.01267  Uiso   1.00
H14    H     0.52030   0.56540   0.40530   0.01267  Uiso   1.00
H15    H     0.42400   0.76000   0.48600   0.01267  Uiso   1.00
H16    H     0.30090   0.80700   0.36690   0.01267  Uiso   1.00
H17    H     0.35600   0.70030   0.32480   0.01267  Uiso   1.00
H18    H     0.55800   0.88100   0.37300   0.01267  Uiso   1.00
H19    H     0.15070   0.18890   0.20680   0.01267  Uiso   1.00
H20    H     0.26420   0.28810   0.18130   0.01267  Uiso   1.00
H21    H     0.22900   0.24500   0.04700   0.01267  Uiso   1.00
H22    H     0.06190   0.09520   0.00570   0.01267  Uiso   1.00
H23    H     0.02030   0.06540   0.09470   0.01267  Uiso   1.00
H24    H     0.92400   0.26000   0.01400   0.01267  Uiso   1.00
H25    H     0.80090   0.30700   0.13310   0.01267  Uiso   1.00
H26    H     0.85600   0.20030   0.17520   0.01267  Uiso   1.00
H27    H     0.05800   0.38100   0.12700   0.01267  Uiso   1.00
H28    H     0.34930   0.31110   0.70680   0.01267  Uiso   1.00
H29    H     0.23580   0.21190   0.68130   0.01267  Uiso   1.00
H30    H     0.27100   0.25500   0.54700   0.01267  Uiso   1.00
H31    H     0.43810   0.40480   0.50570   0.01267  Uiso   1.00
H32    H     0.47970   0.43460   0.59470   0.01267  Uiso   1.00
H33    H     0.57600   0.24000   0.51400   0.01267  Uiso   1.00
H34    H     0.69910   0.19300   0.63310   0.01267  Uiso   1.00
H35    H     0.64400   0.29970   0.67520   0.01267  Uiso   1.00
H36    H     0.44200   0.11900   0.62700   0.01267  Uiso   1.00
C1     C     0.82980   0.75500   0.83370   0.01267  Uiso   1.00
C2     C     0.80320   0.81060   0.91340   0.01267  Uiso   1.00
C3     C     0.95490   0.87400   0.94170   0.01267  Uiso   1.00
C4     C     0.09500   0.79720   0.94510   0.01267  Uiso   1.00
C5     C     0.11490   0.74320   0.86380   0.01267  Uiso   1.00
C6     C     0.96680   0.67960   0.83580   0.01267  Uiso   1.00
C7     C     0.67950   0.89490   0.90770   0.01267  Uiso   1.00
C8     C     0.24030   0.86860   0.96670   0.01267  Uiso   1.00
C9     C     0.98240   0.63230   0.75210   0.01267  Uiso   1.00
C10    C     0.67020   0.74500   0.33370   0.01267  Uiso   1.00
C11    C     0.69680   0.68940   0.41340   0.01267  Uiso   1.00
C12    C     0.54510   0.62600   0.44170   0.01267  Uiso   1.00
C13    C     0.40500   0.70280   0.44510   0.01267  Uiso   1.00
C14    C     0.38510   0.75680   0.36380   0.01267  Uiso   1.00
C15    C     0.53320   0.82040   0.33580   0.01267  Uiso   1.00
C16    C     0.82050   0.60510   0.40770   0.01267  Uiso   1.00
C17    C     0.25970   0.63140   0.46670   0.01267  Uiso   1.00
C18    C     0.51760   0.86770   0.25210   0.01267  Uiso   1.00
C19    C     0.17020   0.24500   0.16630   0.01267  Uiso   1.00
C20    C     0.19680   0.18940   0.08660   0.01267  Uiso   1.00
C21    C     0.04510   0.12600   0.05830   0.01267  Uiso   1.00
C22    C     0.90500   0.20280   0.05490   0.01267  Uiso   1.00
C23    C     0.88510   0.25680   0.13620   0.01267  Uiso   1.00
C24    C     0.03320   0.32040   0.16420   0.01267  Uiso   1.00
C25    C     0.32050   0.10510   0.09230   0.01267  Uiso   1.00
C26    C     0.75970   0.13140   0.03330   0.01267  Uiso   1.00
C27    C     0.01760   0.36770   0.24790   0.01267  Uiso   1.00
C28    C     0.32980   0.25500   0.66630   0.01267  Uiso   1.00
C29    C     0.30320   0.31060   0.58660   0.01267  Uiso   1.00
C30    C     0.45490   0.37400   0.55830   0.01267  Uiso   1.00
C31    C     0.59500   0.29720   0.55490   0.01267  Uiso   1.00
C32    C     0.61490   0.24320   0.63620   0.01267  Uiso   1.00
C33    C     0.46680   0.17960   0.66420   0.01267  Uiso   1.00
C34    C     0.17950   0.39490   0.59230   0.01267  Uiso   1.00
C35    C     0.74030   0.36860   0.53330   0.01267  Uiso   1.00
C36    C     0.48240   0.13230   0.74790   0.01267  Uiso   1.00
O1     O     0.66180   0.94900   0.84630   0.01267  Uiso   1.00
O2     O     0.59460   0.91300   0.96900   0.01267  Uiso   1.00
O3     O     0.28630   0.93970   0.91600   0.01267  Uiso   1.00
O4     O     0.30300   0.85390   0.03430   0.01267  Uiso   1.00
O5     O     0.89680   0.55020   0.73210   0.01267  Uiso   1.00
O6     O     0.07320   0.68050   0.70210   0.01267  Uiso   1.00
O7     O     0.83820   0.55100   0.34630   0.01267  Uiso   1.00
O8     O     0.90540   0.58700   0.46900   0.01267  Uiso   1.00
O9     O     0.21370   0.56030   0.41600   0.01267  Uiso   1.00
O10    O     0.19700   0.64610   0.53430   0.01267  Uiso   1.00
O11    O     0.60320   0.94980   0.23210   0.01267  Uiso   1.00
O12    O     0.42680   0.81950   0.20210   0.01267  Uiso   1.00
O13    O     0.33820   0.05100   0.15370   0.01267  Uiso   1.00
O14    O     0.40540   0.08700   0.03100   0.01267  Uiso   1.00
O15    O     0.71370   0.06030   0.08400   0.01267  Uiso   1.00
O16    O     0.69700   0.14610   0.96570   0.01267  Uiso   1.00
O17    O     0.10320   0.44980   0.26790   0.01267  Uiso   1.00
O18    O     0.92680   0.31950   0.29790   0.01267  Uiso   1.00
O19    O     0.16180   0.44900   0.65370   0.01267  Uiso   1.00
O20    O     0.09460   0.41300   0.53100   0.01267  Uiso   1.00
O21    O     0.78630   0.43970   0.58400   0.01267  Uiso   1.00
O22    O     0.80300   0.35390   0.46570   0.01267  Uiso   1.00
O23    O     0.39680   0.05020   0.76790   0.01267  Uiso   1.00
O24    O     0.57320   0.18050   0.79790   0.01267  Uiso   1.00
