data_image0
_cell_length_a       9.2823
_cell_length_b       14.575
_cell_length_c       19.371
_cell_angle_alpha    90
_cell_angle_beta     98.05
_cell_angle_gamma    90

_symmetry_space_group_name_H-M    "P 1"
_symmetry_int_tables_number       1

loop_
  _symmetry_equiv_pos_as_xyz
  'x, y, z'

loop_
  _atom_site_label
  _atom_site_occupancy
  _atom_site_fract_x
  _atom_site_fract_y
  _atom_site_fract_z
  _atom_site_thermal_displace_type
  _atom_site_B_iso_or_equiv
  _atom_site_type_symbol
  W1       1.0000 0.22714  0.31095  0.34990  Biso   1.000  W
  Cu1      1.0000 0.11694  0.14224  0.31144  Biso   1.000  Cu
  Cu2      1.0000 0.20178  0.36407  0.21391  Biso   1.000  Cu
  Cu3      1.0000 0.24557  0.26692  0.48306  Biso   1.000  Cu
  S1       1.0000 0.03373  0.28398  0.27103  Biso   1.000  S
  S2       1.0000 0.30570  0.17558  0.39802  Biso   1.000  S
  S3       1.0000 0.39869  0.37476  0.30001  Biso   1.000  S
  S4       1.0000 0.16465  0.39880  0.43416  Biso   1.000  S
  N1       1.0000 0.24120  0.08810  0.23260  Biso   1.000  N
  N2       1.0000 0.25000  0.30390  0.12980  Biso   1.000  N
  N3       1.0000 0.90340  0.98320  0.31290  Biso   1.000  N
  N4       1.0000 0.39780  0.94220  0.01950  Biso   1.000  N
  N5       1.0000 0.54130  0.07760  0.03720  Biso   1.000  N
  C1       1.0000 0.97860  0.04530  0.31810  Biso   1.000  C
  C2       1.0000 0.25610  0.27320  0.07580  Biso   1.000  C
  C3       1.0000 0.17600  0.03340  0.18260  Biso   1.000  C
  H1       1.0000 0.08450  0.01060  0.18760  Biso   1.000  H
  C4       1.0000 0.23520  0.00830  0.12410  Biso   1.000  C
  H2       1.0000 0.18480  0.97070  0.09020  Biso   1.000  H
  C5       1.0000 0.37230  0.04100  0.11770  Biso   1.000  C
  C6       1.0000 0.44260  0.09620  0.16920  Biso   1.000  C
  H3       1.0000 0.53580  0.11800  0.16650  Biso   1.000  H
  C7       1.0000 0.37260  0.11830  0.22460  Biso   1.000  C
  H4       1.0000 0.42000  0.15680  0.25880  Biso   1.000  H
  C8       1.0000 0.44220  0.01950  0.05450  Biso   1.000  C
  W2       1.0000 0.77286  0.81095  0.15010  Biso   1.000  W
  Cu4      1.0000 0.88306  0.64224  0.18856  Biso   1.000  Cu
  Cu5      1.0000 0.79822  0.86407  0.28609  Biso   1.000  Cu
  Cu6      1.0000 0.75443  0.76692  0.01694  Biso   1.000  Cu
  S5       1.0000 0.96627  0.78398  0.22897  Biso   1.000  S
  S6       1.0000 0.69430  0.67558  0.10198  Biso   1.000  S
  S7       1.0000 0.60131  0.87476  0.19999  Biso   1.000  S
  S8       1.0000 0.83535  0.89880  0.06584  Biso   1.000  S
  N6       1.0000 0.75880  0.58810  0.26740  Biso   1.000  N
  N7       1.0000 0.75000  0.80390  0.37020  Biso   1.000  N
  N8       1.0000 0.09660  0.48320  0.18710  Biso   1.000  N
  N9       1.0000 0.60220  0.44220  0.48050  Biso   1.000  N
  N10      1.0000 0.45870  0.57760  0.46280  Biso   1.000  N
  C9       1.0000 0.02140  0.54530  0.18190  Biso   1.000  C
  C10      1.0000 0.74390  0.77320  0.42420  Biso   1.000  C
  C11      1.0000 0.82400  0.53340  0.31740  Biso   1.000  C
  H5       1.0000 0.91550  0.51060  0.31240  Biso   1.000  H
  C12      1.0000 0.76480  0.50830  0.37590  Biso   1.000  C
  H6       1.0000 0.81520  0.47070  0.40980  Biso   1.000  H
  C13      1.0000 0.62770  0.54100  0.38230  Biso   1.000  C
  C14      1.0000 0.55740  0.59620  0.33080  Biso   1.000  C
  H7       1.0000 0.46420  0.61800  0.33350  Biso   1.000  H
  C15      1.0000 0.62740  0.61830  0.27540  Biso   1.000  C
  H8       1.0000 0.58000  0.65680  0.24120  Biso   1.000  H
  C16      1.0000 0.55780  0.51950  0.44550  Biso   1.000  C
  W3       1.0000 0.77286  0.68905  0.65010  Biso   1.000  W
  Cu7      1.0000 0.88306  0.85776  0.68856  Biso   1.000  Cu
  Cu8      1.0000 0.79822  0.63593  0.78609  Biso   1.000  Cu
  Cu9      1.0000 0.75443  0.73308  0.51694  Biso   1.000  Cu
  S9       1.0000 0.96627  0.71602  0.72897  Biso   1.000  S
  S10      1.0000 0.69430  0.82442  0.60198  Biso   1.000  S
  S11      1.0000 0.60131  0.62524  0.69999  Biso   1.000  S
  S12      1.0000 0.83535  0.60120  0.56584  Biso   1.000  S
  N11      1.0000 0.75880  0.91190  0.76740  Biso   1.000  N
  N12      1.0000 0.75000  0.69610  0.87020  Biso   1.000  N
  N13      1.0000 0.09660  0.01680  0.68710  Biso   1.000  N
  N14      1.0000 0.60220  0.05780  0.98050  Biso   1.000  N
  N15      1.0000 0.45870  0.92240  0.96280  Biso   1.000  N
  C17      1.0000 0.02140  0.95470  0.68190  Biso   1.000  C
  C18      1.0000 0.74390  0.72680  0.92420  Biso   1.000  C
  C19      1.0000 0.82400  0.96660  0.81740  Biso   1.000  C
  H9       1.0000 0.91550  0.98940  0.81240  Biso   1.000  H
  C20      1.0000 0.76480  0.99170  0.87590  Biso   1.000  C
  H10      1.0000 0.81520  0.02930  0.90980  Biso   1.000  H
  C21      1.0000 0.62770  0.95900  0.88230  Biso   1.000  C
  C22      1.0000 0.55740  0.90380  0.83080  Biso   1.000  C
  H11      1.0000 0.46420  0.88200  0.83350  Biso   1.000  H
  C23      1.0000 0.62740  0.88170  0.77540  Biso   1.000  C
  H12      1.0000 0.58000  0.84320  0.74120  Biso   1.000  H
  C24      1.0000 0.55780  0.98050  0.94550  Biso   1.000  C
  W4       1.0000 0.22714  0.18905  0.84990  Biso   1.000  W
  Cu10     1.0000 0.11694  0.35776  0.81144  Biso   1.000  Cu
  Cu11     1.0000 0.20178  0.13593  0.71391  Biso   1.000  Cu
  Cu12     1.0000 0.24557  0.23308  0.98306  Biso   1.000  Cu
  S13      1.0000 0.03373  0.21602  0.77103  Biso   1.000  S
  S14      1.0000 0.30570  0.32442  0.89802  Biso   1.000  S
  S15      1.0000 0.39869  0.12524  0.80001  Biso   1.000  S
  S16      1.0000 0.16465  0.10120  0.93416  Biso   1.000  S
  N16      1.0000 0.24120  0.41190  0.73260  Biso   1.000  N
  N17      1.0000 0.25000  0.19610  0.62980  Biso   1.000  N
  N18      1.0000 0.90340  0.51680  0.81290  Biso   1.000  N
  N19      1.0000 0.39780  0.55780  0.51950  Biso   1.000  N
  N20      1.0000 0.54130  0.42240  0.53720  Biso   1.000  N
  C25      1.0000 0.97860  0.45470  0.81810  Biso   1.000  C
  C26      1.0000 0.25610  0.22680  0.57580  Biso   1.000  C
  C27      1.0000 0.17600  0.46660  0.68260  Biso   1.000  C
  H13      1.0000 0.08450  0.48940  0.68760  Biso   1.000  H
  C28      1.0000 0.23520  0.49170  0.62410  Biso   1.000  C
  H14      1.0000 0.18480  0.52930  0.59020  Biso   1.000  H
  C29      1.0000 0.37230  0.45900  0.61770  Biso   1.000  C
  C30      1.0000 0.44260  0.40380  0.66920  Biso   1.000  C
  H15      1.0000 0.53580  0.38200  0.66650  Biso   1.000  H
  C31      1.0000 0.37260  0.38170  0.72460  Biso   1.000  C
  H16      1.0000 0.42000  0.34320  0.75880  Biso   1.000  H
  C32      1.0000 0.44220  0.48050  0.55450  Biso   1.000  C
