data_image0
_cell_length_a       7.8334
_cell_length_b       17.2763
_cell_length_c       9.445
_cell_angle_alpha    90
_cell_angle_beta     100.475
_cell_angle_gamma    90

_symmetry_space_group_name_H-M    "P 1"
_symmetry_int_tables_number       1

loop_
  _symmetry_equiv_pos_as_xyz
  'x, y, z'

loop_
  _atom_site_label
  _atom_site_occupancy
  _atom_site_fract_x
  _atom_site_fract_y
  _atom_site_fract_z
  _atom_site_thermal_displace_type
  _atom_site_B_iso_or_equiv
  _atom_site_type_symbol
  Zn1      1.0000 0.38862  0.32616  0.26230  Biso   1.000  Zn
  Zn2      1.0000 0.76805  0.25055  0.48981  Biso   1.000  Zn
  O1       1.0000 0.94440  0.32906  0.57680  Biso   1.000  O
  O2       1.0000 0.58710  0.16761  0.42430  Biso   1.000  O
  O3       1.0000 0.56930  0.89620  0.56620  Biso   1.000  O
  O4       1.0000 0.19790  0.70454  0.85390  Biso   1.000  O
  O5       1.0000 0.41700  0.81118  0.41520  Biso   1.000  O
  C1       1.0000 0.42710  0.94101  0.33680  Biso   1.000  C
  C2       1.0000 0.32170  0.92468  0.20520  Biso   1.000  C
  H1       1.0000 0.29110  0.87270  0.17970  Biso   1.000  H
  C3       1.0000 0.13020  0.66422  0.74640  Biso   1.000  C
  O6       1.0000 0.38370  0.21211  0.24450  Biso   1.000  O
  C4       1.0000 0.41480  0.07704  0.27860  Biso   1.000  C
  C5       1.0000 0.30440  0.06156  0.14870  Biso   1.000  C
  H2       1.0000 0.25880  0.10270  0.08630  Biso   1.000  H
  C6       1.0000 0.05110  0.45076  0.66430  Biso   1.000  C
  C7       1.0000 0.22610  0.46294  0.90170  Biso   1.000  C
  C8       1.0000 0.04620  0.53127  0.65110  Biso   1.000  C
  H3       1.0000 0.98420  0.55450  0.56590  Biso   1.000  H
  C9       1.0000 0.14210  0.41697  0.79010  Biso   1.000  C
  H4       1.0000 0.14650  0.36220  0.79920  Biso   1.000  H
  C10      1.0000 0.21980  0.54327  0.88710  Biso   1.000  C
  H5       1.0000 0.27670  0.57480  0.96370  Biso   1.000  H
  C11      1.0000 0.31050  0.42710  0.04190  Biso   1.000  C
  C12      1.0000 0.26130  0.98453  0.11100  Biso   1.000  C
  C13      1.0000 0.47680  0.01729  0.37170  Biso   1.000  C
  H6       1.0000 0.55330  0.02820  0.45950  Biso   1.000  H
  C14      1.0000 0.13180  0.57778  0.76230  Biso   1.000  C
  C15      1.0000 0.46610  0.15894  0.31900  Biso   1.000  C
  O7       1.0000 0.87900  0.43129  0.43190  Biso   1.000  O
  O8       1.0000 0.07590  0.03015  0.90710  Biso   1.000  O
  H7       1.0000 0.01000  0.01790  0.82990  Biso   1.000  H
  O9       1.0000 0.10870  0.90208  0.92870  Biso   1.000  O
  O10      1.0000 0.31790  0.35455  0.05220  Biso   1.000  O
  O11      1.0000 0.36480  0.47037  0.14560  Biso   1.000  O
  C16      1.0000 0.95030  0.40054  0.54870  Biso   1.000  C
  C17      1.0000 0.14280  0.96757  0.97280  Biso   1.000  C
  C18      1.0000 0.47560  0.87785  0.44690  Biso   1.000  C
  O12      1.0000 0.06290  0.69352  0.62490  Biso   1.000  O
  Zn3      1.0000 0.61138  0.82616  0.73770  Biso   1.000  Zn
  Zn4      1.0000 0.23195  0.75055  0.51019  Biso   1.000  Zn
  O13      1.0000 0.05560  0.82906  0.42320  Biso   1.000  O
  O14      1.0000 0.41290  0.66761  0.57570  Biso   1.000  O
  O15      1.0000 0.43070  0.39620  0.43380  Biso   1.000  O
  O16      1.0000 0.80210  0.20454  0.14610  Biso   1.000  O
  O17      1.0000 0.58300  0.31118  0.58480  Biso   1.000  O
  C19      1.0000 0.57290  0.44101  0.66320  Biso   1.000  C
  C20      1.0000 0.67830  0.42468  0.79480  Biso   1.000  C
  H8       1.0000 0.70890  0.37270  0.82030  Biso   1.000  H
  C21      1.0000 0.86980  0.16422  0.25360  Biso   1.000  C
  O18      1.0000 0.61630  0.71211  0.75550  Biso   1.000  O
  C22      1.0000 0.58520  0.57704  0.72140  Biso   1.000  C
  C23      1.0000 0.69560  0.56156  0.85130  Biso   1.000  C
  H9       1.0000 0.74120  0.60270  0.91370  Biso   1.000  H
  C24      1.0000 0.94890  0.95076  0.33570  Biso   1.000  C
  C25      1.0000 0.77390  0.96294  0.09830  Biso   1.000  C
  C26      1.0000 0.95380  0.03127  0.34890  Biso   1.000  C
  H10      1.0000 0.01580  0.05450  0.43410  Biso   1.000  H
  C27      1.0000 0.85790  0.91697  0.20990  Biso   1.000  C
  H11      1.0000 0.85350  0.86220  0.20080  Biso   1.000  H
  C28      1.0000 0.78020  0.04327  0.11290  Biso   1.000  C
  H12      1.0000 0.72330  0.07480  0.03630  Biso   1.000  H
  C29      1.0000 0.68950  0.92710  0.95810  Biso   1.000  C
  C30      1.0000 0.73870  0.48453  0.88900  Biso   1.000  C
  C31      1.0000 0.52320  0.51729  0.62830  Biso   1.000  C
  H13      1.0000 0.44670  0.52820  0.54050  Biso   1.000  H
  C32      1.0000 0.86820  0.07778  0.23770  Biso   1.000  C
  C33      1.0000 0.53390  0.65894  0.68100  Biso   1.000  C
  O19      1.0000 0.12100  0.93129  0.56810  Biso   1.000  O
  O20      1.0000 0.92410  0.53015  0.09290  Biso   1.000  O
  H14      1.0000 0.99000  0.51790  0.17010  Biso   1.000  H
  O21      1.0000 0.89130  0.40208  0.07130  Biso   1.000  O
  O22      1.0000 0.68210  0.85455  0.94780  Biso   1.000  O
  O23      1.0000 0.63520  0.97037  0.85440  Biso   1.000  O
  C34      1.0000 0.04970  0.90054  0.45130  Biso   1.000  C
  C35      1.0000 0.85720  0.46757  0.02720  Biso   1.000  C
  C36      1.0000 0.52440  0.37785  0.55310  Biso   1.000  C
  O24      1.0000 0.93710  0.19352  0.37510  Biso   1.000  O
