data_KUNWEW_clean
_audit_creation_date              2014-07-02
_audit_creation_method            'Materials Studio'
_symmetry_space_group_name_H-M    'P1'
_symmetry_Int_Tables_number       1
_symmetry_cell_setting            triclinic
loop_
_symmetry_equiv_pos_as_xyz
  x,y,z
_cell_length_a                    10.9290
_cell_length_b                    16.5940
_cell_length_c                    18.2770
_cell_angle_alpha                 63.0020
_cell_angle_beta                  72.6034
_cell_angle_gamma                 90.0000
loop_
_atom_site_label
_atom_site_type_symbol
_atom_site_fract_x
_atom_site_fract_y
_atom_site_fract_z
_atom_site_U_iso_or_equiv
_atom_site_adp_type
_atom_site_occupancy
Zn1    Zn    0.57411   0.78544   0.64924   0.01267  Uiso   1.00
Zn2    Zn    0.63569   0.47716   0.15342   0.01267  Uiso   1.00
Zn3    Zn    0.42589   0.43468   0.35076   0.01267  Uiso   1.00
Zn4    Zn    0.36431   0.63058   0.84658   0.01267  Uiso   1.00
Zn5    Zn    0.77665   0.28544   0.64924   0.01267  Uiso   1.00
Zn6    Zn    0.21089   0.97716   0.15342   0.01267  Uiso   1.00
Zn7    Zn    0.22335   0.93468   0.35076   0.01267  Uiso   1.00
Zn8    Zn    0.78911   0.13058   0.84658   0.01267  Uiso   1.00
H1     H     0.73550   0.49120   0.70840   0.01267  Uiso   1.00
H2     H     0.73420   0.31880   0.94900   0.01267  Uiso   1.00
H3     H     0.63400   0.56640   0.89440   0.01267  Uiso   1.00
H4     H     0.93750   0.99010   0.64100   0.01267  Uiso   1.00
H5     H     0.76730   0.85820   0.73620   0.01267  Uiso   1.00
H6     H     0.90810   0.01070   0.36740   0.01267  Uiso   1.00
H7     H     0.81790   0.99770   0.27060   0.01267  Uiso   1.00
H8     H     0.62510   0.90060   0.32600   0.01267  Uiso   1.00
H9     H     0.52330   0.82430   0.47220   0.01267  Uiso   1.00
H10    H     0.03850   0.09590   0.47780   0.01267  Uiso   1.00
H11    H     0.02530   0.05540   0.41720   0.01267  Uiso   1.00
H12    H     0.98890   0.18170   0.29980   0.01267  Uiso   1.00
H13    H     0.86440   0.29110   0.24260   0.01267  Uiso   1.00
H14    H     0.65220   0.23650   0.48400   0.01267  Uiso   1.00
H15    H     0.77060   0.12550   0.54080   0.01267  Uiso   1.00
H16    H     0.26450   0.19960   0.29160   0.01267  Uiso   1.00
H17    H     0.26580   0.26780   0.05100   0.01267  Uiso   1.00
H18    H     0.36600   0.46080   0.10560   0.01267  Uiso   1.00
H19    H     0.06250   0.63110   0.35900   0.01267  Uiso   1.00
H20    H     0.23270   0.59440   0.26380   0.01267  Uiso   1.00
H21    H     0.09190   0.37810   0.63260   0.01267  Uiso   1.00
H22    H     0.18210   0.26830   0.72940   0.01267  Uiso   1.00
H23    H     0.37490   0.22660   0.67400   0.01267  Uiso   1.00
H24    H     0.47670   0.29650   0.52780   0.01267  Uiso   1.00
H25    H     0.96150   0.57370   0.52220   0.01267  Uiso   1.00
H26    H     0.97470   0.47260   0.58280   0.01267  Uiso   1.00
H27    H     0.01110   0.48150   0.70020   0.01267  Uiso   1.00
H28    H     0.13560   0.53370   0.75740   0.01267  Uiso   1.00
H29    H     0.34780   0.72050   0.51600   0.01267  Uiso   1.00
H30    H     0.22940   0.66630   0.45920   0.01267  Uiso   1.00
H31    H     0.55610   0.99120   0.70840   0.01267  Uiso   1.00
H32    H     0.31680   0.81880   0.94900   0.01267  Uiso   1.00
H33    H     0.47160   0.06640   0.89440   0.01267  Uiso   1.00
H34    H     0.42150   0.49010   0.64100   0.01267  Uiso   1.00
H35    H     0.49650   0.35820   0.73620   0.01267  Uiso   1.00
H36    H     0.72450   0.51070   0.36740   0.01267  Uiso   1.00
H37    H     0.91150   0.49770   0.27060   0.01267  Uiso   1.00
H38    H     0.04890   0.40060   0.32600   0.01267  Uiso   1.00
H39    H     0.00450   0.32430   0.47220   0.01267  Uiso   1.00
H40    H     0.48370   0.59590   0.47780   0.01267  Uiso   1.00
H41    H     0.55750   0.55540   0.41720   0.01267  Uiso   1.00
H42    H     0.71130   0.68170   0.29980   0.01267  Uiso   1.00
H43    H     0.89300   0.79110   0.24260   0.01267  Uiso   1.00
H44    H     0.86380   0.73650   0.48400   0.01267  Uiso   1.00
H45    H     0.68860   0.62550   0.54080   0.01267  Uiso   1.00
H46    H     0.44390   0.69960   0.29160   0.01267  Uiso   1.00
H47    H     0.68320   0.76780   0.05100   0.01267  Uiso   1.00
H48    H     0.52840   0.96080   0.10560   0.01267  Uiso   1.00
H49    H     0.57850   0.13110   0.35900   0.01267  Uiso   1.00
H50    H     0.50350   0.09440   0.26380   0.01267  Uiso   1.00
H51    H     0.27550   0.87810   0.63260   0.01267  Uiso   1.00
H52    H     0.08850   0.76830   0.72940   0.01267  Uiso   1.00
H53    H     0.95110   0.72660   0.67400   0.01267  Uiso   1.00
H54    H     0.99550   0.79650   0.52780   0.01267  Uiso   1.00
H55    H     0.51630   0.07370   0.52220   0.01267  Uiso   1.00
H56    H     0.44250   0.97260   0.58280   0.01267  Uiso   1.00
H57    H     0.28870   0.98150   0.70020   0.01267  Uiso   1.00
H58    H     0.10700   0.03370   0.75740   0.01267  Uiso   1.00
H59    H     0.13620   0.22050   0.51600   0.01267  Uiso   1.00
H60    H     0.31140   0.16630   0.45920   0.01267  Uiso   1.00
C1     C     0.72161   0.47791   0.76578   0.01267  Uiso   1.00
C2     C     0.74324   0.39454   0.82352   0.01267  Uiso   1.00
C3     C     0.72294   0.37554   0.90912   0.01267  Uiso   1.00
C4     C     0.68540   0.44220   0.93520   0.01267  Uiso   1.00
C5     C     0.66210   0.52310   0.87680   0.01267  Uiso   1.00
C6     C     0.67943   0.54193   0.79274   0.01267  Uiso   1.00
C7     C     0.66930   0.42390   0.02660   0.01267  Uiso   1.00
C8     C     0.64992   0.63142   0.73096   0.01267  Uiso   1.00
C9     C     0.78046   0.32316   0.79648   0.01267  Uiso   1.00
C10    C     0.88650   0.96200   0.62380   0.01267  Uiso   1.00
C11    C     0.79180   0.88990   0.67580   0.01267  Uiso   1.00
C12    C     0.79721   0.93011   0.54518   0.01267  Uiso   1.00
C13    C     0.75907   0.92787   0.47506   0.01267  Uiso   1.00
C14    C     0.82830   0.97420   0.38800   0.01267  Uiso   1.00
C15    C     0.77530   0.96520   0.33040   0.01267  Uiso   1.00
C16    C     0.66110   0.90850   0.36280   0.01267  Uiso   1.00
C17    C     0.60090   0.86350   0.45060   0.01267  Uiso   1.00
C18    C     0.97680   0.07090   0.46180   0.01267  Uiso   1.00
C19    C     0.89328   0.14328   0.42504   0.01267  Uiso   1.00
C20    C     0.91990   0.19230   0.33700   0.01267  Uiso   1.00
C21    C     0.84503   0.25773   0.30254   0.01267  Uiso   1.00
C22    C     0.74245   0.27285   0.35750   0.01267  Uiso   1.00
C23    C     0.71869   0.22429   0.44662   0.01267  Uiso   1.00
C24    C     0.79038   0.15918   0.48064   0.01267  Uiso   1.00
C25    C     0.66095   0.34295   0.31990   0.01267  Uiso   1.00
C26    C     0.27839   0.24369   0.23422   0.01267  Uiso   1.00
C27    C     0.25676   0.21806   0.17648   0.01267  Uiso   1.00
C28    C     0.27706   0.28466   0.09088   0.01267  Uiso   1.00
C29    C     0.31460   0.37740   0.06480   0.01267  Uiso   1.00
C30    C     0.33790   0.39990   0.12320   0.01267  Uiso   1.00
C31    C     0.32057   0.33467   0.20726   0.01267  Uiso   1.00
C32    C     0.33070   0.45050   0.97340   0.01267  Uiso   1.00
C33    C     0.35008   0.36238   0.26904   0.01267  Uiso   1.00
C34    C     0.21954   0.11964   0.20352   0.01267  Uiso   1.00
C35    C     0.11350   0.58580   0.37620   0.01267  Uiso   1.00
C36    C     0.20820   0.56570   0.32420   0.01267  Uiso   1.00
C37    C     0.20279   0.47529   0.45482   0.01267  Uiso   1.00
C38    C     0.24093   0.40293   0.52494   0.01267  Uiso   1.00
C39    C     0.17170   0.36220   0.61200   0.01267  Uiso   1.00
C40    C     0.22470   0.29560   0.66960   0.01267  Uiso   1.00
C41    C     0.33890   0.27130   0.63720   0.01267  Uiso   1.00
C42    C     0.39910   0.31410   0.54940   0.01267  Uiso   1.00
C43    C     0.02320   0.53270   0.53820   0.01267  Uiso   1.00
C44    C     0.10672   0.56832   0.57496   0.01267  Uiso   1.00
C45    C     0.08010   0.52930   0.66300   0.01267  Uiso   1.00
C46    C     0.15497   0.56027   0.69746   0.01267  Uiso   1.00
C47    C     0.25755   0.63035   0.64250   0.01267  Uiso   1.00
C48    C     0.28131   0.67091   0.55338   0.01267  Uiso   1.00
C49    C     0.20962   0.63982   0.51936   0.01267  Uiso   1.00
C50    C     0.33905   0.66285   0.68010   0.01267  Uiso   1.00
C51    C     0.51261   0.97791   0.76578   0.01267  Uiso   1.00
C52    C     0.43324   0.89454   0.82352   0.01267  Uiso   1.00
C53    C     0.36794   0.87554   0.90912   0.01267  Uiso   1.00
C54    C     0.37940   0.94220   0.93520   0.01267  Uiso   1.00
C55    C     0.46110   0.02310   0.87680   0.01267  Uiso   1.00
C56    C     0.52783   0.04193   0.79274   0.01267  Uiso   1.00
C57    C     0.30410   0.92390   0.02660   0.01267  Uiso   1.00
C58    C     0.61912   0.13142   0.73096   0.01267  Uiso   1.00
C59    C     0.42306   0.82316   0.79648   0.01267  Uiso   1.00
C60    C     0.48970   0.46200   0.62380   0.01267  Uiso   1.00
C61    C     0.53240   0.38990   0.67580   0.01267  Uiso   1.00
C62    C     0.65761   0.43011   0.54518   0.01267  Uiso   1.00
C63    C     0.76587   0.42787   0.47506   0.01267  Uiso   1.00
C64    C     0.78370   0.47420   0.38800   0.01267  Uiso   1.00
C65    C     0.89430   0.46520   0.33040   0.01267  Uiso   1.00
C66    C     0.97610   0.40850   0.36280   0.01267  Uiso   1.00
C67    C     0.94850   0.36350   0.45060   0.01267  Uiso   1.00
C68    C     0.56140   0.57090   0.46180   0.01267  Uiso   1.00
C69    C     0.68168   0.64328   0.42504   0.01267  Uiso   1.00
C70    C     0.74310   0.69230   0.33700   0.01267  Uiso   1.00
C71    C     0.85243   0.75773   0.30254   0.01267  Uiso   1.00
C72    C     0.90005   0.77285   0.35750   0.01267  Uiso   1.00
C73    C     0.83469   0.72429   0.44662   0.01267  Uiso   1.00
C74    C     0.72898   0.65918   0.48064   0.01267  Uiso   1.00
C75    C     0.01915   0.84295   0.31990   0.01267  Uiso   1.00
C76    C     0.48739   0.74369   0.23422   0.01267  Uiso   1.00
C77    C     0.56676   0.71806   0.17648   0.01267  Uiso   1.00
C78    C     0.63206   0.78466   0.09088   0.01267  Uiso   1.00
C79    C     0.62060   0.87740   0.06480   0.01267  Uiso   1.00
C80    C     0.53890   0.89990   0.12320   0.01267  Uiso   1.00
C81    C     0.47217   0.83467   0.20726   0.01267  Uiso   1.00
C82    C     0.69590   0.95050   0.97340   0.01267  Uiso   1.00
C83    C     0.38088   0.86238   0.26904   0.01267  Uiso   1.00
C84    C     0.57694   0.61964   0.20352   0.01267  Uiso   1.00
C85    C     0.51030   0.08580   0.37620   0.01267  Uiso   1.00
C86    C     0.46760   0.06570   0.32420   0.01267  Uiso   1.00
C87    C     0.34239   0.97529   0.45482   0.01267  Uiso   1.00
C88    C     0.23413   0.90293   0.52494   0.01267  Uiso   1.00
C89    C     0.21630   0.86220   0.61200   0.01267  Uiso   1.00
C90    C     0.10570   0.79560   0.66960   0.01267  Uiso   1.00
C91    C     0.02390   0.77130   0.63720   0.01267  Uiso   1.00
C92    C     0.05150   0.81410   0.54940   0.01267  Uiso   1.00
C93    C     0.43860   0.03270   0.53820   0.01267  Uiso   1.00
C94    C     0.31832   0.06832   0.57496   0.01267  Uiso   1.00
C95    C     0.25690   0.02930   0.66300   0.01267  Uiso   1.00
C96    C     0.14757   0.06027   0.69746   0.01267  Uiso   1.00
C97    C     0.09995   0.13035   0.64250   0.01267  Uiso   1.00
C98    C     0.16531   0.17091   0.55338   0.01267  Uiso   1.00
C99    C     0.27102   0.13982   0.51936   0.01267  Uiso   1.00
C100   C     0.98085   0.16285   0.68010   0.01267  Uiso   1.00
N1     N     0.89348   0.98668   0.53984   0.01267  Uiso   1.00
N2     N     0.73652   0.86942   0.62756   0.01267  Uiso   1.00
N3     N     0.64577   0.87167   0.50846   0.01267  Uiso   1.00
N4     N     0.10652   0.52652   0.46016   0.01267  Uiso   1.00
N5     N     0.26348   0.49698   0.37244   0.01267  Uiso   1.00
N6     N     0.35423   0.38013   0.49154   0.01267  Uiso   1.00
N7     N     0.56668   0.48668   0.53984   0.01267  Uiso   1.00
N8     N     0.63592   0.36942   0.62756   0.01267  Uiso   1.00
N9     N     0.84577   0.37167   0.50846   0.01267  Uiso   1.00
N10    N     0.43332   0.02652   0.46016   0.01267  Uiso   1.00
N11    N     0.36408   0.99698   0.37244   0.01267  Uiso   1.00
N12    N     0.15423   0.88013   0.49154   0.01267  Uiso   1.00
O1     O     0.63733   0.48893   0.04334   0.01267  Uiso   1.00
O2     O     0.65430   0.34190   0.08700   0.01267  Uiso   1.00
O3     O     0.70516   0.66556   0.65188   0.01267  Uiso   1.00
O4     O     0.56790   0.67060   0.76420   0.01267  Uiso   1.00
O5     O     0.82587   0.34627   0.71666   0.01267  Uiso   1.00
O6     O     0.76126   0.24126   0.85728   0.01267  Uiso   1.00
O7     O     0.56755   0.35525   0.37010   0.01267  Uiso   1.00
O8     O     0.69459   0.38439   0.23742   0.01267  Uiso   1.00
O9     O     0.36267   0.53227   0.95666   0.01267  Uiso   1.00
O10    O     0.34570   0.42890   0.91300   0.01267  Uiso   1.00
O11    O     0.29484   0.31744   0.34812   0.01267  Uiso   1.00
O12    O     0.43210   0.43480   0.23580   0.01267  Uiso   1.00
O13    O     0.17413   0.06293   0.28334   0.01267  Uiso   1.00
O14    O     0.23874   0.09854   0.14272   0.01267  Uiso   1.00
O15    O     0.43245   0.72535   0.62990   0.01267  Uiso   1.00
O16    O     0.30541   0.62181   0.76258   0.01267  Uiso   1.00
O17    O     0.31933   0.98893   0.04334   0.01267  Uiso   1.00
O18    O     0.25870   0.84190   0.08700   0.01267  Uiso   1.00
O19    O     0.64296   0.16556   0.65188   0.01267  Uiso   1.00
O20    O     0.66790   0.17060   0.76420   0.01267  Uiso   1.00
O21    O     0.45747   0.84627   0.71666   0.01267  Uiso   1.00
O22    O     0.38146   0.74126   0.85728   0.01267  Uiso   1.00
O23    O     0.06235   0.85525   0.37010   0.01267  Uiso   1.00
O24    O     0.06799   0.88439   0.23742   0.01267  Uiso   1.00
O25    O     0.68067   0.03227   0.95666   0.01267  Uiso   1.00
O26    O     0.74130   0.92890   0.91300   0.01267  Uiso   1.00
O27    O     0.35704   0.81744   0.34812   0.01267  Uiso   1.00
O28    O     0.33210   0.93480   0.23580   0.01267  Uiso   1.00
O29    O     0.54253   0.56293   0.28334   0.01267  Uiso   1.00
O30    O     0.61854   0.59854   0.14272   0.01267  Uiso   1.00
O31    O     0.93765   0.22535   0.62990   0.01267  Uiso   1.00
O32    O     0.93201   0.12181   0.76258   0.01267  Uiso   1.00
