data_image0
_cell_length_a       10.2394
_cell_length_b       37.7863
_cell_length_c       10.0731
_cell_angle_alpha    90
_cell_angle_beta     97.144
_cell_angle_gamma    90

_symmetry_space_group_name_H-M    "P 1"
_symmetry_int_tables_number       1

loop_
  _symmetry_equiv_pos_as_xyz
  'x, y, z'

loop_
  _atom_site_label
  _atom_site_occupancy
  _atom_site_fract_x
  _atom_site_fract_y
  _atom_site_fract_z
  _atom_site_thermal_displace_type
  _atom_site_B_iso_or_equiv
  _atom_site_type_symbol
  Pb1      1.0000 0.75179  0.53078  0.99423  Biso   1.000  Pb
  Pb2      1.0000 0.26797  0.21713  0.52425  Biso   1.000  Pb
  O1       1.0000 0.02160  0.40539  0.90100  Biso   1.000  O
  O2       1.0000 0.80640  0.47924  0.88240  Biso   1.000  O
  O3       1.0000 0.02470  0.47790  0.87880  Biso   1.000  O
  O4       1.0000 0.17640  0.34192  0.22720  Biso   1.000  O
  O5       1.0000 0.15990  0.26920  0.45000  Biso   1.000  O
  O6       1.0000 0.16250  0.26862  0.22800  Biso   1.000  O
  O7       1.0000 0.46970  0.41372  0.11260  Biso   1.000  O
  O8       1.0000 0.68710  0.48700  0.13560  Biso   1.000  O
  O9       1.0000 0.46790  0.48605  0.12980  Biso   1.000  O
  O10      1.0000 0.32790  0.33610  0.81140  Biso   1.000  O
  O11      1.0000 0.40750  0.26033  0.62670  Biso   1.000  O
  O12      1.0000 0.40850  0.26760  0.84730  Biso   1.000  O
  C1       1.0000 0.00460  0.36864  0.89510  Biso   1.000  C
  C2       1.0000 0.03830  0.35118  0.78150  Biso   1.000  C
  C3       1.0000 0.01880  0.31469  0.77210  Biso   1.000  C
  H1       1.0000 0.04120  0.30230  0.69600  Biso   1.000  H
  C4       1.0000 0.96750  0.29637  0.87180  Biso   1.000  C
  H2       1.0000 0.95120  0.27170  0.86240  Biso   1.000  H
  C5       1.0000 0.93970  0.31384  0.98600  Biso   1.000  C
  H3       1.0000 0.90820  0.30080  0.05600  Biso   1.000  H
  C6       1.0000 0.95740  0.35031  0.99950  Biso   1.000  C
  C7       1.0000 0.15780  0.37819  0.23980  Biso   1.000  C
  C8       1.0000 0.03430  0.39202  0.19270  Biso   1.000  C
  C9       1.0000 0.01310  0.42803  0.20830  Biso   1.000  C
  H4       1.0000 0.92970  0.43790  0.17630  Biso   1.000  H
  C10      1.0000 0.11000  0.44954  0.26900  Biso   1.000  C
  H5       1.0000 0.09310  0.47400  0.28070  Biso   1.000  H
  C11      1.0000 0.23340  0.43560  0.31350  Biso   1.000  C
  H6       1.0000 0.30110  0.45080  0.35330  Biso   1.000  H
  C12      1.0000 0.25930  0.39950  0.30050  Biso   1.000  C
  C13      1.0000 0.48960  0.37722  0.13400  Biso   1.000  C
  C14      1.0000 0.45930  0.36311  0.25400  Biso   1.000  C
  C15      1.0000 0.49310  0.32816  0.28360  Biso   1.000  C
  H7       1.0000 0.47460  0.31810  0.36570  Biso   1.000  H
  C16      1.0000 0.55290  0.30795  0.19570  Biso   1.000  C
  H8       1.0000 0.57970  0.28440  0.21860  Biso   1.000  H
  C17      1.0000 0.57390  0.32197  0.07360  Biso   1.000  C
  H9       1.0000 0.61160  0.30740  0.01180  Biso   1.000  H
  C18      1.0000 0.54180  0.35662  0.03820  Biso   1.000  C
  C19      1.0000 0.33340  0.37231  0.78370  Biso   1.000  C
  C20      1.0000 0.45040  0.38989  0.82630  Biso   1.000  C
  C21      1.0000 0.46170  0.42522  0.79160  Biso   1.000  C
  H10      1.0000 0.54150  0.43760  0.81830  Biso   1.000  H
  C22      1.0000 0.35850  0.44240  0.71930  Biso   1.000  C
  H11      1.0000 0.36770  0.46640  0.69420  Biso   1.000  H
  C23      1.0000 0.24180  0.42497  0.68290  Biso   1.000  C
  H12      1.0000 0.17060  0.43750  0.63470  Biso   1.000  H
  C24      1.0000 0.22460  0.38940  0.71460  Biso   1.000  C
  C25      1.0000 0.92700  0.36821  0.12680  Biso   1.000  C
  H13      1.0000 0.90890  0.34970  0.19160  Biso   1.000  H
  H14      1.0000 0.84570  0.38240  0.10600  Biso   1.000  H
  C26      1.0000 0.39460  0.38583  0.35150  Biso   1.000  C
  H15      1.0000 0.45250  0.40630  0.37710  Biso   1.000  H
  H16      1.0000 0.38840  0.37180  0.43350  Biso   1.000  H
  C27      1.0000 0.56440  0.37042  0.90280  Biso   1.000  C
  H17      1.0000 0.64130  0.38650  0.91460  Biso   1.000  H
  H18      1.0000 0.58760  0.35020  0.84780  Biso   1.000  H
  C28      1.0000 0.09460  0.37136  0.67320  Biso   1.000  C
  H19      1.0000 0.10560  0.35480  0.59930  Biso   1.000  H
  H20      1.0000 0.02990  0.38950  0.63760  Biso   1.000  H
  C29      1.0000 0.90000  0.42387  0.86890  Biso   1.000  C
  H21      1.0000 0.86220  0.41770  0.77650  Biso   1.000  H
  H22      1.0000 0.83720  0.41590  0.93000  Biso   1.000  H
  C30      1.0000 0.91560  0.46374  0.87980  Biso   1.000  C
  C31      1.0000 0.15850  0.32384  0.34880  Biso   1.000  C
  H23      1.0000 0.22850  0.33130  0.41990  Biso   1.000  H
  H24      1.0000 0.07290  0.33100  0.37660  Biso   1.000  H
  C32      1.0000 0.16180  0.28365  0.33620  Biso   1.000  C
  C33      1.0000 0.59190  0.43193  0.13910  Biso   1.000  C
  H25      1.0000 0.63450  0.42520  0.22930  Biso   1.000  H
  H26      1.0000 0.65050  0.42440  0.07330  Biso   1.000  H
  C34      1.0000 0.57670  0.47146  0.13260  Biso   1.000  C
  C35      1.0000 0.33940  0.31493  0.69580  Biso   1.000  C
  H27      1.0000 0.25220  0.31340  0.64130  Biso   1.000  H
  H28      1.0000 0.40050  0.32670  0.64090  Biso   1.000  H
  C36      1.0000 0.38860  0.27818  0.72940  Biso   1.000  C
  Pb3      1.0000 0.73203  0.71713  0.97575  Biso   1.000  Pb
  Pb4      1.0000 0.24821  0.03078  0.50576  Biso   1.000  Pb
  O13      1.0000 0.97840  0.90539  0.59900  Biso   1.000  O
  O14      1.0000 0.19360  0.97924  0.61760  Biso   1.000  O
  O15      1.0000 0.97530  0.97790  0.62120  Biso   1.000  O
  O16      1.0000 0.82360  0.84192  0.27280  Biso   1.000  O
  O17      1.0000 0.84010  0.76920  0.05000  Biso   1.000  O
  O18      1.0000 0.83750  0.76862  0.27200  Biso   1.000  O
  O19      1.0000 0.53030  0.91372  0.38740  Biso   1.000  O
  O20      1.0000 0.31290  0.98700  0.36440  Biso   1.000  O
  O21      1.0000 0.53210  0.98605  0.37020  Biso   1.000  O
  O22      1.0000 0.67210  0.83610  0.68860  Biso   1.000  O
  O23      1.0000 0.59250  0.76033  0.87330  Biso   1.000  O
  O24      1.0000 0.59150  0.76760  0.65270  Biso   1.000  O
  C37      1.0000 0.99540  0.86864  0.60490  Biso   1.000  C
  C38      1.0000 0.96170  0.85118  0.71850  Biso   1.000  C
  C39      1.0000 0.98120  0.81469  0.72790  Biso   1.000  C
  H29      1.0000 0.95880  0.80230  0.80400  Biso   1.000  H
  C40      1.0000 0.03250  0.79637  0.62820  Biso   1.000  C
  H30      1.0000 0.04880  0.77170  0.63760  Biso   1.000  H
  C41      1.0000 0.06030  0.81384  0.51400  Biso   1.000  C
  H31      1.0000 0.09180  0.80080  0.44400  Biso   1.000  H
  C42      1.0000 0.04260  0.85031  0.50050  Biso   1.000  C
  C43      1.0000 0.84220  0.87819  0.26020  Biso   1.000  C
  C44      1.0000 0.96570  0.89202  0.30730  Biso   1.000  C
  C45      1.0000 0.98690  0.92803  0.29170  Biso   1.000  C
  H32      1.0000 0.07030  0.93790  0.32370  Biso   1.000  H
  C46      1.0000 0.89000  0.94954  0.23100  Biso   1.000  C
  H33      1.0000 0.90690  0.97400  0.21930  Biso   1.000  H
  C47      1.0000 0.76660  0.93560  0.18650  Biso   1.000  C
  H34      1.0000 0.69890  0.95080  0.14670  Biso   1.000  H
  C48      1.0000 0.74070  0.89950  0.19950  Biso   1.000  C
  C49      1.0000 0.51040  0.87722  0.36600  Biso   1.000  C
  C50      1.0000 0.54070  0.86311  0.24600  Biso   1.000  C
  C51      1.0000 0.50690  0.82816  0.21640  Biso   1.000  C
  H35      1.0000 0.52540  0.81810  0.13430  Biso   1.000  H
  C52      1.0000 0.44710  0.80795  0.30430  Biso   1.000  C
  H36      1.0000 0.42030  0.78440  0.28140  Biso   1.000  H
  C53      1.0000 0.42610  0.82197  0.42640  Biso   1.000  C
  H37      1.0000 0.38840  0.80740  0.48820  Biso   1.000  H
  C54      1.0000 0.45820  0.85662  0.46180  Biso   1.000  C
  C55      1.0000 0.66660  0.87231  0.71630  Biso   1.000  C
  C56      1.0000 0.54960  0.88989  0.67370  Biso   1.000  C
  C57      1.0000 0.53830  0.92522  0.70840  Biso   1.000  C
  H38      1.0000 0.45850  0.93760  0.68170  Biso   1.000  H
  C58      1.0000 0.64150  0.94240  0.78070  Biso   1.000  C
  H39      1.0000 0.63230  0.96640  0.80580  Biso   1.000  H
  C59      1.0000 0.75820  0.92497  0.81710  Biso   1.000  C
  H40      1.0000 0.82940  0.93750  0.86530  Biso   1.000  H
  C60      1.0000 0.77540  0.88940  0.78540  Biso   1.000  C
  C61      1.0000 0.07300  0.86821  0.37320  Biso   1.000  C
  H41      1.0000 0.09110  0.84970  0.30840  Biso   1.000  H
  H42      1.0000 0.15430  0.88240  0.39400  Biso   1.000  H
  C62      1.0000 0.60540  0.88583  0.14850  Biso   1.000  C
  H43      1.0000 0.54750  0.90630  0.12290  Biso   1.000  H
  H44      1.0000 0.61160  0.87180  0.06650  Biso   1.000  H
  C63      1.0000 0.43560  0.87042  0.59720  Biso   1.000  C
  H45      1.0000 0.35870  0.88650  0.58540  Biso   1.000  H
  H46      1.0000 0.41240  0.85020  0.65220  Biso   1.000  H
  C64      1.0000 0.90540  0.87136  0.82680  Biso   1.000  C
  H47      1.0000 0.89440  0.85480  0.90070  Biso   1.000  H
  H48      1.0000 0.97010  0.88950  0.86240  Biso   1.000  H
  C65      1.0000 0.10000  0.92387  0.63110  Biso   1.000  C
  H49      1.0000 0.13780  0.91770  0.72350  Biso   1.000  H
  H50      1.0000 0.16280  0.91590  0.57000  Biso   1.000  H
  C66      1.0000 0.08440  0.96374  0.62020  Biso   1.000  C
  C67      1.0000 0.84150  0.82384  0.15120  Biso   1.000  C
  H51      1.0000 0.77150  0.83130  0.08010  Biso   1.000  H
  H52      1.0000 0.92710  0.83100  0.12340  Biso   1.000  H
  C68      1.0000 0.83820  0.78365  0.16380  Biso   1.000  C
  C69      1.0000 0.40810  0.93193  0.36090  Biso   1.000  C
  H53      1.0000 0.36550  0.92520  0.27070  Biso   1.000  H
  H54      1.0000 0.34950  0.92440  0.42670  Biso   1.000  H
  C70      1.0000 0.42330  0.97146  0.36740  Biso   1.000  C
  C71      1.0000 0.66060  0.81493  0.80420  Biso   1.000  C
  H55      1.0000 0.74780  0.81340  0.85870  Biso   1.000  H
  H56      1.0000 0.59950  0.82670  0.85910  Biso   1.000  H
  C72      1.0000 0.61140  0.77818  0.77060  Biso   1.000  C
  O25      1.0000 0.97840  0.59461  0.09900  Biso   1.000  O
  O26      1.0000 0.19360  0.52076  0.11760  Biso   1.000  O
  O27      1.0000 0.97530  0.52210  0.12120  Biso   1.000  O
  O28      1.0000 0.82360  0.65808  0.77280  Biso   1.000  O
  O29      1.0000 0.84010  0.73080  0.55000  Biso   1.000  O
  O30      1.0000 0.83750  0.73138  0.77200  Biso   1.000  O
  O31      1.0000 0.53030  0.58628  0.88740  Biso   1.000  O
  O32      1.0000 0.31290  0.51300  0.86440  Biso   1.000  O
  O33      1.0000 0.53210  0.51395  0.87020  Biso   1.000  O
  O34      1.0000 0.67210  0.66390  0.18860  Biso   1.000  O
  O35      1.0000 0.59250  0.73967  0.37330  Biso   1.000  O
  O36      1.0000 0.59150  0.73240  0.15270  Biso   1.000  O
  C73      1.0000 0.99540  0.63136  0.10490  Biso   1.000  C
  C74      1.0000 0.96170  0.64882  0.21850  Biso   1.000  C
  C75      1.0000 0.98120  0.68531  0.22790  Biso   1.000  C
  H57      1.0000 0.95880  0.69770  0.30400  Biso   1.000  H
  C76      1.0000 0.03250  0.70363  0.12820  Biso   1.000  C
  H58      1.0000 0.04880  0.72830  0.13760  Biso   1.000  H
  C77      1.0000 0.06030  0.68616  0.01400  Biso   1.000  C
  H59      1.0000 0.09180  0.69920  0.94400  Biso   1.000  H
  C78      1.0000 0.04260  0.64969  0.00050  Biso   1.000  C
  C79      1.0000 0.84220  0.62181  0.76020  Biso   1.000  C
  C80      1.0000 0.96570  0.60798  0.80730  Biso   1.000  C
  C81      1.0000 0.98690  0.57197  0.79170  Biso   1.000  C
  H60      1.0000 0.07030  0.56210  0.82370  Biso   1.000  H
  C82      1.0000 0.89000  0.55046  0.73100  Biso   1.000  C
  H61      1.0000 0.90690  0.52600  0.71930  Biso   1.000  H
  C83      1.0000 0.76660  0.56440  0.68650  Biso   1.000  C
  H62      1.0000 0.69890  0.54920  0.64670  Biso   1.000  H
  C84      1.0000 0.74070  0.60050  0.69950  Biso   1.000  C
  C85      1.0000 0.51040  0.62278  0.86600  Biso   1.000  C
  C86      1.0000 0.54070  0.63689  0.74600  Biso   1.000  C
  C87      1.0000 0.50690  0.67184  0.71640  Biso   1.000  C
  H63      1.0000 0.52540  0.68190  0.63430  Biso   1.000  H
  C88      1.0000 0.44710  0.69205  0.80430  Biso   1.000  C
  H64      1.0000 0.42030  0.71560  0.78140  Biso   1.000  H
  C89      1.0000 0.42610  0.67803  0.92640  Biso   1.000  C
  H65      1.0000 0.38840  0.69260  0.98820  Biso   1.000  H
  C90      1.0000 0.45820  0.64338  0.96180  Biso   1.000  C
  C91      1.0000 0.66660  0.62769  0.21630  Biso   1.000  C
  C92      1.0000 0.54960  0.61011  0.17370  Biso   1.000  C
  C93      1.0000 0.53830  0.57478  0.20840  Biso   1.000  C
  H66      1.0000 0.45850  0.56240  0.18170  Biso   1.000  H
  C94      1.0000 0.64150  0.55760  0.28070  Biso   1.000  C
  H67      1.0000 0.63230  0.53360  0.30580  Biso   1.000  H
  C95      1.0000 0.75820  0.57503  0.31710  Biso   1.000  C
  H68      1.0000 0.82940  0.56250  0.36530  Biso   1.000  H
  C96      1.0000 0.77540  0.61060  0.28540  Biso   1.000  C
  C97      1.0000 0.07300  0.63179  0.87320  Biso   1.000  C
  H69      1.0000 0.09110  0.65030  0.80840  Biso   1.000  H
  H70      1.0000 0.15430  0.61760  0.89400  Biso   1.000  H
  C98      1.0000 0.60540  0.61417  0.64850  Biso   1.000  C
  H71      1.0000 0.54750  0.59370  0.62290  Biso   1.000  H
  H72      1.0000 0.61160  0.62820  0.56650  Biso   1.000  H
  C99      1.0000 0.43560  0.62958  0.09720  Biso   1.000  C
  H73      1.0000 0.35870  0.61350  0.08540  Biso   1.000  H
  H74      1.0000 0.41240  0.64980  0.15220  Biso   1.000  H
  C100     1.0000 0.90540  0.62864  0.32680  Biso   1.000  C
  H75      1.0000 0.89440  0.64520  0.40070  Biso   1.000  H
  H76      1.0000 0.97010  0.61050  0.36240  Biso   1.000  H
  C101     1.0000 0.10000  0.57613  0.13110  Biso   1.000  C
  H77      1.0000 0.13780  0.58230  0.22350  Biso   1.000  H
  H78      1.0000 0.16280  0.58410  0.07000  Biso   1.000  H
  C102     1.0000 0.08440  0.53626  0.12020  Biso   1.000  C
  C103     1.0000 0.84150  0.67616  0.65120  Biso   1.000  C
  H79      1.0000 0.77150  0.66870  0.58010  Biso   1.000  H
  H80      1.0000 0.92710  0.66900  0.62340  Biso   1.000  H
  C104     1.0000 0.83820  0.71635  0.66380  Biso   1.000  C
  C105     1.0000 0.40810  0.56807  0.86090  Biso   1.000  C
  H81      1.0000 0.36550  0.57480  0.77070  Biso   1.000  H
  H82      1.0000 0.34950  0.57560  0.92670  Biso   1.000  H
  C106     1.0000 0.42330  0.52854  0.86740  Biso   1.000  C
  C107     1.0000 0.66060  0.68507  0.30420  Biso   1.000  C
  H83      1.0000 0.74780  0.68660  0.35870  Biso   1.000  H
  H84      1.0000 0.59950  0.67330  0.35910  Biso   1.000  H
  C108     1.0000 0.61140  0.72182  0.27060  Biso   1.000  C
  Pb5      1.0000 0.24821  0.46922  0.00577  Biso   1.000  Pb
  Pb6      1.0000 0.73203  0.78287  0.47575  Biso   1.000  Pb
  O37      1.0000 0.02160  0.09461  0.40100  Biso   1.000  O
  O38      1.0000 0.80640  0.02076  0.38240  Biso   1.000  O
  O39      1.0000 0.02470  0.02210  0.37880  Biso   1.000  O
  O40      1.0000 0.17640  0.15808  0.72720  Biso   1.000  O
  O41      1.0000 0.15990  0.23080  0.95000  Biso   1.000  O
  O42      1.0000 0.16250  0.23138  0.72800  Biso   1.000  O
  O43      1.0000 0.46970  0.08628  0.61260  Biso   1.000  O
  O44      1.0000 0.68710  0.01300  0.63560  Biso   1.000  O
  O45      1.0000 0.46790  0.01395  0.62980  Biso   1.000  O
  O46      1.0000 0.32790  0.16390  0.31140  Biso   1.000  O
  O47      1.0000 0.40750  0.23967  0.12670  Biso   1.000  O
  O48      1.0000 0.40850  0.23240  0.34730  Biso   1.000  O
  C109     1.0000 0.00460  0.13136  0.39510  Biso   1.000  C
  C110     1.0000 0.03830  0.14882  0.28150  Biso   1.000  C
  C111     1.0000 0.01880  0.18531  0.27210  Biso   1.000  C
  H85      1.0000 0.04120  0.19770  0.19600  Biso   1.000  H
  C112     1.0000 0.96750  0.20363  0.37180  Biso   1.000  C
  H86      1.0000 0.95120  0.22830  0.36240  Biso   1.000  H
  C113     1.0000 0.93970  0.18616  0.48600  Biso   1.000  C
  H87      1.0000 0.90820  0.19920  0.55600  Biso   1.000  H
  C114     1.0000 0.95740  0.14969  0.49950  Biso   1.000  C
  C115     1.0000 0.15780  0.12181  0.73980  Biso   1.000  C
  C116     1.0000 0.03430  0.10798  0.69270  Biso   1.000  C
  C117     1.0000 0.01310  0.07197  0.70830  Biso   1.000  C
  H88      1.0000 0.92970  0.06210  0.67630  Biso   1.000  H
  C118     1.0000 0.11000  0.05046  0.76900  Biso   1.000  C
  H89      1.0000 0.09310  0.02600  0.78070  Biso   1.000  H
  C119     1.0000 0.23340  0.06440  0.81350  Biso   1.000  C
  H90      1.0000 0.30110  0.04920  0.85330  Biso   1.000  H
  C120     1.0000 0.25930  0.10050  0.80050  Biso   1.000  C
  C121     1.0000 0.48960  0.12278  0.63400  Biso   1.000  C
  C122     1.0000 0.45930  0.13689  0.75400  Biso   1.000  C
  C123     1.0000 0.49310  0.17184  0.78360  Biso   1.000  C
  H91      1.0000 0.47460  0.18190  0.86570  Biso   1.000  H
  C124     1.0000 0.55290  0.19205  0.69570  Biso   1.000  C
  H92      1.0000 0.57970  0.21560  0.71860  Biso   1.000  H
  C125     1.0000 0.57390  0.17803  0.57360  Biso   1.000  C
  H93      1.0000 0.61160  0.19260  0.51180  Biso   1.000  H
  C126     1.0000 0.54180  0.14338  0.53820  Biso   1.000  C
  C127     1.0000 0.33340  0.12769  0.28370  Biso   1.000  C
  C128     1.0000 0.45040  0.11011  0.32630  Biso   1.000  C
  C129     1.0000 0.46170  0.07478  0.29160  Biso   1.000  C
  H94      1.0000 0.54150  0.06240  0.31830  Biso   1.000  H
  C130     1.0000 0.35850  0.05760  0.21930  Biso   1.000  C
  H95      1.0000 0.36770  0.03360  0.19420  Biso   1.000  H
  C131     1.0000 0.24180  0.07503  0.18290  Biso   1.000  C
  H96      1.0000 0.17060  0.06250  0.13470  Biso   1.000  H
  C132     1.0000 0.22460  0.11060  0.21460  Biso   1.000  C
  C133     1.0000 0.92700  0.13179  0.62680  Biso   1.000  C
  H97      1.0000 0.90890  0.15030  0.69160  Biso   1.000  H
  H98      1.0000 0.84570  0.11760  0.60600  Biso   1.000  H
  C134     1.0000 0.39460  0.11417  0.85150  Biso   1.000  C
  H99      1.0000 0.45250  0.09370  0.87710  Biso   1.000  H
  H100     1.0000 0.38840  0.12820  0.93350  Biso   1.000  H
  C135     1.0000 0.56440  0.12958  0.40280  Biso   1.000  C
  H101     1.0000 0.64130  0.11350  0.41460  Biso   1.000  H
  H102     1.0000 0.58760  0.14980  0.34780  Biso   1.000  H
  C136     1.0000 0.09460  0.12864  0.17320  Biso   1.000  C
  H103     1.0000 0.10560  0.14520  0.09930  Biso   1.000  H
  H104     1.0000 0.02990  0.11050  0.13760  Biso   1.000  H
  C137     1.0000 0.90000  0.07613  0.36890  Biso   1.000  C
  H105     1.0000 0.86220  0.08230  0.27650  Biso   1.000  H
  H106     1.0000 0.83720  0.08410  0.43000  Biso   1.000  H
  C138     1.0000 0.91560  0.03626  0.37980  Biso   1.000  C
  C139     1.0000 0.15850  0.17616  0.84880  Biso   1.000  C
  H107     1.0000 0.22850  0.16870  0.91990  Biso   1.000  H
  H108     1.0000 0.07290  0.16900  0.87660  Biso   1.000  H
  C140     1.0000 0.16180  0.21635  0.83620  Biso   1.000  C
  C141     1.0000 0.59190  0.06807  0.63910  Biso   1.000  C
  H109     1.0000 0.63450  0.07480  0.72930  Biso   1.000  H
  H110     1.0000 0.65050  0.07560  0.57330  Biso   1.000  H
  C142     1.0000 0.57670  0.02854  0.63260  Biso   1.000  C
  C143     1.0000 0.33940  0.18507  0.19580  Biso   1.000  C
  H111     1.0000 0.25220  0.18660  0.14130  Biso   1.000  H
  H112     1.0000 0.40050  0.17330  0.14090  Biso   1.000  H
  C144     1.0000 0.38860  0.22182  0.22940  Biso   1.000  C
  Pb7      1.0000 0.26797  0.28287  0.02425  Biso   1.000  Pb
  Pb8      1.0000 0.75179  0.96922  0.49424  Biso   1.000  Pb
