data_image0
_cell_length_a       17.317
_cell_length_b       25.397
_cell_length_c       21.54
_cell_angle_alpha    90
_cell_angle_beta     94.431
_cell_angle_gamma    90

_symmetry_space_group_name_H-M    "P 1"
_symmetry_int_tables_number       1

loop_
  _symmetry_equiv_pos_as_xyz
  'x, y, z'

loop_
  _atom_site_label
  _atom_site_occupancy
  _atom_site_fract_x
  _atom_site_fract_y
  _atom_site_fract_z
  _atom_site_thermal_displace_type
  _atom_site_B_iso_or_equiv
  _atom_site_type_symbol
  C1       1.0000 0.87300  0.81030  0.56560  Biso   1.000  C
  H1       1.0000 0.82820  0.79280  0.54770  Biso   1.000  H
  C2       1.0000 0.93150  0.78120  0.59600  Biso   1.000  C
  H2       1.0000 0.92700  0.74400  0.59860  Biso   1.000  H
  C3       1.0000 0.99460  0.80560  0.62180  Biso   1.000  C
  H3       1.0000 0.03480  0.78570  0.64320  Biso   1.000  H
  C4       1.0000 0.00090  0.85920  0.61730  Biso   1.000  C
  H4       1.0000 0.04590  0.87670  0.63480  Biso   1.000  H
  C5       1.0000 0.94130  0.88720  0.58730  Biso   1.000  C
  C6       1.0000 0.94050  0.94560  0.58220  Biso   1.000  C
  C7       1.0000 0.86570  0.01796  0.54610  Biso   1.000  C
  C8       1.0000 0.87220  0.04640  0.49130  Biso   1.000  C
  H5       1.0000 0.89000  0.02960  0.45570  Biso   1.000  H
  C9       1.0000 0.85240  0.09940  0.48920  Biso   1.000  C
  H6       1.0000 0.85790  0.11890  0.45220  Biso   1.000  H
  C10      1.0000 0.82500  0.12379  0.53950  Biso   1.000  C
  C11      1.0000 0.81940  0.09570  0.59420  Biso   1.000  C
  H7       1.0000 0.80180  0.11280  0.62970  Biso   1.000  H
  C12      1.0000 0.83910  0.04300  0.59750  Biso   1.000  C
  H8       1.0000 0.83450  0.02390  0.63500  Biso   1.000  H
  C13      1.0000 0.80410  0.18100  0.53560  Biso   1.000  C
  C14      1.0000 0.07000  0.08620  0.57220  Biso   1.000  C
  H9       1.0000 0.04970  0.05660  0.54960  Biso   1.000  H
  C15      1.0000 0.02990  0.10590  0.62040  Biso   1.000  C
  H10      1.0000 0.98220  0.09050  0.62980  Biso   1.000  H
  C16      1.0000 0.05990  0.14770  0.65410  Biso   1.000  C
  H11      1.0000 0.03320  0.16220  0.68700  Biso   1.000  H
  C17      1.0000 0.13040  0.16850  0.63930  Biso   1.000  C
  H12      1.0000 0.15310  0.19680  0.66300  Biso   1.000  H
  C18      1.0000 0.16690  0.14810  0.59060  Biso   1.000  C
  C19      1.0000 0.24130  0.16830  0.57140  Biso   1.000  C
  C20      1.0000 0.33920  0.15760  0.50260  Biso   1.000  C
  C21      1.0000 0.40180  0.12890  0.52470  Biso   1.000  C
  H13      1.0000 0.39620  0.09970  0.55140  Biso   1.000  H
  C22      1.0000 0.47680  0.14420  0.50640  Biso   1.000  C
  H14      1.0000 0.52120  0.12520  0.52240  Biso   1.000  H
  C23      1.0000 0.48570  0.18490  0.46680  Biso   1.000  C
  C24      1.0000 0.42300  0.21230  0.44570  Biso   1.000  C
  H15      1.0000 0.42840  0.24080  0.41790  Biso   1.000  H
  C25      1.0000 0.35050  0.19930  0.46410  Biso   1.000  C
  H16      1.0000 0.30710  0.22000  0.44940  Biso   1.000  H
  C26      1.0000 0.56610  0.19990  0.44420  Biso   1.000  C
  C27      1.0000 0.74120  0.02260  0.91360  Biso   1.000  C
  H17      1.0000 0.77180  0.04130  0.88630  Biso   1.000  H
  C28      1.0000 0.69780  0.97990  0.89160  Biso   1.000  C
  H18      1.0000 0.69900  0.96940  0.84940  Biso   1.000  H
  C29      1.0000 0.65370  0.95320  0.92990  Biso   1.000  C
  H19      1.0000 0.62520  0.92310  0.91540  Biso   1.000  H
  C30      1.0000 0.65090  0.97060  0.99070  Biso   1.000  C
  H20      1.0000 0.61930  0.95290  0.01840  Biso   1.000  H
  C31      1.0000 0.69410  0.01340  0.01040  Biso   1.000  C
  C32      1.0000 0.69430  0.03460  0.07370  Biso   1.000  C
  C33      1.0000 0.74790  0.09990  0.14310  Biso   1.000  C
  C34      1.0000 0.68420  0.12760  0.16000  Biso   1.000  C
  H21      1.0000 0.63800  0.12860  0.13310  Biso   1.000  H
  C35      1.0000 0.68800  0.15380  0.21640  Biso   1.000  C
  H22      1.0000 0.64430  0.17290  0.22820  Biso   1.000  H
  C36      1.0000 0.75700  0.15260  0.25680  Biso   1.000  C
  C37      1.0000 0.81520  0.12270  0.23910  Biso   1.000  C
  H23      1.0000 0.86150  0.12050  0.26570  Biso   1.000  H
  C38      1.0000 0.81070  0.09500  0.18430  Biso   1.000  C
  H24      1.0000 0.85180  0.07220  0.17510  Biso   1.000  H
  C39      1.0000 0.76130  0.18190  0.31680  Biso   1.000  C
  Co1      1.0000 0.80604  0.90982  0.51526  Biso   1.000  Co
  N1       1.0000 0.87780  0.86285  0.56070  Biso   1.000  N
  N2       1.0000 0.88100  0.96279  0.54730  Biso   1.000  N
  N3       1.0000 0.13640  0.10754  0.55650  Biso   1.000  N
  N4       1.0000 0.26290  0.14523  0.52050  Biso   1.000  N
  N5       1.0000 0.74050  0.03795  0.97360  Biso   1.000  N
  N6       1.0000 0.74410  0.07455  0.08370  Biso   1.000  N
  O1       1.0000 0.99240  0.97257  0.60890  Biso   1.000  O
  O2       1.0000 0.79930  0.20202  0.48270  Biso   1.000  O
  O3       1.0000 0.79410  0.20535  0.58500  Biso   1.000  O
  O4       1.0000 0.27770  0.20300  0.60210  Biso   1.000  O
  O5       1.0000 0.56770  0.22960  0.40080  Biso   1.000  O
  O6       1.0000 0.62170  0.18280  0.47390  Biso   1.000  O
  O7       1.0000 0.65300  0.01470  0.11250  Biso   1.000  O
  O8       1.0000 0.81790  0.20950  0.32980  Biso   1.000  O
  O9       1.0000 0.70460  0.17950  0.34800  Biso   1.000  O
  Zn1      1.0000 0.70533  0.21700  0.42708  Biso   1.000  Zn
  C40      1.0000 0.37300  0.31030  0.56560  Biso   1.000  C
  H25      1.0000 0.32820  0.29280  0.54770  Biso   1.000  H
  C41      1.0000 0.43150  0.28120  0.59600  Biso   1.000  C
  H26      1.0000 0.42700  0.24400  0.59860  Biso   1.000  H
  C42      1.0000 0.49460  0.30560  0.62180  Biso   1.000  C
  H27      1.0000 0.53480  0.28570  0.64320  Biso   1.000  H
  C43      1.0000 0.50090  0.35920  0.61730  Biso   1.000  C
  H28      1.0000 0.54590  0.37670  0.63480  Biso   1.000  H
  C44      1.0000 0.44130  0.38720  0.58730  Biso   1.000  C
  C45      1.0000 0.44050  0.44560  0.58220  Biso   1.000  C
  C46      1.0000 0.36570  0.51796  0.54610  Biso   1.000  C
  C47      1.0000 0.37220  0.54640  0.49130  Biso   1.000  C
  H29      1.0000 0.39000  0.52960  0.45570  Biso   1.000  H
  C48      1.0000 0.35240  0.59940  0.48920  Biso   1.000  C
  H30      1.0000 0.35790  0.61890  0.45220  Biso   1.000  H
  C49      1.0000 0.32500  0.62379  0.53950  Biso   1.000  C
  C50      1.0000 0.31940  0.59570  0.59420  Biso   1.000  C
  H31      1.0000 0.30180  0.61280  0.62970  Biso   1.000  H
  C51      1.0000 0.33910  0.54300  0.59750  Biso   1.000  C
  H32      1.0000 0.33450  0.52390  0.63500  Biso   1.000  H
  C52      1.0000 0.30410  0.68100  0.53560  Biso   1.000  C
  C53      1.0000 0.57000  0.58620  0.57220  Biso   1.000  C
  H33      1.0000 0.54970  0.55660  0.54960  Biso   1.000  H
  C54      1.0000 0.52990  0.60590  0.62040  Biso   1.000  C
  H34      1.0000 0.48220  0.59050  0.62980  Biso   1.000  H
  C55      1.0000 0.55990  0.64770  0.65410  Biso   1.000  C
  H35      1.0000 0.53320  0.66220  0.68700  Biso   1.000  H
  C56      1.0000 0.63040  0.66850  0.63930  Biso   1.000  C
  H36      1.0000 0.65310  0.69680  0.66300  Biso   1.000  H
  C57      1.0000 0.66690  0.64810  0.59060  Biso   1.000  C
  C58      1.0000 0.74130  0.66830  0.57140  Biso   1.000  C
  C59      1.0000 0.83920  0.65760  0.50260  Biso   1.000  C
  C60      1.0000 0.90180  0.62890  0.52470  Biso   1.000  C
  H37      1.0000 0.89620  0.59970  0.55140  Biso   1.000  H
  C61      1.0000 0.97680  0.64420  0.50640  Biso   1.000  C
  H38      1.0000 0.02120  0.62520  0.52240  Biso   1.000  H
  C62      1.0000 0.98570  0.68490  0.46680  Biso   1.000  C
  C63      1.0000 0.92300  0.71230  0.44570  Biso   1.000  C
  H39      1.0000 0.92840  0.74080  0.41790  Biso   1.000  H
  C64      1.0000 0.85050  0.69930  0.46410  Biso   1.000  C
  H40      1.0000 0.80710  0.72000  0.44940  Biso   1.000  H
  C65      1.0000 0.06610  0.69990  0.44420  Biso   1.000  C
  C66      1.0000 0.24120  0.52260  0.91360  Biso   1.000  C
  H41      1.0000 0.27180  0.54130  0.88630  Biso   1.000  H
  C67      1.0000 0.19780  0.47990  0.89160  Biso   1.000  C
  H42      1.0000 0.19900  0.46940  0.84940  Biso   1.000  H
  C68      1.0000 0.15370  0.45320  0.92990  Biso   1.000  C
  H43      1.0000 0.12520  0.42310  0.91540  Biso   1.000  H
  C69      1.0000 0.15090  0.47060  0.99070  Biso   1.000  C
  H44      1.0000 0.11930  0.45290  0.01840  Biso   1.000  H
  C70      1.0000 0.19410  0.51340  0.01040  Biso   1.000  C
  C71      1.0000 0.19430  0.53460  0.07370  Biso   1.000  C
  C72      1.0000 0.24790  0.59990  0.14310  Biso   1.000  C
  C73      1.0000 0.18420  0.62760  0.16000  Biso   1.000  C
  H45      1.0000 0.13800  0.62860  0.13310  Biso   1.000  H
  C74      1.0000 0.18800  0.65380  0.21640  Biso   1.000  C
  H46      1.0000 0.14430  0.67290  0.22820  Biso   1.000  H
  C75      1.0000 0.25700  0.65260  0.25680  Biso   1.000  C
  C76      1.0000 0.31520  0.62270  0.23910  Biso   1.000  C
  H47      1.0000 0.36150  0.62050  0.26570  Biso   1.000  H
  C77      1.0000 0.31070  0.59500  0.18430  Biso   1.000  C
  H48      1.0000 0.35180  0.57220  0.17510  Biso   1.000  H
  C78      1.0000 0.26130  0.68190  0.31680  Biso   1.000  C
  Co2      1.0000 0.30604  0.40982  0.51526  Biso   1.000  Co
  N7       1.0000 0.37780  0.36285  0.56070  Biso   1.000  N
  N8       1.0000 0.38100  0.46279  0.54730  Biso   1.000  N
  N9       1.0000 0.63640  0.60754  0.55650  Biso   1.000  N
  N10      1.0000 0.76290  0.64523  0.52050  Biso   1.000  N
  N11      1.0000 0.24050  0.53795  0.97360  Biso   1.000  N
  N12      1.0000 0.24410  0.57455  0.08370  Biso   1.000  N
  O10      1.0000 0.49240  0.47257  0.60890  Biso   1.000  O
  O11      1.0000 0.29930  0.70202  0.48270  Biso   1.000  O
  O12      1.0000 0.29410  0.70535  0.58500  Biso   1.000  O
  O13      1.0000 0.77770  0.70300  0.60210  Biso   1.000  O
  O14      1.0000 0.06770  0.72960  0.40080  Biso   1.000  O
  O15      1.0000 0.12170  0.68280  0.47390  Biso   1.000  O
  O16      1.0000 0.15300  0.51470  0.11250  Biso   1.000  O
  O17      1.0000 0.31790  0.70950  0.32980  Biso   1.000  O
  O18      1.0000 0.20460  0.67950  0.34800  Biso   1.000  O
  Zn2      1.0000 0.20533  0.71700  0.42708  Biso   1.000  Zn
  C79      1.0000 0.12700  0.81030  0.93440  Biso   1.000  C
  H49      1.0000 0.17180  0.79280  0.95230  Biso   1.000  H
  C80      1.0000 0.06850  0.78120  0.90400  Biso   1.000  C
  H50      1.0000 0.07300  0.74400  0.90140  Biso   1.000  H
  C81      1.0000 0.00540  0.80560  0.87820  Biso   1.000  C
  H51      1.0000 0.96520  0.78570  0.85680  Biso   1.000  H
  C82      1.0000 0.99910  0.85920  0.88270  Biso   1.000  C
  H52      1.0000 0.95410  0.87670  0.86520  Biso   1.000  H
  C83      1.0000 0.05870  0.88720  0.91270  Biso   1.000  C
  C84      1.0000 0.05950  0.94560  0.91780  Biso   1.000  C
  C85      1.0000 0.13430  0.01796  0.95390  Biso   1.000  C
  C86      1.0000 0.12780  0.04640  0.00870  Biso   1.000  C
  H53      1.0000 0.11000  0.02960  0.04430  Biso   1.000  H
  C87      1.0000 0.14760  0.09940  0.01080  Biso   1.000  C
  H54      1.0000 0.14210  0.11890  0.04780  Biso   1.000  H
  C88      1.0000 0.17500  0.12379  0.96050  Biso   1.000  C
  C89      1.0000 0.18060  0.09570  0.90580  Biso   1.000  C
  H55      1.0000 0.19820  0.11280  0.87030  Biso   1.000  H
  C90      1.0000 0.16090  0.04300  0.90250  Biso   1.000  C
  H56      1.0000 0.16550  0.02390  0.86500  Biso   1.000  H
  C91      1.0000 0.19590  0.18100  0.96440  Biso   1.000  C
  C92      1.0000 0.93000  0.08620  0.92780  Biso   1.000  C
  H57      1.0000 0.95030  0.05660  0.95040  Biso   1.000  H
  C93      1.0000 0.97010  0.10590  0.87960  Biso   1.000  C
  H58      1.0000 0.01780  0.09050  0.87020  Biso   1.000  H
  C94      1.0000 0.94010  0.14770  0.84590  Biso   1.000  C
  H59      1.0000 0.96680  0.16220  0.81300  Biso   1.000  H
  C95      1.0000 0.86960  0.16850  0.86070  Biso   1.000  C
  H60      1.0000 0.84690  0.19680  0.83700  Biso   1.000  H
  C96      1.0000 0.83310  0.14810  0.90940  Biso   1.000  C
  C97      1.0000 0.75870  0.16830  0.92860  Biso   1.000  C
  C98      1.0000 0.66080  0.15760  0.99740  Biso   1.000  C
  C99      1.0000 0.59820  0.12890  0.97530  Biso   1.000  C
  H61      1.0000 0.60380  0.09970  0.94860  Biso   1.000  H
  C100     1.0000 0.52320  0.14420  0.99360  Biso   1.000  C
  H62      1.0000 0.47880  0.12520  0.97760  Biso   1.000  H
  C101     1.0000 0.51430  0.18490  0.03320  Biso   1.000  C
  C102     1.0000 0.57700  0.21230  0.05430  Biso   1.000  C
  H63      1.0000 0.57160  0.24080  0.08210  Biso   1.000  H
  C103     1.0000 0.64950  0.19930  0.03590  Biso   1.000  C
  H64      1.0000 0.69290  0.22000  0.05060  Biso   1.000  H
  C104     1.0000 0.43390  0.19990  0.05580  Biso   1.000  C
  C105     1.0000 0.25880  0.02260  0.58640  Biso   1.000  C
  H65      1.0000 0.22820  0.04130  0.61370  Biso   1.000  H
  C106     1.0000 0.30220  0.97990  0.60840  Biso   1.000  C
  H66      1.0000 0.30100  0.96940  0.65060  Biso   1.000  H
  C107     1.0000 0.34630  0.95320  0.57010  Biso   1.000  C
  H67      1.0000 0.37480  0.92310  0.58460  Biso   1.000  H
  C108     1.0000 0.34910  0.97060  0.50930  Biso   1.000  C
  H68      1.0000 0.38070  0.95290  0.48160  Biso   1.000  H
  C109     1.0000 0.30590  0.01340  0.48960  Biso   1.000  C
  C110     1.0000 0.30570  0.03460  0.42630  Biso   1.000  C
  C111     1.0000 0.25210  0.09990  0.35690  Biso   1.000  C
  C112     1.0000 0.31580  0.12760  0.34000  Biso   1.000  C
  H69      1.0000 0.36200  0.12860  0.36690  Biso   1.000  H
  C113     1.0000 0.31200  0.15380  0.28360  Biso   1.000  C
  H70      1.0000 0.35570  0.17290  0.27180  Biso   1.000  H
  C114     1.0000 0.24300  0.15260  0.24320  Biso   1.000  C
  C115     1.0000 0.18480  0.12270  0.26090  Biso   1.000  C
  H71      1.0000 0.13850  0.12050  0.23430  Biso   1.000  H
  C116     1.0000 0.18930  0.09500  0.31570  Biso   1.000  C
  H72      1.0000 0.14820  0.07220  0.32490  Biso   1.000  H
  C117     1.0000 0.23870  0.18190  0.18320  Biso   1.000  C
  Co3      1.0000 0.19396  0.90982  0.98474  Biso   1.000  Co
  N13      1.0000 0.12220  0.86285  0.93930  Biso   1.000  N
  N14      1.0000 0.11900  0.96279  0.95270  Biso   1.000  N
  N15      1.0000 0.86360  0.10754  0.94350  Biso   1.000  N
  N16      1.0000 0.73710  0.14523  0.97950  Biso   1.000  N
  N17      1.0000 0.25950  0.03795  0.52640  Biso   1.000  N
  N18      1.0000 0.25590  0.07455  0.41630  Biso   1.000  N
  O19      1.0000 0.00760  0.97257  0.89110  Biso   1.000  O
  O20      1.0000 0.20070  0.20202  0.01730  Biso   1.000  O
  O21      1.0000 0.20590  0.20535  0.91500  Biso   1.000  O
  O22      1.0000 0.72230  0.20300  0.89790  Biso   1.000  O
  O23      1.0000 0.43230  0.22960  0.09920  Biso   1.000  O
  O24      1.0000 0.37830  0.18280  0.02610  Biso   1.000  O
  O25      1.0000 0.34700  0.01470  0.38750  Biso   1.000  O
  O26      1.0000 0.18210  0.20950  0.17020  Biso   1.000  O
  O27      1.0000 0.29540  0.17950  0.15200  Biso   1.000  O
  Zn3      1.0000 0.29467  0.21700  0.07292  Biso   1.000  Zn
  C118     1.0000 0.62700  0.31030  0.93440  Biso   1.000  C
  H73      1.0000 0.67180  0.29280  0.95230  Biso   1.000  H
  C119     1.0000 0.56850  0.28120  0.90400  Biso   1.000  C
  H74      1.0000 0.57300  0.24400  0.90140  Biso   1.000  H
  C120     1.0000 0.50540  0.30560  0.87820  Biso   1.000  C
  H75      1.0000 0.46520  0.28570  0.85680  Biso   1.000  H
  C121     1.0000 0.49910  0.35920  0.88270  Biso   1.000  C
  H76      1.0000 0.45410  0.37670  0.86520  Biso   1.000  H
  C122     1.0000 0.55870  0.38720  0.91270  Biso   1.000  C
  C123     1.0000 0.55950  0.44560  0.91780  Biso   1.000  C
  C124     1.0000 0.63430  0.51796  0.95390  Biso   1.000  C
  C125     1.0000 0.62780  0.54640  0.00870  Biso   1.000  C
  H77      1.0000 0.61000  0.52960  0.04430  Biso   1.000  H
  C126     1.0000 0.64760  0.59940  0.01080  Biso   1.000  C
  H78      1.0000 0.64210  0.61890  0.04780  Biso   1.000  H
  C127     1.0000 0.67500  0.62379  0.96050  Biso   1.000  C
  C128     1.0000 0.68060  0.59570  0.90580  Biso   1.000  C
  H79      1.0000 0.69820  0.61280  0.87030  Biso   1.000  H
  C129     1.0000 0.66090  0.54300  0.90250  Biso   1.000  C
  H80      1.0000 0.66550  0.52390  0.86500  Biso   1.000  H
  C130     1.0000 0.69590  0.68100  0.96440  Biso   1.000  C
  C131     1.0000 0.43000  0.58620  0.92780  Biso   1.000  C
  H81      1.0000 0.45030  0.55660  0.95040  Biso   1.000  H
  C132     1.0000 0.47010  0.60590  0.87960  Biso   1.000  C
  H82      1.0000 0.51780  0.59050  0.87020  Biso   1.000  H
  C133     1.0000 0.44010  0.64770  0.84590  Biso   1.000  C
  H83      1.0000 0.46680  0.66220  0.81300  Biso   1.000  H
  C134     1.0000 0.36960  0.66850  0.86070  Biso   1.000  C
  H84      1.0000 0.34690  0.69680  0.83700  Biso   1.000  H
  C135     1.0000 0.33310  0.64810  0.90940  Biso   1.000  C
  C136     1.0000 0.25870  0.66830  0.92860  Biso   1.000  C
  C137     1.0000 0.16080  0.65760  0.99740  Biso   1.000  C
  C138     1.0000 0.09820  0.62890  0.97530  Biso   1.000  C
  H85      1.0000 0.10380  0.59970  0.94860  Biso   1.000  H
  C139     1.0000 0.02320  0.64420  0.99360  Biso   1.000  C
  H86      1.0000 0.97880  0.62520  0.97760  Biso   1.000  H
  C140     1.0000 0.01430  0.68490  0.03320  Biso   1.000  C
  C141     1.0000 0.07700  0.71230  0.05430  Biso   1.000  C
  H87      1.0000 0.07160  0.74080  0.08210  Biso   1.000  H
  C142     1.0000 0.14950  0.69930  0.03590  Biso   1.000  C
  H88      1.0000 0.19290  0.72000  0.05060  Biso   1.000  H
  C143     1.0000 0.93390  0.69990  0.05580  Biso   1.000  C
  C144     1.0000 0.75880  0.52260  0.58640  Biso   1.000  C
  H89      1.0000 0.72820  0.54130  0.61370  Biso   1.000  H
  C145     1.0000 0.80220  0.47990  0.60840  Biso   1.000  C
  H90      1.0000 0.80100  0.46940  0.65060  Biso   1.000  H
  C146     1.0000 0.84630  0.45320  0.57010  Biso   1.000  C
  H91      1.0000 0.87480  0.42310  0.58460  Biso   1.000  H
  C147     1.0000 0.84910  0.47060  0.50930  Biso   1.000  C
  H92      1.0000 0.88070  0.45290  0.48160  Biso   1.000  H
  C148     1.0000 0.80590  0.51340  0.48960  Biso   1.000  C
  C149     1.0000 0.80570  0.53460  0.42630  Biso   1.000  C
  C150     1.0000 0.75210  0.59990  0.35690  Biso   1.000  C
  C151     1.0000 0.81580  0.62760  0.34000  Biso   1.000  C
  H93      1.0000 0.86200  0.62860  0.36690  Biso   1.000  H
  C152     1.0000 0.81200  0.65380  0.28360  Biso   1.000  C
  H94      1.0000 0.85570  0.67290  0.27180  Biso   1.000  H
  C153     1.0000 0.74300  0.65260  0.24320  Biso   1.000  C
  C154     1.0000 0.68480  0.62270  0.26090  Biso   1.000  C
  H95      1.0000 0.63850  0.62050  0.23430  Biso   1.000  H
  C155     1.0000 0.68930  0.59500  0.31570  Biso   1.000  C
  H96      1.0000 0.64820  0.57220  0.32490  Biso   1.000  H
  C156     1.0000 0.73870  0.68190  0.18320  Biso   1.000  C
  Co4      1.0000 0.69396  0.40982  0.98474  Biso   1.000  Co
  N19      1.0000 0.62220  0.36285  0.93930  Biso   1.000  N
  N20      1.0000 0.61900  0.46279  0.95270  Biso   1.000  N
  N21      1.0000 0.36360  0.60754  0.94350  Biso   1.000  N
  N22      1.0000 0.23710  0.64523  0.97950  Biso   1.000  N
  N23      1.0000 0.75950  0.53795  0.52640  Biso   1.000  N
  N24      1.0000 0.75590  0.57455  0.41630  Biso   1.000  N
  O28      1.0000 0.50760  0.47257  0.89110  Biso   1.000  O
  O29      1.0000 0.70070  0.70202  0.01730  Biso   1.000  O
  O30      1.0000 0.70590  0.70535  0.91500  Biso   1.000  O
  O31      1.0000 0.22230  0.70300  0.89790  Biso   1.000  O
  O32      1.0000 0.93230  0.72960  0.09920  Biso   1.000  O
  O33      1.0000 0.87830  0.68280  0.02610  Biso   1.000  O
  O34      1.0000 0.84700  0.51470  0.38750  Biso   1.000  O
  O35      1.0000 0.68210  0.70950  0.17020  Biso   1.000  O
  O36      1.0000 0.79540  0.67950  0.15200  Biso   1.000  O
  Zn4      1.0000 0.79467  0.71700  0.07292  Biso   1.000  Zn
  C157     1.0000 0.12700  0.18970  0.43440  Biso   1.000  C
  H97      1.0000 0.17180  0.20720  0.45230  Biso   1.000  H
  C158     1.0000 0.06850  0.21880  0.40400  Biso   1.000  C
  H98      1.0000 0.07300  0.25600  0.40140  Biso   1.000  H
  C159     1.0000 0.00540  0.19440  0.37820  Biso   1.000  C
  H99      1.0000 0.96520  0.21430  0.35680  Biso   1.000  H
  C160     1.0000 0.99910  0.14080  0.38270  Biso   1.000  C
  H100     1.0000 0.95410  0.12330  0.36520  Biso   1.000  H
  C161     1.0000 0.05870  0.11280  0.41270  Biso   1.000  C
  C162     1.0000 0.05950  0.05440  0.41780  Biso   1.000  C
  C163     1.0000 0.13430  0.98204  0.45390  Biso   1.000  C
  C164     1.0000 0.12780  0.95360  0.50870  Biso   1.000  C
  H101     1.0000 0.11000  0.97040  0.54430  Biso   1.000  H
  C165     1.0000 0.14760  0.90060  0.51080  Biso   1.000  C
  H102     1.0000 0.14210  0.88110  0.54780  Biso   1.000  H
  C166     1.0000 0.17500  0.87621  0.46050  Biso   1.000  C
  C167     1.0000 0.18060  0.90430  0.40580  Biso   1.000  C
  H103     1.0000 0.19820  0.88720  0.37030  Biso   1.000  H
  C168     1.0000 0.16090  0.95700  0.40250  Biso   1.000  C
  H104     1.0000 0.16550  0.97610  0.36500  Biso   1.000  H
  C169     1.0000 0.19590  0.81900  0.46440  Biso   1.000  C
  C170     1.0000 0.93000  0.91380  0.42780  Biso   1.000  C
  H105     1.0000 0.95030  0.94340  0.45040  Biso   1.000  H
  C171     1.0000 0.97010  0.89410  0.37960  Biso   1.000  C
  H106     1.0000 0.01780  0.90950  0.37020  Biso   1.000  H
  C172     1.0000 0.94010  0.85230  0.34590  Biso   1.000  C
  H107     1.0000 0.96680  0.83780  0.31300  Biso   1.000  H
  C173     1.0000 0.86960  0.83150  0.36070  Biso   1.000  C
  H108     1.0000 0.84690  0.80320  0.33700  Biso   1.000  H
  C174     1.0000 0.83310  0.85190  0.40940  Biso   1.000  C
  C175     1.0000 0.75870  0.83170  0.42860  Biso   1.000  C
  C176     1.0000 0.66080  0.84240  0.49740  Biso   1.000  C
  C177     1.0000 0.59820  0.87110  0.47530  Biso   1.000  C
  H109     1.0000 0.60380  0.90030  0.44860  Biso   1.000  H
  C178     1.0000 0.52320  0.85580  0.49360  Biso   1.000  C
  H110     1.0000 0.47880  0.87480  0.47760  Biso   1.000  H
  C179     1.0000 0.51430  0.81510  0.53320  Biso   1.000  C
  C180     1.0000 0.57700  0.78770  0.55430  Biso   1.000  C
  H111     1.0000 0.57160  0.75920  0.58210  Biso   1.000  H
  C181     1.0000 0.64950  0.80070  0.53590  Biso   1.000  C
  H112     1.0000 0.69290  0.78000  0.55060  Biso   1.000  H
  C182     1.0000 0.43390  0.80010  0.55580  Biso   1.000  C
  C183     1.0000 0.25880  0.97740  0.08640  Biso   1.000  C
  H113     1.0000 0.22820  0.95870  0.11370  Biso   1.000  H
  C184     1.0000 0.30220  0.02010  0.10840  Biso   1.000  C
  H114     1.0000 0.30100  0.03060  0.15060  Biso   1.000  H
  C185     1.0000 0.34630  0.04680  0.07010  Biso   1.000  C
  H115     1.0000 0.37480  0.07690  0.08460  Biso   1.000  H
  C186     1.0000 0.34910  0.02940  0.00930  Biso   1.000  C
  H116     1.0000 0.38070  0.04710  0.98160  Biso   1.000  H
  C187     1.0000 0.30590  0.98660  0.98960  Biso   1.000  C
  C188     1.0000 0.30570  0.96540  0.92630  Biso   1.000  C
  C189     1.0000 0.25210  0.90010  0.85690  Biso   1.000  C
  C190     1.0000 0.31580  0.87240  0.84000  Biso   1.000  C
  H117     1.0000 0.36200  0.87140  0.86690  Biso   1.000  H
  C191     1.0000 0.31200  0.84620  0.78360  Biso   1.000  C
  H118     1.0000 0.35570  0.82710  0.77180  Biso   1.000  H
  C192     1.0000 0.24300  0.84740  0.74320  Biso   1.000  C
  C193     1.0000 0.18480  0.87730  0.76090  Biso   1.000  C
  H119     1.0000 0.13850  0.87950  0.73430  Biso   1.000  H
  C194     1.0000 0.18930  0.90500  0.81570  Biso   1.000  C
  H120     1.0000 0.14820  0.92780  0.82490  Biso   1.000  H
  C195     1.0000 0.23870  0.81810  0.68320  Biso   1.000  C
  Co5      1.0000 0.19396  0.09018  0.48474  Biso   1.000  Co
  N25      1.0000 0.12220  0.13715  0.43930  Biso   1.000  N
  N26      1.0000 0.11900  0.03721  0.45270  Biso   1.000  N
  N27      1.0000 0.86360  0.89246  0.44350  Biso   1.000  N
  N28      1.0000 0.73710  0.85477  0.47950  Biso   1.000  N
  N29      1.0000 0.25950  0.96205  0.02640  Biso   1.000  N
  N30      1.0000 0.25590  0.92545  0.91630  Biso   1.000  N
  O37      1.0000 0.00760  0.02743  0.39110  Biso   1.000  O
  O38      1.0000 0.20070  0.79798  0.51730  Biso   1.000  O
  O39      1.0000 0.20590  0.79465  0.41500  Biso   1.000  O
  O40      1.0000 0.72230  0.79700  0.39790  Biso   1.000  O
  O41      1.0000 0.43230  0.77040  0.59920  Biso   1.000  O
  O42      1.0000 0.37830  0.81720  0.52610  Biso   1.000  O
  O43      1.0000 0.34700  0.98530  0.88750  Biso   1.000  O
  O44      1.0000 0.18210  0.79050  0.67020  Biso   1.000  O
  O45      1.0000 0.29540  0.82050  0.65200  Biso   1.000  O
  Zn5      1.0000 0.29467  0.78300  0.57292  Biso   1.000  Zn
  C196     1.0000 0.62700  0.68970  0.43440  Biso   1.000  C
  H121     1.0000 0.67180  0.70720  0.45230  Biso   1.000  H
  C197     1.0000 0.56850  0.71880  0.40400  Biso   1.000  C
  H122     1.0000 0.57300  0.75600  0.40140  Biso   1.000  H
  C198     1.0000 0.50540  0.69440  0.37820  Biso   1.000  C
  H123     1.0000 0.46520  0.71430  0.35680  Biso   1.000  H
  C199     1.0000 0.49910  0.64080  0.38270  Biso   1.000  C
  H124     1.0000 0.45410  0.62330  0.36520  Biso   1.000  H
  C200     1.0000 0.55870  0.61280  0.41270  Biso   1.000  C
  C201     1.0000 0.55950  0.55440  0.41780  Biso   1.000  C
  C202     1.0000 0.63430  0.48204  0.45390  Biso   1.000  C
  C203     1.0000 0.62780  0.45360  0.50870  Biso   1.000  C
  H125     1.0000 0.61000  0.47040  0.54430  Biso   1.000  H
  C204     1.0000 0.64760  0.40060  0.51080  Biso   1.000  C
  H126     1.0000 0.64210  0.38110  0.54780  Biso   1.000  H
  C205     1.0000 0.67500  0.37621  0.46050  Biso   1.000  C
  C206     1.0000 0.68060  0.40430  0.40580  Biso   1.000  C
  H127     1.0000 0.69820  0.38720  0.37030  Biso   1.000  H
  C207     1.0000 0.66090  0.45700  0.40250  Biso   1.000  C
  H128     1.0000 0.66550  0.47610  0.36500  Biso   1.000  H
  C208     1.0000 0.69590  0.31900  0.46440  Biso   1.000  C
  C209     1.0000 0.43000  0.41380  0.42780  Biso   1.000  C
  H129     1.0000 0.45030  0.44340  0.45040  Biso   1.000  H
  C210     1.0000 0.47010  0.39410  0.37960  Biso   1.000  C
  H130     1.0000 0.51780  0.40950  0.37020  Biso   1.000  H
  C211     1.0000 0.44010  0.35230  0.34590  Biso   1.000  C
  H131     1.0000 0.46680  0.33780  0.31300  Biso   1.000  H
  C212     1.0000 0.36960  0.33150  0.36070  Biso   1.000  C
  H132     1.0000 0.34690  0.30320  0.33700  Biso   1.000  H
  C213     1.0000 0.33310  0.35190  0.40940  Biso   1.000  C
  C214     1.0000 0.25870  0.33170  0.42860  Biso   1.000  C
  C215     1.0000 0.16080  0.34240  0.49740  Biso   1.000  C
  C216     1.0000 0.09820  0.37110  0.47530  Biso   1.000  C
  H133     1.0000 0.10380  0.40030  0.44860  Biso   1.000  H
  C217     1.0000 0.02320  0.35580  0.49360  Biso   1.000  C
  H134     1.0000 0.97880  0.37480  0.47760  Biso   1.000  H
  C218     1.0000 0.01430  0.31510  0.53320  Biso   1.000  C
  C219     1.0000 0.07700  0.28770  0.55430  Biso   1.000  C
  H135     1.0000 0.07160  0.25920  0.58210  Biso   1.000  H
  C220     1.0000 0.14950  0.30070  0.53590  Biso   1.000  C
  H136     1.0000 0.19290  0.28000  0.55060  Biso   1.000  H
  C221     1.0000 0.93390  0.30010  0.55580  Biso   1.000  C
  C222     1.0000 0.75880  0.47740  0.08640  Biso   1.000  C
  H137     1.0000 0.72820  0.45870  0.11370  Biso   1.000  H
  C223     1.0000 0.80220  0.52010  0.10840  Biso   1.000  C
  H138     1.0000 0.80100  0.53060  0.15060  Biso   1.000  H
  C224     1.0000 0.84630  0.54680  0.07010  Biso   1.000  C
  H139     1.0000 0.87480  0.57690  0.08460  Biso   1.000  H
  C225     1.0000 0.84910  0.52940  0.00930  Biso   1.000  C
  H140     1.0000 0.88070  0.54710  0.98160  Biso   1.000  H
  C226     1.0000 0.80590  0.48660  0.98960  Biso   1.000  C
  C227     1.0000 0.80570  0.46540  0.92630  Biso   1.000  C
  C228     1.0000 0.75210  0.40010  0.85690  Biso   1.000  C
  C229     1.0000 0.81580  0.37240  0.84000  Biso   1.000  C
  H141     1.0000 0.86200  0.37140  0.86690  Biso   1.000  H
  C230     1.0000 0.81200  0.34620  0.78360  Biso   1.000  C
  H142     1.0000 0.85570  0.32710  0.77180  Biso   1.000  H
  C231     1.0000 0.74300  0.34740  0.74320  Biso   1.000  C
  C232     1.0000 0.68480  0.37730  0.76090  Biso   1.000  C
  H143     1.0000 0.63850  0.37950  0.73430  Biso   1.000  H
  C233     1.0000 0.68930  0.40500  0.81570  Biso   1.000  C
  H144     1.0000 0.64820  0.42780  0.82490  Biso   1.000  H
  C234     1.0000 0.73870  0.31810  0.68320  Biso   1.000  C
  Co6      1.0000 0.69396  0.59018  0.48474  Biso   1.000  Co
  N31      1.0000 0.62220  0.63715  0.43930  Biso   1.000  N
  N32      1.0000 0.61900  0.53721  0.45270  Biso   1.000  N
  N33      1.0000 0.36360  0.39246  0.44350  Biso   1.000  N
  N34      1.0000 0.23710  0.35477  0.47950  Biso   1.000  N
  N35      1.0000 0.75950  0.46205  0.02640  Biso   1.000  N
  N36      1.0000 0.75590  0.42545  0.91630  Biso   1.000  N
  O46      1.0000 0.50760  0.52743  0.39110  Biso   1.000  O
  O47      1.0000 0.70070  0.29798  0.51730  Biso   1.000  O
  O48      1.0000 0.70590  0.29465  0.41500  Biso   1.000  O
  O49      1.0000 0.22230  0.29700  0.39790  Biso   1.000  O
  O50      1.0000 0.93230  0.27040  0.59920  Biso   1.000  O
  O51      1.0000 0.87830  0.31720  0.52610  Biso   1.000  O
  O52      1.0000 0.84700  0.48530  0.88750  Biso   1.000  O
  O53      1.0000 0.68210  0.29050  0.67020  Biso   1.000  O
  O54      1.0000 0.79540  0.32050  0.65200  Biso   1.000  O
  Zn6      1.0000 0.79467  0.28300  0.57292  Biso   1.000  Zn
  C235     1.0000 0.87300  0.18970  0.06560  Biso   1.000  C
  H145     1.0000 0.82820  0.20720  0.04770  Biso   1.000  H
  C236     1.0000 0.93150  0.21880  0.09600  Biso   1.000  C
  H146     1.0000 0.92700  0.25600  0.09860  Biso   1.000  H
  C237     1.0000 0.99460  0.19440  0.12180  Biso   1.000  C
  H147     1.0000 0.03480  0.21430  0.14320  Biso   1.000  H
  C238     1.0000 0.00090  0.14080  0.11730  Biso   1.000  C
  H148     1.0000 0.04590  0.12330  0.13480  Biso   1.000  H
  C239     1.0000 0.94130  0.11280  0.08730  Biso   1.000  C
  C240     1.0000 0.94050  0.05440  0.08220  Biso   1.000  C
  C241     1.0000 0.86570  0.98204  0.04610  Biso   1.000  C
  C242     1.0000 0.87220  0.95360  0.99130  Biso   1.000  C
  H149     1.0000 0.89000  0.97040  0.95570  Biso   1.000  H
  C243     1.0000 0.85240  0.90060  0.98920  Biso   1.000  C
  H150     1.0000 0.85790  0.88110  0.95220  Biso   1.000  H
  C244     1.0000 0.82500  0.87621  0.03950  Biso   1.000  C
  C245     1.0000 0.81940  0.90430  0.09420  Biso   1.000  C
  H151     1.0000 0.80180  0.88720  0.12970  Biso   1.000  H
  C246     1.0000 0.83910  0.95700  0.09750  Biso   1.000  C
  H152     1.0000 0.83450  0.97610  0.13500  Biso   1.000  H
  C247     1.0000 0.80410  0.81900  0.03560  Biso   1.000  C
  C248     1.0000 0.07000  0.91380  0.07220  Biso   1.000  C
  H153     1.0000 0.04970  0.94340  0.04960  Biso   1.000  H
  C249     1.0000 0.02990  0.89410  0.12040  Biso   1.000  C
  H154     1.0000 0.98220  0.90950  0.12980  Biso   1.000  H
  C250     1.0000 0.05990  0.85230  0.15410  Biso   1.000  C
  H155     1.0000 0.03320  0.83780  0.18700  Biso   1.000  H
  C251     1.0000 0.13040  0.83150  0.13930  Biso   1.000  C
  H156     1.0000 0.15310  0.80320  0.16300  Biso   1.000  H
  C252     1.0000 0.16690  0.85190  0.09060  Biso   1.000  C
  C253     1.0000 0.24130  0.83170  0.07140  Biso   1.000  C
  C254     1.0000 0.33920  0.84240  0.00260  Biso   1.000  C
  C255     1.0000 0.40180  0.87110  0.02470  Biso   1.000  C
  H157     1.0000 0.39620  0.90030  0.05140  Biso   1.000  H
  C256     1.0000 0.47680  0.85580  0.00640  Biso   1.000  C
  H158     1.0000 0.52120  0.87480  0.02240  Biso   1.000  H
  C257     1.0000 0.48570  0.81510  0.96680  Biso   1.000  C
  C258     1.0000 0.42300  0.78770  0.94570  Biso   1.000  C
  H159     1.0000 0.42840  0.75920  0.91790  Biso   1.000  H
  C259     1.0000 0.35050  0.80070  0.96410  Biso   1.000  C
  H160     1.0000 0.30710  0.78000  0.94940  Biso   1.000  H
  C260     1.0000 0.56610  0.80010  0.94420  Biso   1.000  C
  C261     1.0000 0.74120  0.97740  0.41360  Biso   1.000  C
  H161     1.0000 0.77180  0.95870  0.38630  Biso   1.000  H
  C262     1.0000 0.69780  0.02010  0.39160  Biso   1.000  C
  H162     1.0000 0.69900  0.03060  0.34940  Biso   1.000  H
  C263     1.0000 0.65370  0.04680  0.42990  Biso   1.000  C
  H163     1.0000 0.62520  0.07690  0.41540  Biso   1.000  H
  C264     1.0000 0.65090  0.02940  0.49070  Biso   1.000  C
  H164     1.0000 0.61930  0.04710  0.51840  Biso   1.000  H
  C265     1.0000 0.69410  0.98660  0.51040  Biso   1.000  C
  C266     1.0000 0.69430  0.96540  0.57370  Biso   1.000  C
  C267     1.0000 0.74790  0.90010  0.64310  Biso   1.000  C
  C268     1.0000 0.68420  0.87240  0.66000  Biso   1.000  C
  H165     1.0000 0.63800  0.87140  0.63310  Biso   1.000  H
  C269     1.0000 0.68800  0.84620  0.71640  Biso   1.000  C
  H166     1.0000 0.64430  0.82710  0.72820  Biso   1.000  H
  C270     1.0000 0.75700  0.84740  0.75680  Biso   1.000  C
  C271     1.0000 0.81520  0.87730  0.73910  Biso   1.000  C
  H167     1.0000 0.86150  0.87950  0.76570  Biso   1.000  H
  C272     1.0000 0.81070  0.90500  0.68430  Biso   1.000  C
  H168     1.0000 0.85180  0.92780  0.67510  Biso   1.000  H
  C273     1.0000 0.76130  0.81810  0.81680  Biso   1.000  C
  Co7      1.0000 0.80604  0.09018  0.01526  Biso   1.000  Co
  N37      1.0000 0.87780  0.13715  0.06070  Biso   1.000  N
  N38      1.0000 0.88100  0.03721  0.04730  Biso   1.000  N
  N39      1.0000 0.13640  0.89246  0.05650  Biso   1.000  N
  N40      1.0000 0.26290  0.85477  0.02050  Biso   1.000  N
  N41      1.0000 0.74050  0.96205  0.47360  Biso   1.000  N
  N42      1.0000 0.74410  0.92545  0.58370  Biso   1.000  N
  O55      1.0000 0.99240  0.02743  0.10890  Biso   1.000  O
  O56      1.0000 0.79930  0.79798  0.98270  Biso   1.000  O
  O57      1.0000 0.79410  0.79465  0.08500  Biso   1.000  O
  O58      1.0000 0.27770  0.79700  0.10210  Biso   1.000  O
  O59      1.0000 0.56770  0.77040  0.90080  Biso   1.000  O
  O60      1.0000 0.62170  0.81720  0.97390  Biso   1.000  O
  O61      1.0000 0.65300  0.98530  0.61250  Biso   1.000  O
  O62      1.0000 0.81790  0.79050  0.82980  Biso   1.000  O
  O63      1.0000 0.70460  0.82050  0.84800  Biso   1.000  O
  Zn7      1.0000 0.70533  0.78300  0.92708  Biso   1.000  Zn
  C274     1.0000 0.37300  0.68970  0.06560  Biso   1.000  C
  H169     1.0000 0.32820  0.70720  0.04770  Biso   1.000  H
  C275     1.0000 0.43150  0.71880  0.09600  Biso   1.000  C
  H170     1.0000 0.42700  0.75600  0.09860  Biso   1.000  H
  C276     1.0000 0.49460  0.69440  0.12180  Biso   1.000  C
  H171     1.0000 0.53480  0.71430  0.14320  Biso   1.000  H
  C277     1.0000 0.50090  0.64080  0.11730  Biso   1.000  C
  H172     1.0000 0.54590  0.62330  0.13480  Biso   1.000  H
  C278     1.0000 0.44130  0.61280  0.08730  Biso   1.000  C
  C279     1.0000 0.44050  0.55440  0.08220  Biso   1.000  C
  C280     1.0000 0.36570  0.48204  0.04610  Biso   1.000  C
  C281     1.0000 0.37220  0.45360  0.99130  Biso   1.000  C
  H173     1.0000 0.39000  0.47040  0.95570  Biso   1.000  H
  C282     1.0000 0.35240  0.40060  0.98920  Biso   1.000  C
  H174     1.0000 0.35790  0.38110  0.95220  Biso   1.000  H
  C283     1.0000 0.32500  0.37621  0.03950  Biso   1.000  C
  C284     1.0000 0.31940  0.40430  0.09420  Biso   1.000  C
  H175     1.0000 0.30180  0.38720  0.12970  Biso   1.000  H
  C285     1.0000 0.33910  0.45700  0.09750  Biso   1.000  C
  H176     1.0000 0.33450  0.47610  0.13500  Biso   1.000  H
  C286     1.0000 0.30410  0.31900  0.03560  Biso   1.000  C
  C287     1.0000 0.57000  0.41380  0.07220  Biso   1.000  C
  H177     1.0000 0.54970  0.44340  0.04960  Biso   1.000  H
  C288     1.0000 0.52990  0.39410  0.12040  Biso   1.000  C
  H178     1.0000 0.48220  0.40950  0.12980  Biso   1.000  H
  C289     1.0000 0.55990  0.35230  0.15410  Biso   1.000  C
  H179     1.0000 0.53320  0.33780  0.18700  Biso   1.000  H
  C290     1.0000 0.63040  0.33150  0.13930  Biso   1.000  C
  H180     1.0000 0.65310  0.30320  0.16300  Biso   1.000  H
  C291     1.0000 0.66690  0.35190  0.09060  Biso   1.000  C
  C292     1.0000 0.74130  0.33170  0.07140  Biso   1.000  C
  C293     1.0000 0.83920  0.34240  0.00260  Biso   1.000  C
  C294     1.0000 0.90180  0.37110  0.02470  Biso   1.000  C
  H181     1.0000 0.89620  0.40030  0.05140  Biso   1.000  H
  C295     1.0000 0.97680  0.35580  0.00640  Biso   1.000  C
  H182     1.0000 0.02120  0.37480  0.02240  Biso   1.000  H
  C296     1.0000 0.98570  0.31510  0.96680  Biso   1.000  C
  C297     1.0000 0.92300  0.28770  0.94570  Biso   1.000  C
  H183     1.0000 0.92840  0.25920  0.91790  Biso   1.000  H
  C298     1.0000 0.85050  0.30070  0.96410  Biso   1.000  C
  H184     1.0000 0.80710  0.28000  0.94940  Biso   1.000  H
  C299     1.0000 0.06610  0.30010  0.94420  Biso   1.000  C
  C300     1.0000 0.24120  0.47740  0.41360  Biso   1.000  C
  H185     1.0000 0.27180  0.45870  0.38630  Biso   1.000  H
  C301     1.0000 0.19780  0.52010  0.39160  Biso   1.000  C
  H186     1.0000 0.19900  0.53060  0.34940  Biso   1.000  H
  C302     1.0000 0.15370  0.54680  0.42990  Biso   1.000  C
  H187     1.0000 0.12520  0.57690  0.41540  Biso   1.000  H
  C303     1.0000 0.15090  0.52940  0.49070  Biso   1.000  C
  H188     1.0000 0.11930  0.54710  0.51840  Biso   1.000  H
  C304     1.0000 0.19410  0.48660  0.51040  Biso   1.000  C
  C305     1.0000 0.19430  0.46540  0.57370  Biso   1.000  C
  C306     1.0000 0.24790  0.40010  0.64310  Biso   1.000  C
  C307     1.0000 0.18420  0.37240  0.66000  Biso   1.000  C
  H189     1.0000 0.13800  0.37140  0.63310  Biso   1.000  H
  C308     1.0000 0.18800  0.34620  0.71640  Biso   1.000  C
  H190     1.0000 0.14430  0.32710  0.72820  Biso   1.000  H
  C309     1.0000 0.25700  0.34740  0.75680  Biso   1.000  C
  C310     1.0000 0.31520  0.37730  0.73910  Biso   1.000  C
  H191     1.0000 0.36150  0.37950  0.76570  Biso   1.000  H
  C311     1.0000 0.31070  0.40500  0.68430  Biso   1.000  C
  H192     1.0000 0.35180  0.42780  0.67510  Biso   1.000  H
  C312     1.0000 0.26130  0.31810  0.81680  Biso   1.000  C
  Co8      1.0000 0.30604  0.59018  0.01526  Biso   1.000  Co
  N43      1.0000 0.37780  0.63715  0.06070  Biso   1.000  N
  N44      1.0000 0.38100  0.53721  0.04730  Biso   1.000  N
  N45      1.0000 0.63640  0.39246  0.05650  Biso   1.000  N
  N46      1.0000 0.76290  0.35477  0.02050  Biso   1.000  N
  N47      1.0000 0.24050  0.46205  0.47360  Biso   1.000  N
  N48      1.0000 0.24410  0.42545  0.58370  Biso   1.000  N
  O64      1.0000 0.49240  0.52743  0.10890  Biso   1.000  O
  O65      1.0000 0.29930  0.29798  0.98270  Biso   1.000  O
  O66      1.0000 0.29410  0.29465  0.08500  Biso   1.000  O
  O67      1.0000 0.77770  0.29700  0.10210  Biso   1.000  O
  O68      1.0000 0.06770  0.27040  0.90080  Biso   1.000  O
  O69      1.0000 0.12170  0.31720  0.97390  Biso   1.000  O
  O70      1.0000 0.15300  0.48530  0.61250  Biso   1.000  O
  O71      1.0000 0.31790  0.29050  0.82980  Biso   1.000  O
  O72      1.0000 0.20460  0.32050  0.84800  Biso   1.000  O
  Zn8      1.0000 0.20533  0.28300  0.92708  Biso   1.000  Zn
