data_image0
_cell_length_a       15.029
_cell_length_b       19.2206
_cell_length_c       21.3862
_cell_angle_alpha    90
_cell_angle_beta     118.363
_cell_angle_gamma    90

_symmetry_space_group_name_H-M    "P 1"
_symmetry_int_tables_number       1

loop_
  _symmetry_equiv_pos_as_xyz
  'x, y, z'

loop_
  _atom_site_label
  _atom_site_occupancy
  _atom_site_fract_x
  _atom_site_fract_y
  _atom_site_fract_z
  _atom_site_thermal_displace_type
  _atom_site_B_iso_or_equiv
  _atom_site_type_symbol
  Zn1      1.0000 0.78771  0.93170  0.86787  Biso   1.000  Zn
  Zn2      1.0000 0.95700  0.87430  0.42457  Biso   1.000  Zn
  Zn3      1.0000 0.75019  0.78062  0.39652  Biso   1.000  Zn
  Co1      1.0000 0.24228  0.82004  0.80418  Biso   1.000  Co
  O1       1.0000 0.16030  0.01979  0.78756  Biso   1.000  O
  O2       1.0000 0.64620  0.00491  0.78768  Biso   1.000  O
  O3       1.0000 0.64427  0.90253  0.83128  Biso   1.000  O
  O4       1.0000 0.14170  0.99483  0.06418  Biso   1.000  O
  O5       1.0000 0.84360  0.92589  0.80180  Biso   1.000  O
  O6       1.0000 0.84510  0.83788  0.91950  Biso   1.000  O
  O7       1.0000 0.24900  0.01165  0.02188  Biso   1.000  O
  O8       1.0000 0.17880  0.07945  0.63137  Biso   1.000  O
  O9       1.0000 0.31830  0.12969  0.64344  Biso   1.000  O
  O10      1.0000 0.73060  0.85960  0.71756  Biso   1.000  O
  O11      1.0000 0.80800  0.81307  0.50253  Biso   1.000  O
  O12      1.0000 0.94330  0.87257  0.51531  Biso   1.000  O
  O13      1.0000 0.25640  0.70655  0.96574  Biso   1.000  O
  O14      1.0000 0.89042  0.73448  0.90198  Biso   1.000  O
  O15      1.0000 0.22640  0.80879  0.61265  Biso   1.000  O
  N1       1.0000 0.34270  0.88688  0.86414  Biso   1.000  N
  N2       1.0000 0.15560  0.90073  0.77668  Biso   1.000  N
  N3       1.0000 0.33460  0.74144  0.83746  Biso   1.000  N
  N4       1.0000 0.21430  0.79098  0.88059  Biso   1.000  N
  N5       1.0000 0.14290  0.75760  0.73440  Biso   1.000  N
  N6       1.0000 0.27210  0.83920  0.72723  Biso   1.000  N
  C1       1.0000 0.44080  0.87430  0.90793  Biso   1.000  C
  H1       1.0000 0.46220  0.82860  0.92040  Biso   1.000  H
  C2       1.0000 0.51070  0.92720  0.93500  Biso   1.000  C
  H2       1.0000 0.57850  0.91730  0.96510  Biso   1.000  H
  C3       1.0000 0.47910  0.99460  0.91710  Biso   1.000  C
  H3       1.0000 0.52570  0.03080  0.93310  Biso   1.000  H
  C4       1.0000 0.37750  0.00850  0.87510  Biso   1.000  C
  H4       1.0000 0.35440  0.05400  0.86440  Biso   1.000  H
  C5       1.0000 0.31100  0.95312  0.84932  Biso   1.000  C
  C6       1.0000 0.20000  0.96133  0.80107  Biso   1.000  C
  C7       1.0000 0.05000  0.89727  0.72957  Biso   1.000  C
  C8       1.0000 0.01440  0.88332  0.65825  Biso   1.000  C
  H5       1.0000 0.05930  0.88400  0.63980  Biso   1.000  H
  C9       1.0000 0.91370  0.86834  0.61375  Biso   1.000  C
  C10      1.0000 0.84610  0.86919  0.64113  Biso   1.000  C
  H6       1.0000 0.77890  0.85660  0.61260  Biso   1.000  H
  C11      1.0000 0.87970  0.88906  0.71164  Biso   1.000  C
  C12      1.0000 0.98130  0.90328  0.75516  Biso   1.000  C
  H7       1.0000 0.00350  0.91700  0.80200  Biso   1.000  H
  C13      1.0000 0.88450  0.84973  0.53709  Biso   1.000  C
  C14      1.0000 0.81040  0.89140  0.74463  Biso   1.000  C
  C15      1.0000 0.39830  0.72014  0.81350  Biso   1.000  C
  H8       1.0000 0.39780  0.74340  0.77520  Biso   1.000  H
  C16      1.0000 0.46340  0.66590  0.84300  Biso   1.000  C
  H9       1.0000 0.50730  0.65290  0.82580  Biso   1.000  H
  C17      1.0000 0.46270  0.63080  0.89880  Biso   1.000  C
  H10      1.0000 0.50710  0.59410  0.92050  Biso   1.000  H
  C18      1.0000 0.39540  0.65080  0.92230  Biso   1.000  C
  H11      1.0000 0.39240  0.62670  0.95890  Biso   1.000  H
  C19      1.0000 0.33330  0.70656  0.89120  Biso   1.000  C
  C20      1.0000 0.26260  0.73499  0.91531  Biso   1.000  C
  C21      1.0000 0.15340  0.82519  0.90670  Biso   1.000  C
  C22      1.0000 0.18840  0.88549  0.94624  Biso   1.000  C
  H12      1.0000 0.24890  0.90500  0.95290  Biso   1.000  H
  C23      1.0000 0.13450  0.91732  0.97629  Biso   1.000  C
  C24      1.0000 0.04320  0.88925  0.96494  Biso   1.000  C
  H13      1.0000 0.00640  0.91060  0.98430  Biso   1.000  H
  C25      1.0000 0.00660  0.82906  0.92448  Biso   1.000  C
  C26      1.0000 0.06150  0.79709  0.89582  Biso   1.000  C
  H14      1.0000 0.03710  0.75660  0.86920  Biso   1.000  H
  C27      1.0000 0.90870  0.79929  0.91460  Biso   1.000  C
  C28      1.0000 0.07210  0.72000  0.73990  Biso   1.000  C
  H15      1.0000 0.06830  0.72170  0.78210  Biso   1.000  H
  C29      1.0000 0.00470  0.67900  0.68540  Biso   1.000  C
  H16      1.0000 0.95540  0.65410  0.69040  Biso   1.000  H
  C30      1.0000 0.01100  0.67490  0.62320  Biso   1.000  C
  H17      1.0000 0.96590  0.64750  0.58570  Biso   1.000  H
  C31      1.0000 0.08490  0.71210  0.61770  Biso   1.000  C
  H18      1.0000 0.09190  0.70930  0.57680  Biso   1.000  H
  C32      1.0000 0.14800  0.75328  0.67329  Biso   1.000  C
  C33      1.0000 0.22070  0.80313  0.66856  Biso   1.000  C
  C34      1.0000 0.32860  0.89770  0.72327  Biso   1.000  C
  C35      1.0000 0.43290  0.89633  0.75659  Biso   1.000  C
  H19      1.0000 0.46760  0.85650  0.78030  Biso   1.000  H
  C36      1.0000 0.48540  0.95458  0.75452  Biso   1.000  C
  C37      1.0000 0.43340  0.01377  0.71900  Biso   1.000  C
  H20      1.0000 0.46890  0.05270  0.71750  Biso   1.000  H
  C38      1.0000 0.27700  0.95674  0.68767  Biso   1.000  C
  H21      1.0000 0.20670  0.95710  0.66480  Biso   1.000  H
  C39      1.0000 0.59910  0.95498  0.79275  Biso   1.000  C
  C40      1.0000 0.32910  0.01531  0.68584  Biso   1.000  C
  C41      1.0000 0.27050  0.07970  0.65023  Biso   1.000  C
  C42      1.0000 0.17900  0.97982  0.02350  Biso   1.000  C
  Zn4      1.0000 0.21229  0.43170  0.63213  Biso   1.000  Zn
  Zn5      1.0000 0.04300  0.37430  0.07543  Biso   1.000  Zn
  Zn6      1.0000 0.24981  0.28062  0.10348  Biso   1.000  Zn
  Co2      1.0000 0.75772  0.32004  0.69582  Biso   1.000  Co
  O16      1.0000 0.83970  0.51979  0.71244  Biso   1.000  O
  O17      1.0000 0.35380  0.50491  0.71232  Biso   1.000  O
  O18      1.0000 0.35573  0.40253  0.66872  Biso   1.000  O
  O19      1.0000 0.85830  0.49483  0.43582  Biso   1.000  O
  O20      1.0000 0.15640  0.42589  0.69820  Biso   1.000  O
  O21      1.0000 0.15490  0.33788  0.58050  Biso   1.000  O
  O22      1.0000 0.75100  0.51165  0.47812  Biso   1.000  O
  O23      1.0000 0.82120  0.57945  0.86863  Biso   1.000  O
  O24      1.0000 0.68170  0.62969  0.85656  Biso   1.000  O
  O25      1.0000 0.26940  0.35960  0.78244  Biso   1.000  O
  O26      1.0000 0.19200  0.31307  0.99747  Biso   1.000  O
  O27      1.0000 0.05670  0.37257  0.98469  Biso   1.000  O
  O28      1.0000 0.74360  0.20655  0.53426  Biso   1.000  O
  O29      1.0000 0.10958  0.23448  0.59802  Biso   1.000  O
  O30      1.0000 0.77360  0.30879  0.88735  Biso   1.000  O
  N7       1.0000 0.65730  0.38688  0.63586  Biso   1.000  N
  N8       1.0000 0.84440  0.40073  0.72332  Biso   1.000  N
  N9       1.0000 0.66540  0.24144  0.66254  Biso   1.000  N
  N10      1.0000 0.78570  0.29098  0.61941  Biso   1.000  N
  N11      1.0000 0.85710  0.25760  0.76560  Biso   1.000  N
  N12      1.0000 0.72790  0.33920  0.77277  Biso   1.000  N
  C43      1.0000 0.55920  0.37430  0.59207  Biso   1.000  C
  H22      1.0000 0.53780  0.32860  0.57960  Biso   1.000  H
  C44      1.0000 0.48930  0.42720  0.56500  Biso   1.000  C
  H23      1.0000 0.42150  0.41730  0.53490  Biso   1.000  H
  C45      1.0000 0.52090  0.49460  0.58290  Biso   1.000  C
  H24      1.0000 0.47430  0.53080  0.56690  Biso   1.000  H
  C46      1.0000 0.62250  0.50850  0.62490  Biso   1.000  C
  H25      1.0000 0.64560  0.55400  0.63560  Biso   1.000  H
  C47      1.0000 0.68900  0.45312  0.65068  Biso   1.000  C
  C48      1.0000 0.80000  0.46133  0.69893  Biso   1.000  C
  C49      1.0000 0.95000  0.39727  0.77043  Biso   1.000  C
  C50      1.0000 0.98560  0.38332  0.84175  Biso   1.000  C
  H26      1.0000 0.94070  0.38400  0.86020  Biso   1.000  H
  C51      1.0000 0.08630  0.36834  0.88625  Biso   1.000  C
  C52      1.0000 0.15390  0.36919  0.85887  Biso   1.000  C
  H27      1.0000 0.22110  0.35660  0.88740  Biso   1.000  H
  C53      1.0000 0.12030  0.38906  0.78836  Biso   1.000  C
  C54      1.0000 0.01870  0.40328  0.74484  Biso   1.000  C
  H28      1.0000 0.99650  0.41700  0.69800  Biso   1.000  H
  C55      1.0000 0.11550  0.34973  0.96291  Biso   1.000  C
  C56      1.0000 0.18960  0.39140  0.75537  Biso   1.000  C
  C57      1.0000 0.60170  0.22014  0.68650  Biso   1.000  C
  H29      1.0000 0.60220  0.24340  0.72480  Biso   1.000  H
  C58      1.0000 0.53660  0.16590  0.65700  Biso   1.000  C
  H30      1.0000 0.49270  0.15290  0.67420  Biso   1.000  H
  C59      1.0000 0.53730  0.13080  0.60120  Biso   1.000  C
  H31      1.0000 0.49290  0.09410  0.57950  Biso   1.000  H
  C60      1.0000 0.60460  0.15080  0.57770  Biso   1.000  C
  H32      1.0000 0.60760  0.12670  0.54110  Biso   1.000  H
  C61      1.0000 0.66670  0.20656  0.60880  Biso   1.000  C
  C62      1.0000 0.73740  0.23499  0.58469  Biso   1.000  C
  C63      1.0000 0.84660  0.32519  0.59330  Biso   1.000  C
  C64      1.0000 0.81160  0.38549  0.55376  Biso   1.000  C
  H33      1.0000 0.75110  0.40500  0.54710  Biso   1.000  H
  C65      1.0000 0.86550  0.41732  0.52371  Biso   1.000  C
  C66      1.0000 0.95680  0.38925  0.53506  Biso   1.000  C
  H34      1.0000 0.99360  0.41060  0.51570  Biso   1.000  H
  C67      1.0000 0.99340  0.32906  0.57552  Biso   1.000  C
  C68      1.0000 0.93850  0.29709  0.60418  Biso   1.000  C
  H35      1.0000 0.96290  0.25660  0.63080  Biso   1.000  H
  C69      1.0000 0.09130  0.29929  0.58540  Biso   1.000  C
  C70      1.0000 0.92790  0.22000  0.76010  Biso   1.000  C
  H36      1.0000 0.93170  0.22170  0.71790  Biso   1.000  H
  C71      1.0000 0.99530  0.17900  0.81460  Biso   1.000  C
  H37      1.0000 0.04460  0.15410  0.80960  Biso   1.000  H
  C72      1.0000 0.98900  0.17490  0.87680  Biso   1.000  C
  H38      1.0000 0.03410  0.14750  0.91430  Biso   1.000  H
  C73      1.0000 0.91510  0.21210  0.88230  Biso   1.000  C
  H39      1.0000 0.90810  0.20930  0.92320  Biso   1.000  H
  C74      1.0000 0.85200  0.25328  0.82671  Biso   1.000  C
  C75      1.0000 0.77930  0.30313  0.83144  Biso   1.000  C
  C76      1.0000 0.67140  0.39770  0.77673  Biso   1.000  C
  C77      1.0000 0.56710  0.39633  0.74341  Biso   1.000  C
  H40      1.0000 0.53240  0.35650  0.71970  Biso   1.000  H
  C78      1.0000 0.51460  0.45458  0.74548  Biso   1.000  C
  C79      1.0000 0.56660  0.51377  0.78100  Biso   1.000  C
  H41      1.0000 0.53110  0.55270  0.78250  Biso   1.000  H
  C80      1.0000 0.72300  0.45674  0.81233  Biso   1.000  C
  H42      1.0000 0.79330  0.45710  0.83520  Biso   1.000  H
  C81      1.0000 0.40090  0.45498  0.70725  Biso   1.000  C
  C82      1.0000 0.67090  0.51531  0.81416  Biso   1.000  C
  C83      1.0000 0.72950  0.57970  0.84977  Biso   1.000  C
  C84      1.0000 0.82100  0.47982  0.47650  Biso   1.000  C
  Zn7      1.0000 0.21229  0.06830  0.13213  Biso   1.000  Zn
  Zn8      1.0000 0.04300  0.12570  0.57543  Biso   1.000  Zn
  Zn9      1.0000 0.24981  0.21938  0.60348  Biso   1.000  Zn
  Co3      1.0000 0.75772  0.17996  0.19582  Biso   1.000  Co
  O31      1.0000 0.83970  0.98021  0.21244  Biso   1.000  O
  O32      1.0000 0.35380  0.99509  0.21232  Biso   1.000  O
  O33      1.0000 0.35573  0.09747  0.16872  Biso   1.000  O
  O34      1.0000 0.85830  0.00517  0.93582  Biso   1.000  O
  O35      1.0000 0.15640  0.07411  0.19820  Biso   1.000  O
  O36      1.0000 0.15490  0.16212  0.08050  Biso   1.000  O
  O37      1.0000 0.75100  0.98835  0.97812  Biso   1.000  O
  O38      1.0000 0.82120  0.92055  0.36863  Biso   1.000  O
  O39      1.0000 0.68170  0.87031  0.35656  Biso   1.000  O
  O40      1.0000 0.26940  0.14040  0.28244  Biso   1.000  O
  O41      1.0000 0.19200  0.18693  0.49747  Biso   1.000  O
  O42      1.0000 0.05670  0.12743  0.48469  Biso   1.000  O
  O43      1.0000 0.74360  0.29345  0.03426  Biso   1.000  O
  O44      1.0000 0.10958  0.26552  0.09802  Biso   1.000  O
  O45      1.0000 0.77360  0.19121  0.38735  Biso   1.000  O
  N13      1.0000 0.65730  0.11312  0.13586  Biso   1.000  N
  N14      1.0000 0.84440  0.09927  0.22332  Biso   1.000  N
  N15      1.0000 0.66540  0.25856  0.16254  Biso   1.000  N
  N16      1.0000 0.78570  0.20902  0.11941  Biso   1.000  N
  N17      1.0000 0.85710  0.24240  0.26560  Biso   1.000  N
  N18      1.0000 0.72790  0.16080  0.27277  Biso   1.000  N
  C85      1.0000 0.55920  0.12570  0.09207  Biso   1.000  C
  H43      1.0000 0.53780  0.17140  0.07960  Biso   1.000  H
  C86      1.0000 0.48930  0.07280  0.06500  Biso   1.000  C
  H44      1.0000 0.42150  0.08270  0.03490  Biso   1.000  H
  C87      1.0000 0.52090  0.00540  0.08290  Biso   1.000  C
  H45      1.0000 0.47430  0.96920  0.06690  Biso   1.000  H
  C88      1.0000 0.62250  0.99150  0.12490  Biso   1.000  C
  H46      1.0000 0.64560  0.94600  0.13560  Biso   1.000  H
  C89      1.0000 0.68900  0.04688  0.15068  Biso   1.000  C
  C90      1.0000 0.80000  0.03867  0.19893  Biso   1.000  C
  C91      1.0000 0.95000  0.10273  0.27043  Biso   1.000  C
  C92      1.0000 0.98560  0.11668  0.34175  Biso   1.000  C
  H47      1.0000 0.94070  0.11600  0.36020  Biso   1.000  H
  C93      1.0000 0.08630  0.13166  0.38625  Biso   1.000  C
  C94      1.0000 0.15390  0.13081  0.35887  Biso   1.000  C
  H48      1.0000 0.22110  0.14340  0.38740  Biso   1.000  H
  C95      1.0000 0.12030  0.11094  0.28836  Biso   1.000  C
  C96      1.0000 0.01870  0.09672  0.24484  Biso   1.000  C
  H49      1.0000 0.99650  0.08300  0.19800  Biso   1.000  H
  C97      1.0000 0.11550  0.15027  0.46291  Biso   1.000  C
  C98      1.0000 0.18960  0.10860  0.25537  Biso   1.000  C
  C99      1.0000 0.60170  0.27986  0.18650  Biso   1.000  C
  H50      1.0000 0.60220  0.25660  0.22480  Biso   1.000  H
  C100     1.0000 0.53660  0.33410  0.15700  Biso   1.000  C
  H51      1.0000 0.49270  0.34710  0.17420  Biso   1.000  H
  C101     1.0000 0.53730  0.36920  0.10120  Biso   1.000  C
  H52      1.0000 0.49290  0.40590  0.07950  Biso   1.000  H
  C102     1.0000 0.60460  0.34920  0.07770  Biso   1.000  C
  H53      1.0000 0.60760  0.37330  0.04110  Biso   1.000  H
  C103     1.0000 0.66670  0.29344  0.10880  Biso   1.000  C
  C104     1.0000 0.73740  0.26501  0.08469  Biso   1.000  C
  C105     1.0000 0.84660  0.17481  0.09330  Biso   1.000  C
  C106     1.0000 0.81160  0.11451  0.05376  Biso   1.000  C
  H54      1.0000 0.75110  0.09500  0.04710  Biso   1.000  H
  C107     1.0000 0.86550  0.08268  0.02371  Biso   1.000  C
  C108     1.0000 0.95680  0.11075  0.03506  Biso   1.000  C
  H55      1.0000 0.99360  0.08940  0.01570  Biso   1.000  H
  C109     1.0000 0.99340  0.17094  0.07552  Biso   1.000  C
  C110     1.0000 0.93850  0.20291  0.10418  Biso   1.000  C
  H56      1.0000 0.96290  0.24340  0.13080  Biso   1.000  H
  C111     1.0000 0.09130  0.20071  0.08540  Biso   1.000  C
  C112     1.0000 0.92790  0.28000  0.26010  Biso   1.000  C
  H57      1.0000 0.93170  0.27830  0.21790  Biso   1.000  H
  C113     1.0000 0.99530  0.32100  0.31460  Biso   1.000  C
  H58      1.0000 0.04460  0.34590  0.30960  Biso   1.000  H
  C114     1.0000 0.98900  0.32510  0.37680  Biso   1.000  C
  H59      1.0000 0.03410  0.35250  0.41430  Biso   1.000  H
  C115     1.0000 0.91510  0.28790  0.38230  Biso   1.000  C
  H60      1.0000 0.90810  0.29070  0.42320  Biso   1.000  H
  C116     1.0000 0.85200  0.24672  0.32671  Biso   1.000  C
  C117     1.0000 0.77930  0.19687  0.33144  Biso   1.000  C
  C118     1.0000 0.67140  0.10230  0.27673  Biso   1.000  C
  C119     1.0000 0.56710  0.10367  0.24341  Biso   1.000  C
  H61      1.0000 0.53240  0.14350  0.21970  Biso   1.000  H
  C120     1.0000 0.51460  0.04542  0.24548  Biso   1.000  C
  C121     1.0000 0.56660  0.98623  0.28100  Biso   1.000  C
  H62      1.0000 0.53110  0.94730  0.28250  Biso   1.000  H
  C122     1.0000 0.72300  0.04326  0.31233  Biso   1.000  C
  H63      1.0000 0.79330  0.04290  0.33520  Biso   1.000  H
  C123     1.0000 0.40090  0.04502  0.20725  Biso   1.000  C
  C124     1.0000 0.67090  0.98469  0.31416  Biso   1.000  C
  C125     1.0000 0.72950  0.92030  0.34977  Biso   1.000  C
  C126     1.0000 0.82100  0.02018  0.97650  Biso   1.000  C
  Zn10     1.0000 0.78771  0.56830  0.36787  Biso   1.000  Zn
  Zn11     1.0000 0.95700  0.62570  0.92457  Biso   1.000  Zn
  Zn12     1.0000 0.75019  0.71938  0.89652  Biso   1.000  Zn
  Co4      1.0000 0.24228  0.67996  0.30418  Biso   1.000  Co
  O46      1.0000 0.16030  0.48021  0.28756  Biso   1.000  O
  O47      1.0000 0.64620  0.49509  0.28768  Biso   1.000  O
  O48      1.0000 0.64427  0.59747  0.33128  Biso   1.000  O
  O49      1.0000 0.14170  0.50517  0.56418  Biso   1.000  O
  O50      1.0000 0.84360  0.57411  0.30180  Biso   1.000  O
  O51      1.0000 0.84510  0.66212  0.41950  Biso   1.000  O
  O52      1.0000 0.24900  0.48835  0.52188  Biso   1.000  O
  O53      1.0000 0.17880  0.42055  0.13137  Biso   1.000  O
  O54      1.0000 0.31830  0.37031  0.14344  Biso   1.000  O
  O55      1.0000 0.73060  0.64040  0.21756  Biso   1.000  O
  O56      1.0000 0.80800  0.68693  0.00253  Biso   1.000  O
  O57      1.0000 0.94330  0.62743  0.01531  Biso   1.000  O
  O58      1.0000 0.25640  0.79345  0.46574  Biso   1.000  O
  O59      1.0000 0.89042  0.76552  0.40198  Biso   1.000  O
  O60      1.0000 0.22640  0.69121  0.11265  Biso   1.000  O
  N19      1.0000 0.34270  0.61312  0.36414  Biso   1.000  N
  N20      1.0000 0.15560  0.59927  0.27668  Biso   1.000  N
  N21      1.0000 0.33460  0.75856  0.33746  Biso   1.000  N
  N22      1.0000 0.21430  0.70902  0.38059  Biso   1.000  N
  N23      1.0000 0.14290  0.74240  0.23440  Biso   1.000  N
  N24      1.0000 0.27210  0.66080  0.22723  Biso   1.000  N
  C127     1.0000 0.44080  0.62570  0.40793  Biso   1.000  C
  H64      1.0000 0.46220  0.67140  0.42040  Biso   1.000  H
  C128     1.0000 0.51070  0.57280  0.43500  Biso   1.000  C
  H65      1.0000 0.57850  0.58270  0.46510  Biso   1.000  H
  C129     1.0000 0.47910  0.50540  0.41710  Biso   1.000  C
  H66      1.0000 0.52570  0.46920  0.43310  Biso   1.000  H
  C130     1.0000 0.37750  0.49150  0.37510  Biso   1.000  C
  H67      1.0000 0.35440  0.44600  0.36440  Biso   1.000  H
  C131     1.0000 0.31100  0.54688  0.34932  Biso   1.000  C
  C132     1.0000 0.20000  0.53867  0.30107  Biso   1.000  C
  C133     1.0000 0.05000  0.60273  0.22957  Biso   1.000  C
  C134     1.0000 0.01440  0.61668  0.15825  Biso   1.000  C
  H68      1.0000 0.05930  0.61600  0.13980  Biso   1.000  H
  C135     1.0000 0.91370  0.63166  0.11375  Biso   1.000  C
  C136     1.0000 0.84610  0.63081  0.14113  Biso   1.000  C
  H69      1.0000 0.77890  0.64340  0.11260  Biso   1.000  H
  C137     1.0000 0.87970  0.61094  0.21164  Biso   1.000  C
  C138     1.0000 0.98130  0.59672  0.25516  Biso   1.000  C
  H70      1.0000 0.00350  0.58300  0.30200  Biso   1.000  H
  C139     1.0000 0.88450  0.65027  0.03709  Biso   1.000  C
  C140     1.0000 0.81040  0.60860  0.24463  Biso   1.000  C
  C141     1.0000 0.39830  0.77986  0.31350  Biso   1.000  C
  H71      1.0000 0.39780  0.75660  0.27520  Biso   1.000  H
  C142     1.0000 0.46340  0.83410  0.34300  Biso   1.000  C
  H72      1.0000 0.50730  0.84710  0.32580  Biso   1.000  H
  C143     1.0000 0.46270  0.86920  0.39880  Biso   1.000  C
  H73      1.0000 0.50710  0.90590  0.42050  Biso   1.000  H
  C144     1.0000 0.39540  0.84920  0.42230  Biso   1.000  C
  H74      1.0000 0.39240  0.87330  0.45890  Biso   1.000  H
  C145     1.0000 0.33330  0.79344  0.39120  Biso   1.000  C
  C146     1.0000 0.26260  0.76501  0.41531  Biso   1.000  C
  C147     1.0000 0.15340  0.67481  0.40670  Biso   1.000  C
  C148     1.0000 0.18840  0.61451  0.44624  Biso   1.000  C
  H75      1.0000 0.24890  0.59500  0.45290  Biso   1.000  H
  C149     1.0000 0.13450  0.58268  0.47629  Biso   1.000  C
  C150     1.0000 0.04320  0.61075  0.46494  Biso   1.000  C
  H76      1.0000 0.00640  0.58940  0.48430  Biso   1.000  H
  C151     1.0000 0.00660  0.67094  0.42448  Biso   1.000  C
  C152     1.0000 0.06150  0.70291  0.39582  Biso   1.000  C
  H77      1.0000 0.03710  0.74340  0.36920  Biso   1.000  H
  C153     1.0000 0.90870  0.70071  0.41460  Biso   1.000  C
  C154     1.0000 0.07210  0.78000  0.23990  Biso   1.000  C
  H78      1.0000 0.06830  0.77830  0.28210  Biso   1.000  H
  C155     1.0000 0.00470  0.82100  0.18540  Biso   1.000  C
  H79      1.0000 0.95540  0.84590  0.19040  Biso   1.000  H
  C156     1.0000 0.01100  0.82510  0.12320  Biso   1.000  C
  H80      1.0000 0.96590  0.85250  0.08570  Biso   1.000  H
  C157     1.0000 0.08490  0.78790  0.11770  Biso   1.000  C
  H81      1.0000 0.09190  0.79070  0.07680  Biso   1.000  H
  C158     1.0000 0.14800  0.74672  0.17329  Biso   1.000  C
  C159     1.0000 0.22070  0.69687  0.16856  Biso   1.000  C
  C160     1.0000 0.32860  0.60230  0.22327  Biso   1.000  C
  C161     1.0000 0.43290  0.60367  0.25659  Biso   1.000  C
  H82      1.0000 0.46760  0.64350  0.28030  Biso   1.000  H
  C162     1.0000 0.48540  0.54542  0.25452  Biso   1.000  C
  C163     1.0000 0.43340  0.48623  0.21900  Biso   1.000  C
  H83      1.0000 0.46890  0.44730  0.21750  Biso   1.000  H
  C164     1.0000 0.27700  0.54326  0.18767  Biso   1.000  C
  H84      1.0000 0.20670  0.54290  0.16480  Biso   1.000  H
  C165     1.0000 0.59910  0.54502  0.29275  Biso   1.000  C
  C166     1.0000 0.32910  0.48469  0.18584  Biso   1.000  C
  C167     1.0000 0.27050  0.42030  0.15023  Biso   1.000  C
  C168     1.0000 0.17900  0.52018  0.52350  Biso   1.000  C
