data_image0
_cell_length_a       9.7561
_cell_length_b       10.2852
_cell_length_c       11.0465
_cell_angle_alpha    95.127
_cell_angle_beta     95.109
_cell_angle_gamma    105.974

_symmetry_space_group_name_H-M    "P 1"
_symmetry_int_tables_number       1

loop_
  _symmetry_equiv_pos_as_xyz
  'x, y, z'

loop_
  _atom_site_label
  _atom_site_occupancy
  _atom_site_fract_x
  _atom_site_fract_y
  _atom_site_fract_z
  _atom_site_thermal_displace_type
  _atom_site_B_iso_or_equiv
  _atom_site_type_symbol
  U1       1.0000 0.33279  0.38788  0.36936  Biso   1.000  U
  U2       1.0000 0.13500  0.17206  0.82735  Biso   1.000  U
  P1       1.0000 0.05420  0.18340  0.14520  Biso   1.000  P
  P2       1.0000 0.63270  0.54130  0.29040  Biso   1.000  P
  O1       1.0000 0.03380  0.16470  0.00700  Biso   1.000  O
  O2       1.0000 0.20690  0.26560  0.19640  Biso   1.000  O
  O3       1.0000 0.01100  0.04910  0.20040  Biso   1.000  O
  O4       1.0000 0.11280  0.27350  0.43650  Biso   1.000  O
  O5       1.0000 0.89180  0.18860  0.47980  Biso   1.000  O
  O6       1.0000 0.69440  0.68680  0.27350  Biso   1.000  O
  O7       1.0000 0.48840  0.47150  0.21210  Biso   1.000  O
  O8       1.0000 0.60250  0.52140  0.42240  Biso   1.000  O
  O9       1.0000 0.64670  0.40600  0.93810  Biso   1.000  O
  H1       1.0000 0.65260  0.44650  0.87720  Biso   1.000  H
  O10      1.0000 0.73610  0.61000  0.04170  Biso   1.000  O
  C1       1.0000 0.94070  0.28640  0.19110  Biso   1.000  C
  C2       1.0000 0.87220  0.34140  0.09970  Biso   1.000  C
  H2       1.0000 0.88570  0.32340  0.01830  Biso   1.000  H
  C3       1.0000 0.78320  0.42370  0.13010  Biso   1.000  C
  C4       1.0000 0.75360  0.44590  0.25030  Biso   1.000  C
  C5       1.0000 0.82480  0.38520  0.34150  Biso   1.000  C
  H3       1.0000 0.80730  0.39790  0.42250  Biso   1.000  H
  C6       1.0000 0.91540  0.31120  0.31380  Biso   1.000  C
  C7       1.0000 0.98020  0.25700  0.41810  Biso   1.000  C
  C8       1.0000 0.72140  0.48680  0.03150  Biso   1.000  C
  U3       1.0000 0.66721  0.61212  0.63064  Biso   1.000  U
  U4       1.0000 0.86500  0.82794  0.17265  Biso   1.000  U
  P3       1.0000 0.94580  0.81660  0.85480  Biso   1.000  P
  P4       1.0000 0.36730  0.45870  0.70960  Biso   1.000  P
  O11      1.0000 0.96620  0.83530  0.99300  Biso   1.000  O
  O12      1.0000 0.79310  0.73440  0.80360  Biso   1.000  O
  O13      1.0000 0.98900  0.95090  0.79960  Biso   1.000  O
  O14      1.0000 0.88720  0.72650  0.56350  Biso   1.000  O
  O15      1.0000 0.10820  0.81140  0.52020  Biso   1.000  O
  O16      1.0000 0.30560  0.31320  0.72650  Biso   1.000  O
  O17      1.0000 0.51160  0.52850  0.78790  Biso   1.000  O
  O18      1.0000 0.39750  0.47860  0.57760  Biso   1.000  O
  O19      1.0000 0.35330  0.59400  0.06190  Biso   1.000  O
  H4       1.0000 0.34740  0.55350  0.12280  Biso   1.000  H
  O20      1.0000 0.26390  0.39000  0.95830  Biso   1.000  O
  C9       1.0000 0.05930  0.71360  0.80890  Biso   1.000  C
  C10      1.0000 0.12780  0.65860  0.90030  Biso   1.000  C
  H5       1.0000 0.11430  0.67660  0.98170  Biso   1.000  H
  C11      1.0000 0.21680  0.57630  0.86990  Biso   1.000  C
  C12      1.0000 0.24640  0.55410  0.74970  Biso   1.000  C
  C13      1.0000 0.17520  0.61480  0.65850  Biso   1.000  C
  H6       1.0000 0.19270  0.60210  0.57750  Biso   1.000  H
  C14      1.0000 0.08460  0.68880  0.68620  Biso   1.000  C
  C15      1.0000 0.01980  0.74300  0.58190  Biso   1.000  C
  C16      1.0000 0.27860  0.51320  0.96850  Biso   1.000  C
