data_image0
_cell_length_a       18.695
_cell_length_b       20.122
_cell_length_c       21.068
_cell_angle_alpha    111.924
_cell_angle_beta     92.824
_cell_angle_gamma    94.973

_symmetry_space_group_name_H-M    "P 1"
_symmetry_int_tables_number       1

loop_
  _symmetry_equiv_pos_as_xyz
  'x, y, z'

loop_
  _atom_site_label
  _atom_site_occupancy
  _atom_site_fract_x
  _atom_site_fract_y
  _atom_site_fract_z
  _atom_site_thermal_displace_type
  _atom_site_B_iso_or_equiv
  _atom_site_type_symbol
  Si1      1.0000 0.10190  0.63300  0.58340  Biso   1.000  Si
  C1       1.0000 0.01870  0.62740  0.62780  Biso   1.000  C
  C2       1.0000 0.94950  0.62230  0.60070  Biso   1.000  C
  H1       1.0000 0.94180  0.61530  0.55360  Biso   1.000  H
  C3       1.0000 0.89040  0.62680  0.63800  Biso   1.000  C
  H2       1.0000 0.84330  0.62310  0.61690  Biso   1.000  H
  C4       1.0000 0.90070  0.63660  0.70660  Biso   1.000  C
  C5       1.0000 0.96930  0.64220  0.73580  Biso   1.000  C
  H3       1.0000 0.97680  0.65050  0.78320  Biso   1.000  H
  C6       1.0000 0.02720  0.63590  0.69710  Biso   1.000  C
  H4       1.0000 0.07400  0.63730  0.71760  Biso   1.000  H
  C7       1.0000 0.84210  0.64760  0.74840  Biso   1.000  C
  N1       1.0000 0.62400  0.71460  0.91720  Biso   1.000  N
  C8       1.0000 0.67430  0.67460  0.92540  Biso   1.000  C
  H5       1.0000 0.67190  0.65900  0.96270  Biso   1.000  H
  C9       1.0000 0.73060  0.65380  0.88280  Biso   1.000  C
  H6       1.0000 0.76260  0.62210  0.88900  Biso   1.000  H
  C10      1.0000 0.73810  0.68070  0.83160  Biso   1.000  C
  C11      1.0000 0.68660  0.72200  0.82340  Biso   1.000  C
  H7       1.0000 0.68920  0.73960  0.78750  Biso   1.000  H
  C12      1.0000 0.63060  0.73910  0.86610  Biso   1.000  C
  H8       1.0000 0.59650  0.76860  0.85900  Biso   1.000  H
  C13      1.0000 0.79590  0.66140  0.78680  Biso   1.000  C
  C14      1.0000 0.08250  0.63940  0.49770  Biso   1.000  C
  C15      1.0000 0.10420  0.70270  0.48800  Biso   1.000  C
  H9       1.0000 0.12650  0.74370  0.52570  Biso   1.000  H
  C16      1.0000 0.09360  0.70650  0.42420  Biso   1.000  C
  H10      1.0000 0.10790  0.75040  0.41860  Biso   1.000  H
  C17      1.0000 0.06260  0.64780  0.36880  Biso   1.000  C
  C18      1.0000 0.04050  0.58470  0.37660  Biso   1.000  C
  H11      1.0000 0.01550  0.54510  0.33930  Biso   1.000  H
  C19      1.0000 0.05520  0.57970  0.43960  Biso   1.000  C
  H12      1.0000 0.04630  0.53410  0.44330  Biso   1.000  H
  C20      1.0000 0.05570  0.65250  0.30260  Biso   1.000  C
  N2       1.0000 0.02520  0.72170  0.08040  Biso   1.000  N
  C21      1.0000 0.96800  0.68760  0.09440  Biso   1.000  C
  H13      1.0000 0.92310  0.68000  0.06830  Biso   1.000  H
  C22      1.0000 0.97450  0.66250  0.14890  Biso   1.000  C
  H14      1.0000 0.93470  0.63610  0.15840  Biso   1.000  H
  C23      1.0000 0.03930  0.67690  0.18740  Biso   1.000  C
  C24      1.0000 0.09810  0.71080  0.17040  Biso   1.000  C
  H15      1.0000 0.14380  0.71920  0.19560  Biso   1.000  H
  C25      1.0000 0.08850  0.73290  0.11470  Biso   1.000  C
  H16      1.0000 0.12840  0.75610  0.10180  Biso   1.000  H
  C26      1.0000 0.04530  0.66100  0.25010  Biso   1.000  C
  C27      1.0000 0.15930  0.71780  0.64230  Biso   1.000  C
  C28      1.0000 0.23330  0.72150  0.65300  Biso   1.000  C
  H17      1.0000 0.25630  0.67950  0.63100  Biso   1.000  H
  C29      1.0000 0.27530  0.78490  0.69510  Biso   1.000  C
  H18      1.0000 0.32590  0.78610  0.70340  Biso   1.000  H
  C30      1.0000 0.24120  0.84540  0.72430  Biso   1.000  C
  C31      1.0000 0.16720  0.84420  0.71300  Biso   1.000  C
  H19      1.0000 0.14450  0.88660  0.73360  Biso   1.000  H
  C32      1.0000 0.12720  0.78030  0.67150  Biso   1.000  C
  H20      1.0000 0.07670  0.77940  0.66270  Biso   1.000  H
  C33      1.0000 0.28170  0.91220  0.76670  Biso   1.000  C
  N3       1.0000 0.41860  0.16800  0.94090  Biso   1.000  N
  C34      1.0000 0.34800  0.16070  0.92620  Biso   1.000  C
  H21      1.0000 0.32130  0.20040  0.94620  Biso   1.000  H
  C35      1.0000 0.31230  0.09330  0.88060  Biso   1.000  C
  H22      1.0000 0.26150  0.08700  0.87040  Biso   1.000  H
  C36      1.0000 0.35270  0.03730  0.85150  Biso   1.000  C
  C37      1.0000 0.42620  0.04720  0.86320  Biso   1.000  C
  H23      1.0000 0.45430  0.00930  0.84110  Biso   1.000  H
  C38      1.0000 0.45950  0.11570  0.90960  Biso   1.000  C
  H24      1.0000 0.51050  0.12430  0.91840  Biso   1.000  H
  C39      1.0000 0.31640  0.96730  0.80430  Biso   1.000  C
  C40      1.0000 0.14920  0.55050  0.56780  Biso   1.000  C
  C41      1.0000 0.13110  0.50070  0.59690  Biso   1.000  C
  H25      1.0000 0.09450  0.50840  0.62770  Biso   1.000  H
  C42      1.0000 0.16630  0.43960  0.58110  Biso   1.000  C
  H26      1.0000 0.15370  0.40640  0.60220  Biso   1.000  H
  C43      1.0000 0.21830  0.42510  0.53650  Biso   1.000  C
  C44      1.0000 0.23810  0.47480  0.50760  Biso   1.000  C
  H27      1.0000 0.27500  0.46700  0.47700  Biso   1.000  H
  C45      1.0000 0.20300  0.53590  0.52410  Biso   1.000  C
  H28      1.0000 0.21690  0.56980  0.50410  Biso   1.000  H
  C46      1.0000 0.25290  0.36150  0.52220  Biso   1.000  C
  N4       1.0000 0.40300  0.13240  0.47620  Biso   1.000  N
  C47      1.0000 0.43740  0.19880  0.50010  Biso   1.000  C
  H29      1.0000 0.48830  0.20580  0.50970  Biso   1.000  H
  C48      1.0000 0.39870  0.25910  0.51140  Biso   1.000  C
  H30      1.0000 0.42310  0.30650  0.53060  Biso   1.000  H
  C49      1.0000 0.32610  0.24840  0.49440  Biso   1.000  C
  C50      1.0000 0.29130  0.17900  0.46490  Biso   1.000  C
  H31      1.0000 0.24120  0.17000  0.45080  Biso   1.000  H
  C51      1.0000 0.33370  0.12230  0.45680  Biso   1.000  C
  H32      1.0000 0.31100  0.07420  0.43620  Biso   1.000  H
  C52      1.0000 0.28470  0.30970  0.50440  Biso   1.000  C
  Si2      1.0000 0.89930  0.86310  0.41510  Biso   1.000  Si
  C53      1.0000 0.91680  0.85960  0.50250  Biso   1.000  C
  C54      1.0000 0.92240  0.91950  0.56180  Biso   1.000  C
  H33      1.0000 0.91530  0.96410  0.55820  Biso   1.000  H
  C55      1.0000 0.93770  0.91960  0.62650  Biso   1.000  C
  H34      1.0000 0.94670  0.96380  0.66520  Biso   1.000  H
  C56      1.0000 0.93970  0.85480  0.63410  Biso   1.000  C
  C57      1.0000 0.93360  0.79380  0.57610  Biso   1.000  C
  H35      1.0000 0.93670  0.74870  0.58030  Biso   1.000  H
  C58      1.0000 0.92320  0.79550  0.51170  Biso   1.000  C
  H36      1.0000 0.92040  0.75180  0.47260  Biso   1.000  H
  C59      1.0000 0.95110  0.85070  0.70040  Biso   1.000  C
  N5       1.0000 0.99610  0.79630  0.92800  Biso   1.000  N
  C60      1.0000 0.92880  0.79650  0.90710  Biso   1.000  C
  H37      1.0000 0.89050  0.78510  0.93070  Biso   1.000  H
  C61      1.0000 0.91410  0.81400  0.84850  Biso   1.000  C
  H38      1.0000 0.86610  0.81320  0.83100  Biso   1.000  H
  C62      1.0000 0.97200  0.83210  0.81830  Biso   1.000  C
  C63      1.0000 0.04140  0.83630  0.84520  Biso   1.000  C
  H39      1.0000 0.08100  0.85240  0.82610  Biso   1.000  H
  C64      1.0000 0.05240  0.81600  0.90220  Biso   1.000  C
  H40      1.0000 0.09980  0.81670  0.92120  Biso   1.000  H
  C65      1.0000 0.95910  0.84550  0.75480  Biso   1.000  C
  C66      1.0000 0.84170  0.77760  0.35890  Biso   1.000  C
  C67      1.0000 0.76740  0.77400  0.34990  Biso   1.000  C
  H41      1.0000 0.74450  0.81610  0.37160  Biso   1.000  H
  C68      1.0000 0.72570  0.70990  0.30970  Biso   1.000  C
  H42      1.0000 0.67460  0.70720  0.30550  Biso   1.000  H
  C69      1.0000 0.76010  0.65050  0.27610  Biso   1.000  C
  C70      1.0000 0.83330  0.65210  0.28200  Biso   1.000  C
  H43      1.0000 0.85610  0.61070  0.25790  Biso   1.000  H
  C71      1.0000 0.87350  0.71600  0.32440  Biso   1.000  C
  H44      1.0000 0.92440  0.71760  0.32990  Biso   1.000  H
  C72      1.0000 0.71750  0.58660  0.22900  Biso   1.000  C
  N6       1.0000 0.53770  0.34960  0.07130  Biso   1.000  N
  C73      1.0000 0.60890  0.34720  0.06640  Biso   1.000  C
  H45      1.0000 0.62600  0.30550  0.03470  Biso   1.000  H
  C74      1.0000 0.65890  0.40700  0.10850  Biso   1.000  C
  H46      1.0000 0.70940  0.40400  0.10880  Biso   1.000  H
  C75      1.0000 0.63210  0.46920  0.14860  Biso   1.000  C
  C76      1.0000 0.55950  0.47110  0.15310  Biso   1.000  C
  H47      1.0000 0.54100  0.51300  0.18300  Biso   1.000  H
  C77      1.0000 0.51270  0.40900  0.11200  Biso   1.000  C
  H48      1.0000 0.46210  0.41000  0.11370  Biso   1.000  H
  C78      1.0000 0.67980  0.53260  0.19380  Biso   1.000  C
  C79      1.0000 0.85280  0.94490  0.42550  Biso   1.000  C
  C80      1.0000 0.88240  0.99880  0.40410  Biso   1.000  C
  H49      1.0000 0.92610  0.99340  0.38250  Biso   1.000  H
  C81      1.0000 0.84830  0.05950  0.41420  Biso   1.000  C
  H50      1.0000 0.86800  0.09490  0.39830  Biso   1.000  H
  C82      1.0000 0.78650  0.06910  0.44700  Biso   1.000  C
  C83      1.0000 0.75650  0.01690  0.46900  Biso   1.000  C
  H51      1.0000 0.71260  0.02230  0.49020  Biso   1.000  H
  C84      1.0000 0.79190  0.95720  0.45940  Biso   1.000  C
  H52      1.0000 0.77310  0.92300  0.47720  Biso   1.000  H
  C85      1.0000 0.74900  0.13140  0.45870  Biso   1.000  C
  N7       1.0000 0.59710  0.35750  0.49140  Biso   1.000  N
  C86      1.0000 0.57440  0.29170  0.44540  Biso   1.000  C
  H53      1.0000 0.53100  0.28510  0.41730  Biso   1.000  H
  C87      1.0000 0.61190  0.23180  0.43670  Biso   1.000  C
  H54      1.0000 0.59490  0.18570  0.40270  Biso   1.000  H
  C88      1.0000 0.67420  0.24150  0.47890  Biso   1.000  C
  C89      1.0000 0.69620  0.30840  0.52890  Biso   1.000  C
  H55      1.0000 0.73800  0.31610  0.55930  Biso   1.000  H
  C90      1.0000 0.65490  0.36490  0.53380  Biso   1.000  C
  H56      1.0000 0.66910  0.41080  0.56910  Biso   1.000  H
  C91      1.0000 0.71430  0.18050  0.47060  Biso   1.000  C
  C92      1.0000 0.98520  0.86650  0.37440  Biso   1.000  C
  C93      1.0000 0.98110  0.86120  0.30580  Biso   1.000  C
  H57      1.0000 0.93540  0.85110  0.28030  Biso   1.000  H
  C94      1.0000 0.04190  0.87060  0.27520  Biso   1.000  C
  H58      1.0000 0.03820  0.86760  0.22910  Biso   1.000  H
  C95      1.0000 0.10830  0.88430  0.31110  Biso   1.000  C
  C96      1.0000 0.11410  0.88760  0.37790  Biso   1.000  C
  H59      1.0000 0.16010  0.89510  0.40230  Biso   1.000  H
  C97      1.0000 0.05300  0.87990  0.40820  Biso   1.000  C
  H60      1.0000 0.05740  0.88410  0.45460  Biso   1.000  H
  C98      1.0000 0.17180  0.89830  0.28210  Biso   1.000  C
  N8       1.0000 0.41210  0.97480  0.18470  Biso   1.000  N
  C99      1.0000 0.41190  0.99140  0.25210  Biso   1.000  C
  H61      1.0000 0.45250  0.01850  0.28250  Biso   1.000  H
  C100     1.0000 0.35010  0.96800  0.27740  Biso   1.000  C
  H62      1.0000 0.34980  0.97670  0.32490  Biso   1.000  H
  C101     1.0000 0.29100  0.93300  0.23340  Biso   1.000  C
  C102     1.0000 0.29110  0.91930  0.16440  Biso   1.000  C
  H63      1.0000 0.24900  0.89810  0.13390  Biso   1.000  H
  C103     1.0000 0.35650  0.93800  0.14040  Biso   1.000  C
  H64      1.0000 0.36040  0.92400  0.09250  Biso   1.000  H
  C104     1.0000 0.22470  0.91220  0.25930  Biso   1.000  C
  Cu1      1.0000 0.46422  0.04946  0.49109  Biso   1.000  Cu
  Cu2      1.0000 0.46973  0.26075  0.01415  Biso   1.000  Cu
  Cu3      1.0000 0.53728  0.44702  0.49721  Biso   1.000  Cu
  Cu4      1.0000 0.00640  0.76081  0.00691  Biso   1.000  Cu
  C105     1.0000 0.59570  0.09700  0.57380  Biso   1.000  C
  C106     1.0000 0.65680  0.15420  0.62180  Biso   1.000  C
  H65      1.0000 0.65080  0.16080  0.66970  Biso   1.000  H
  H66      1.0000 0.65410  0.20010  0.61620  Biso   1.000  H
  H67      1.0000 0.70380  0.13740  0.60970  Biso   1.000  H
  O1       1.0000 0.54300  0.11600  0.55090  Biso   1.000  O
  O2       1.0000 0.60600  0.03400  0.56820  Biso   1.000  O
  C107     1.0000 0.56870  0.99540  0.39970  Biso   1.000  C
  C108     1.0000 0.61060  0.98810  0.33500  Biso   1.000  C
  H68      1.0000 0.64520  0.95280  0.32910  Biso   1.000  H
  H69      1.0000 0.63650  0.03500  0.34140  Biso   1.000  H
  H70      1.0000 0.57640  0.97210  0.29400  Biso   1.000  H
  O3       1.0000 0.52040  0.03500  0.40940  Biso   1.000  O
  O4       1.0000 0.58390  0.95100  0.42430  Biso   1.000  O
  C109     1.0000 0.59120  0.58700  0.58660  Biso   1.000  C
  C110     1.0000 0.65030  0.64040  0.64180  Biso   1.000  C
  H71      1.0000 0.62890  0.66310  0.68520  Biso   1.000  H
  H72      1.0000 0.66960  0.67760  0.62570  Biso   1.000  H
  H73      1.0000 0.68940  0.61370  0.64890  Biso   1.000  H
  O5       1.0000 0.60320  0.52300  0.56660  Biso   1.000  O
  O6       1.0000 0.53930  0.61400  0.57170  Biso   1.000  O
  C111     1.0000 0.43120  0.48130  0.59190  Biso   1.000  C
  C112     1.0000 0.39120  0.47080  0.65160  Biso   1.000  C
  H74      1.0000 0.35510  0.50490  0.66540  Biso   1.000  H
  H75      1.0000 0.42610  0.47950  0.69090  Biso   1.000  H
  H76      1.0000 0.36720  0.42140  0.63580  Biso   1.000  H
  O7       1.0000 0.47820  0.44050  0.57140  Biso   1.000  O
  O8       1.0000 0.41520  0.53240  0.57770  Biso   1.000  O
  Si3      1.0000 0.89810  0.36700  0.41660  Biso   1.000  Si
  C113     1.0000 0.98130  0.37260  0.37220  Biso   1.000  C
  C114     1.0000 0.05050  0.37770  0.39930  Biso   1.000  C
  H77      1.0000 0.05820  0.38470  0.44640  Biso   1.000  H
  C115     1.0000 0.10960  0.37320  0.36200  Biso   1.000  C
  H78      1.0000 0.15670  0.37690  0.38310  Biso   1.000  H
  C116     1.0000 0.09930  0.36340  0.29340  Biso   1.000  C
  C117     1.0000 0.03070  0.35780  0.26420  Biso   1.000  C
  H79      1.0000 0.02320  0.34950  0.21680  Biso   1.000  H
  C118     1.0000 0.97280  0.36410  0.30290  Biso   1.000  C
  H80      1.0000 0.92600  0.36270  0.28240  Biso   1.000  H
  C119     1.0000 0.15790  0.35240  0.25160  Biso   1.000  C
  N9       1.0000 0.37600  0.28540  0.08280  Biso   1.000  N
  C120     1.0000 0.32570  0.32540  0.07460  Biso   1.000  C
  H81      1.0000 0.32810  0.34100  0.03730  Biso   1.000  H
  C121     1.0000 0.26940  0.34620  0.11720  Biso   1.000  C
  H82      1.0000 0.23740  0.37790  0.11100  Biso   1.000  H
  C122     1.0000 0.26190  0.31930  0.16840  Biso   1.000  C
  C123     1.0000 0.31340  0.27800  0.17660  Biso   1.000  C
  H83      1.0000 0.31080  0.26040  0.21250  Biso   1.000  H
  C124     1.0000 0.36940  0.26090  0.13390  Biso   1.000  C
  H84      1.0000 0.40350  0.23140  0.14100  Biso   1.000  H
  C125     1.0000 0.20410  0.33860  0.21320  Biso   1.000  C
  C126     1.0000 0.91750  0.36060  0.50230  Biso   1.000  C
  C127     1.0000 0.89580  0.29730  0.51200  Biso   1.000  C
  H85      1.0000 0.87350  0.25630  0.47430  Biso   1.000  H
  C128     1.0000 0.90640  0.29350  0.57580  Biso   1.000  C
  H86      1.0000 0.89210  0.24960  0.58140  Biso   1.000  H
  C129     1.0000 0.93740  0.35220  0.63120  Biso   1.000  C
  C130     1.0000 0.95950  0.41530  0.62340  Biso   1.000  C
  H87      1.0000 0.98450  0.45490  0.66070  Biso   1.000  H
  C131     1.0000 0.94480  0.42030  0.56040  Biso   1.000  C
  H88      1.0000 0.95370  0.46590  0.55670  Biso   1.000  H
  C132     1.0000 0.94430  0.34750  0.69740  Biso   1.000  C
  N10      1.0000 0.97480  0.27830  0.91960  Biso   1.000  N
  C133     1.0000 0.03200  0.31240  0.90560  Biso   1.000  C
  H89      1.0000 0.07690  0.32000  0.93170  Biso   1.000  H
  C134     1.0000 0.02550  0.33750  0.85110  Biso   1.000  C
  H90      1.0000 0.06530  0.36390  0.84160  Biso   1.000  H
  C135     1.0000 0.96070  0.32310  0.81260  Biso   1.000  C
  C136     1.0000 0.90190  0.28920  0.82960  Biso   1.000  C
  H91      1.0000 0.85620  0.28080  0.80440  Biso   1.000  H
  C137     1.0000 0.91150  0.26710  0.88530  Biso   1.000  C
  H92      1.0000 0.87160  0.24390  0.89820  Biso   1.000  H
  C138     1.0000 0.95470  0.33900  0.74990  Biso   1.000  C
  C139     1.0000 0.84070  0.28220  0.35770  Biso   1.000  C
  C140     1.0000 0.76670  0.27850  0.34700  Biso   1.000  C
  H93      1.0000 0.74370  0.32050  0.36900  Biso   1.000  H
  C141     1.0000 0.72470  0.21510  0.30490  Biso   1.000  C
  H94      1.0000 0.67410  0.21390  0.29660  Biso   1.000  H
  C142     1.0000 0.75880  0.15460  0.27570  Biso   1.000  C
  C143     1.0000 0.83280  0.15580  0.28700  Biso   1.000  C
  H95      1.0000 0.85550  0.11340  0.26640  Biso   1.000  H
  C144     1.0000 0.87280  0.21970  0.32850  Biso   1.000  C
  H96      1.0000 0.92330  0.22060  0.33730  Biso   1.000  H
  C145     1.0000 0.71830  0.08780  0.23330  Biso   1.000  C
  N11      1.0000 0.58140  0.83200  0.05910  Biso   1.000  N
  C146     1.0000 0.65200  0.83930  0.07380  Biso   1.000  C
  H97      1.0000 0.67870  0.79960  0.05380  Biso   1.000  H
  C147     1.0000 0.68770  0.90670  0.11940  Biso   1.000  C
  H98      1.0000 0.73850  0.91300  0.12960  Biso   1.000  H
  C148     1.0000 0.64730  0.96270  0.14850  Biso   1.000  C
  C149     1.0000 0.57380  0.95280  0.13680  Biso   1.000  C
  H99      1.0000 0.54570  0.99070  0.15890  Biso   1.000  H
  C150     1.0000 0.54050  0.88430  0.09040  Biso   1.000  C
  H100     1.0000 0.48950  0.87570  0.08160  Biso   1.000  H
  C151     1.0000 0.68360  0.03270  0.19570  Biso   1.000  C
  C152     1.0000 0.85080  0.44950  0.43220  Biso   1.000  C
  C153     1.0000 0.86890  0.49930  0.40310  Biso   1.000  C
  H101     1.0000 0.90550  0.49160  0.37230  Biso   1.000  H
  C154     1.0000 0.83370  0.56040  0.41890  Biso   1.000  C
  H102     1.0000 0.84630  0.59360  0.39780  Biso   1.000  H
  C155     1.0000 0.78170  0.57490  0.46350  Biso   1.000  C
  C156     1.0000 0.76190  0.52520  0.49240  Biso   1.000  C
  H103     1.0000 0.72500  0.53300  0.52300  Biso   1.000  H
  C157     1.0000 0.79700  0.46410  0.47590  Biso   1.000  C
  H104     1.0000 0.78310  0.43020  0.49590  Biso   1.000  H
  C158     1.0000 0.74710  0.63850  0.47780  Biso   1.000  C
  N12      1.0000 0.59700  0.86760  0.52380  Biso   1.000  N
  C159     1.0000 0.56260  0.80120  0.49990  Biso   1.000  C
  H105     1.0000 0.51170  0.79420  0.49030  Biso   1.000  H
  C160     1.0000 0.60130  0.74090  0.48860  Biso   1.000  C
  H106     1.0000 0.57690  0.69350  0.46940  Biso   1.000  H
  C161     1.0000 0.67390  0.75160  0.50560  Biso   1.000  C
  C162     1.0000 0.70870  0.82100  0.53510  Biso   1.000  C
  H107     1.0000 0.75880  0.83000  0.54920  Biso   1.000  H
  C163     1.0000 0.66630  0.87770  0.54320  Biso   1.000  C
  H108     1.0000 0.68900  0.92580  0.56380  Biso   1.000  H
  C164     1.0000 0.71530  0.69030  0.49560  Biso   1.000  C
  Si4      1.0000 0.10070  0.13690  0.58490  Biso   1.000  Si
  C165     1.0000 0.08320  0.14040  0.49750  Biso   1.000  C
  C166     1.0000 0.07760  0.08050  0.43820  Biso   1.000  C
  H109     1.0000 0.08470  0.03590  0.44180  Biso   1.000  H
  C167     1.0000 0.06230  0.08040  0.37350  Biso   1.000  C
  H110     1.0000 0.05330  0.03620  0.33480  Biso   1.000  H
  C168     1.0000 0.06030  0.14520  0.36590  Biso   1.000  C
  C169     1.0000 0.06640  0.20620  0.42390  Biso   1.000  C
  H111     1.0000 0.06330  0.25130  0.41970  Biso   1.000  H
  C170     1.0000 0.07680  0.20450  0.48830  Biso   1.000  C
  H112     1.0000 0.07960  0.24820  0.52740  Biso   1.000  H
  C171     1.0000 0.04890  0.14930  0.29960  Biso   1.000  C
  N13      1.0000 0.00390  0.20370  0.07200  Biso   1.000  N
  C172     1.0000 0.07120  0.20350  0.09290  Biso   1.000  C
  H113     1.0000 0.10950  0.21490  0.06930  Biso   1.000  H
  C173     1.0000 0.08590  0.18600  0.15150  Biso   1.000  C
  H114     1.0000 0.13390  0.18680  0.16900  Biso   1.000  H
  C174     1.0000 0.02800  0.16790  0.18170  Biso   1.000  C
  C175     1.0000 0.95860  0.16370  0.15480  Biso   1.000  C
  H115     1.0000 0.91900  0.14760  0.17390  Biso   1.000  H
  C176     1.0000 0.94760  0.18400  0.09780  Biso   1.000  C
  H116     1.0000 0.90020  0.18330  0.07880  Biso   1.000  H
  C177     1.0000 0.04090  0.15450  0.24520  Biso   1.000  C
  C178     1.0000 0.15830  0.22240  0.64110  Biso   1.000  C
  C179     1.0000 0.23260  0.22600  0.65010  Biso   1.000  C
  H117     1.0000 0.25550  0.18390  0.62840  Biso   1.000  H
  C180     1.0000 0.27430  0.29010  0.69030  Biso   1.000  C
  H118     1.0000 0.32540  0.29280  0.69450  Biso   1.000  H
  C181     1.0000 0.23990  0.34950  0.72390  Biso   1.000  C
  C182     1.0000 0.16670  0.34790  0.71800  Biso   1.000  C
  H119     1.0000 0.14390  0.38930  0.74210  Biso   1.000  H
  C183     1.0000 0.12650  0.28400  0.67560  Biso   1.000  C
  H120     1.0000 0.07560  0.28240  0.67010  Biso   1.000  H
  C184     1.0000 0.28250  0.41340  0.77100  Biso   1.000  C
  N14      1.0000 0.46230  0.65040  0.92870  Biso   1.000  N
  C185     1.0000 0.39110  0.65280  0.93360  Biso   1.000  C
  H121     1.0000 0.37400  0.69450  0.96530  Biso   1.000  H
  C186     1.0000 0.34110  0.59300  0.89150  Biso   1.000  C
  H122     1.0000 0.29060  0.59600  0.89120  Biso   1.000  H
  C187     1.0000 0.36790  0.53080  0.85140  Biso   1.000  C
  C188     1.0000 0.44050  0.52890  0.84690  Biso   1.000  C
  H123     1.0000 0.45900  0.48700  0.81700  Biso   1.000  H
  C189     1.0000 0.48730  0.59100  0.88800  Biso   1.000  C
  H124     1.0000 0.53790  0.59000  0.88630  Biso   1.000  H
  C190     1.0000 0.32020  0.46740  0.80620  Biso   1.000  C
  C191     1.0000 0.14720  0.05510  0.57450  Biso   1.000  C
  C192     1.0000 0.11760  0.00120  0.59590  Biso   1.000  C
  H125     1.0000 0.07390  0.00660  0.61750  Biso   1.000  H
  C193     1.0000 0.15170  0.94050  0.58580  Biso   1.000  C
  H126     1.0000 0.13200  0.90510  0.60170  Biso   1.000  H
  C194     1.0000 0.21350  0.93090  0.55300  Biso   1.000  C
  C195     1.0000 0.24350  0.98310  0.53100  Biso   1.000  C
  H127     1.0000 0.28740  0.97770  0.50980  Biso   1.000  H
  C196     1.0000 0.20810  0.04280  0.54060  Biso   1.000  C
  H128     1.0000 0.22690  0.07700  0.52280  Biso   1.000  H
  C197     1.0000 0.25100  0.86860  0.54130  Biso   1.000  C
  N15      1.0000 0.40290  0.64250  0.50860  Biso   1.000  N
  C198     1.0000 0.42560  0.70830  0.55460  Biso   1.000  C
  H129     1.0000 0.46900  0.71490  0.58270  Biso   1.000  H
  C199     1.0000 0.38810  0.76820  0.56330  Biso   1.000  C
  H130     1.0000 0.40510  0.81430  0.59730  Biso   1.000  H
  C200     1.0000 0.32580  0.75850  0.52110  Biso   1.000  C
  C201     1.0000 0.30380  0.69160  0.47110  Biso   1.000  C
  H131     1.0000 0.26200  0.68390  0.44070  Biso   1.000  H
  C202     1.0000 0.34510  0.63510  0.46620  Biso   1.000  C
  H132     1.0000 0.33090  0.58920  0.43090  Biso   1.000  H
  C203     1.0000 0.28570  0.81950  0.52940  Biso   1.000  C
  C204     1.0000 0.01480  0.13350  0.62560  Biso   1.000  C
  C205     1.0000 0.01890  0.13880  0.69420  Biso   1.000  C
  H133     1.0000 0.06460  0.14890  0.71970  Biso   1.000  H
  C206     1.0000 0.95810  0.12940  0.72480  Biso   1.000  C
  H134     1.0000 0.96180  0.13240  0.77090  Biso   1.000  H
  C207     1.0000 0.89170  0.11570  0.68890  Biso   1.000  C
  C208     1.0000 0.88590  0.11240  0.62210  Biso   1.000  C
  H135     1.0000 0.83990  0.10490  0.59770  Biso   1.000  H
  C209     1.0000 0.94700  0.12010  0.59180  Biso   1.000  C
  H136     1.0000 0.94260  0.11590  0.54540  Biso   1.000  H
  C210     1.0000 0.82820  0.10170  0.71790  Biso   1.000  C
  N16      1.0000 0.58790  0.02520  0.81530  Biso   1.000  N
  C211     1.0000 0.58810  0.00860  0.74790  Biso   1.000  C
  H137     1.0000 0.54750  0.98150  0.71750  Biso   1.000  H
  C212     1.0000 0.64990  0.03200  0.72260  Biso   1.000  C
  H138     1.0000 0.65020  0.02330  0.67510  Biso   1.000  H
  C213     1.0000 0.70900  0.06700  0.76660  Biso   1.000  C
  C214     1.0000 0.70890  0.08070  0.83560  Biso   1.000  C
  H139     1.0000 0.75100  0.10190  0.86610  Biso   1.000  H
  C215     1.0000 0.64350  0.06200  0.85960  Biso   1.000  C
  H140     1.0000 0.63960  0.07600  0.90750  Biso   1.000  H
  C216     1.0000 0.77530  0.08780  0.74070  Biso   1.000  C
  Cu5      1.0000 0.53578  0.95054  0.50891  Biso   1.000  Cu
  Cu6      1.0000 0.53027  0.73925  0.98585  Biso   1.000  Cu
  Cu7      1.0000 0.46272  0.55298  0.50279  Biso   1.000  Cu
  Cu8      1.0000 0.99360  0.23919  0.99309  Biso   1.000  Cu
  C217     1.0000 0.40430  0.90300  0.42620  Biso   1.000  C
  C218     1.0000 0.34320  0.84580  0.37820  Biso   1.000  C
  H141     1.0000 0.34920  0.83920  0.33030  Biso   1.000  H
  H142     1.0000 0.34590  0.79990  0.38380  Biso   1.000  H
  H143     1.0000 0.29620  0.86260  0.39030  Biso   1.000  H
  O9       1.0000 0.45700  0.88400  0.44910  Biso   1.000  O
  O10      1.0000 0.39400  0.96600  0.43180  Biso   1.000  O
  C219     1.0000 0.43130  0.00460  0.60030  Biso   1.000  C
  C220     1.0000 0.38940  0.01190  0.66500  Biso   1.000  C
  H144     1.0000 0.35480  0.04720  0.67090  Biso   1.000  H
  H145     1.0000 0.36350  0.96500  0.65860  Biso   1.000  H
  H146     1.0000 0.42360  0.02790  0.70600  Biso   1.000  H
  O11      1.0000 0.47960  0.96500  0.59060  Biso   1.000  O
  O12      1.0000 0.41610  0.04900  0.57570  Biso   1.000  O
  C221     1.0000 0.40880  0.41300  0.41340  Biso   1.000  C
  C222     1.0000 0.34970  0.35960  0.35820  Biso   1.000  C
  H147     1.0000 0.37110  0.33690  0.31480  Biso   1.000  H
  H148     1.0000 0.33040  0.32240  0.37430  Biso   1.000  H
  H149     1.0000 0.31060  0.38630  0.35110  Biso   1.000  H
  O13      1.0000 0.39680  0.47700  0.43340  Biso   1.000  O
  O14      1.0000 0.46070  0.38600  0.42830  Biso   1.000  O
  C223     1.0000 0.56880  0.51870  0.40810  Biso   1.000  C
  C224     1.0000 0.60880  0.52920  0.34840  Biso   1.000  C
  H150     1.0000 0.64490  0.49510  0.33460  Biso   1.000  H
  H151     1.0000 0.57390  0.52050  0.30910  Biso   1.000  H
  H152     1.0000 0.63280  0.57860  0.36420  Biso   1.000  H
  O15      1.0000 0.52180  0.55950  0.42860  Biso   1.000  O
  O16      1.0000 0.58480  0.46760  0.42230  Biso   1.000  O
