data_image0
_cell_length_a       14.0306
_cell_length_b       14.0306
_cell_length_c       28.178
_cell_angle_alpha    90
_cell_angle_beta     90
_cell_angle_gamma    120

_symmetry_space_group_name_H-M    "P 1"
_symmetry_int_tables_number       1

loop_
  _symmetry_equiv_pos_as_xyz
  'x, y, z'

loop_
  _atom_site_label
  _atom_site_occupancy
  _atom_site_fract_x
  _atom_site_fract_y
  _atom_site_fract_z
  _atom_site_thermal_displace_type
  _atom_site_B_iso_or_equiv
  _atom_site_type_symbol
  C1       1.0000 0.21970  0.01210  0.06480  Biso   1.000  C
  Cd1      1.0000 0.42990  0.09083  0.02472  Biso   1.000  Cd
  O1       1.0000 0.23770  0.07220  0.02993  Biso   1.000  O
  C2       1.0000 0.11130  0.95940  0.08990  Biso   1.000  C
  O2       1.0000 0.29090  0.98840  0.07970  Biso   1.000  O
  C3       1.0000 0.08760  0.88510  0.12610  Biso   1.000  C
  H1       1.0000 0.13900  0.86520  0.13510  Biso   1.000  H
  O3       1.0000 0.72030  0.60250  0.27840  Biso   1.000  O
  C4       1.0000 0.98740  0.84000  0.14900  Biso   1.000  C
  H2       1.0000 0.97280  0.79090  0.17390  Biso   1.000  H
  O4       1.0000 0.60040  0.65190  0.30220  Biso   1.000  O
  C5       1.0000 0.90480  0.86730  0.13530  Biso   1.000  C
  O5       1.0000 0.51060  0.00160  0.06090  Biso   1.000  O
  C6       1.0000 0.92930  0.94090  0.09850  Biso   1.000  C
  O6       1.0000 0.61860  0.11340  0.00670  Biso   1.000  O
  C7       1.0000 0.03360  0.98560  0.07610  Biso   1.000  C
  H3       1.0000 0.04980  0.03450  0.05100  Biso   1.000  H
  C8       1.0000 0.80040  0.81950  0.16160  Biso   1.000  C
  C9       1.0000 0.77670  0.75370  0.19990  Biso   1.000  C
  H4       1.0000 0.82730  0.73240  0.20860  Biso   1.000  H
  C10      1.0000 0.68410  0.71610  0.22690  Biso   1.000  C
  C11      1.0000 0.66710  0.65220  0.27250  Biso   1.000  C
  C12      1.0000 0.60470  0.74750  0.21210  Biso   1.000  C
  H5       1.0000 0.54150  0.72630  0.23000  Biso   1.000  H
  C13      1.0000 0.62270  0.80840  0.17180  Biso   1.000  C
  H6       1.0000 0.56920  0.82400  0.16120  Biso   1.000  H
  C14      1.0000 0.72020  0.84730  0.14620  Biso   1.000  C
  C15      1.0000 0.74500  0.92110  0.10540  Biso   1.000  C
  C16      1.0000 0.66390  0.94850  0.08800  Biso   1.000  C
  H7       1.0000 0.59540  0.91760  0.10270  Biso   1.000  H
  C17      1.0000 0.68550  0.01570  0.05210  Biso   1.000  C
  C18      1.0000 0.59960  0.04760  0.03830  Biso   1.000  C
  C19      1.0000 0.78400  0.05860  0.02910  Biso   1.000  C
  H8       1.0000 0.79720  0.10400  0.00290  Biso   1.000  H
  C20      1.0000 0.86270  0.03660  0.04340  Biso   1.000  C
  H9       1.0000 0.93040  0.07020  0.02800  Biso   1.000  H
  C21      1.0000 0.84470  0.96500  0.08060  Biso   1.000  C
  C22      1.0000 0.98790  0.20760  0.73147  Biso   1.000  C
  Cd2      1.0000 0.90917  0.33907  0.69138  Biso   1.000  Cd
  O7       1.0000 0.92780  0.16550  0.69660  Biso   1.000  O
  C23      1.0000 0.04060  0.15190  0.75657  Biso   1.000  C
  O8       1.0000 0.01160  0.30250  0.74637  Biso   1.000  O
  C24      1.0000 0.11490  0.20250  0.79277  Biso   1.000  C
  H10      1.0000 0.13480  0.27380  0.80177  Biso   1.000  H
  O9       1.0000 0.39750  0.11780  0.94507  Biso   1.000  O
  C25      1.0000 0.16000  0.14740  0.81567  Biso   1.000  C
  H11      1.0000 0.20910  0.18190  0.84057  Biso   1.000  H
  O10      1.0000 0.34810  0.94850  0.96887  Biso   1.000  O
  C26      1.0000 0.13270  0.03750  0.80197  Biso   1.000  C
  O11      1.0000 0.99840  0.50900  0.72757  Biso   1.000  O
  C27      1.0000 0.05910  0.98840  0.76517  Biso   1.000  C
  O12      1.0000 0.88660  0.50520  0.67337  Biso   1.000  O
  C28      1.0000 0.01440  0.04800  0.74277  Biso   1.000  C
  H12      1.0000 0.96550  0.01530  0.71767  Biso   1.000  H
  C29      1.0000 0.18050  0.98090  0.82827  Biso   1.000  C
  C30      1.0000 0.24630  0.02300  0.86657  Biso   1.000  C
  H13      1.0000 0.26760  0.09490  0.87527  Biso   1.000  H
  C31      1.0000 0.28390  0.96800  0.89357  Biso   1.000  C
  C32      1.0000 0.34780  0.01490  0.93917  Biso   1.000  C
  C33      1.0000 0.25250  0.85720  0.87877  Biso   1.000  C
  H14      1.0000 0.27370  0.81520  0.89667  Biso   1.000  H
  C34      1.0000 0.19160  0.81430  0.83847  Biso   1.000  C
  H15      1.0000 0.17600  0.74520  0.82787  Biso   1.000  H
  C35      1.0000 0.15270  0.87290  0.81287  Biso   1.000  C
  C36      1.0000 0.07890  0.82390  0.77207  Biso   1.000  C
  C37      1.0000 0.05150  0.71540  0.75467  Biso   1.000  C
  H16      1.0000 0.08240  0.67780  0.76937  Biso   1.000  H
  C38      1.0000 0.98430  0.66980  0.71877  Biso   1.000  C
  C39      1.0000 0.95240  0.55200  0.70497  Biso   1.000  C
  C40      1.0000 0.94140  0.72540  0.69577  Biso   1.000  C
  H17      1.0000 0.89600  0.69320  0.66957  Biso   1.000  H
  C41      1.0000 0.96340  0.82610  0.71007  Biso   1.000  C
  H18      1.0000 0.92980  0.86020  0.69467  Biso   1.000  H
  C42      1.0000 0.03500  0.87970  0.74727  Biso   1.000  C
  C43      1.0000 0.79240  0.78030  0.39813  Biso   1.000  C
  Cd3      1.0000 0.66093  0.57010  0.35805  Biso   1.000  Cd
  O13      1.0000 0.83450  0.76230  0.36326  Biso   1.000  O
  C44      1.0000 0.84810  0.88870  0.42323  Biso   1.000  C
  O14      1.0000 0.69750  0.70910  0.41303  Biso   1.000  O
  C45      1.0000 0.79750  0.91240  0.45943  Biso   1.000  C
  H19      1.0000 0.72620  0.86100  0.46843  Biso   1.000  H
  O15      1.0000 0.88220  0.27970  0.61173  Biso   1.000  O
  C46      1.0000 0.85260  0.01260  0.48233  Biso   1.000  C
  H20      1.0000 0.81810  0.02720  0.50723  Biso   1.000  H
  O16      1.0000 0.05150  0.39960  0.63553  Biso   1.000  O
  C47      1.0000 0.96250  0.09520  0.46863  Biso   1.000  C
  O17      1.0000 0.49100  0.48940  0.39423  Biso   1.000  O
  C48      1.0000 0.01160  0.07070  0.43183  Biso   1.000  C
  O18      1.0000 0.49480  0.38140  0.34003  Biso   1.000  O
  C49      1.0000 0.95200  0.96640  0.40943  Biso   1.000  C
  H21      1.0000 0.98470  0.95020  0.38433  Biso   1.000  H
  C50      1.0000 0.01910  0.19960  0.49493  Biso   1.000  C
  C51      1.0000 0.97700  0.22330  0.53323  Biso   1.000  C
  H22      1.0000 0.90510  0.17270  0.54193  Biso   1.000  H
  C52      1.0000 0.03200  0.31590  0.56023  Biso   1.000  C
  C53      1.0000 0.98510  0.33290  0.60583  Biso   1.000  C
  C54      1.0000 0.14280  0.39530  0.54543  Biso   1.000  C
  H23      1.0000 0.18480  0.45850  0.56333  Biso   1.000  H
  C55      1.0000 0.18570  0.37730  0.50513  Biso   1.000  C
  H24      1.0000 0.25480  0.43080  0.49453  Biso   1.000  H
  C56      1.0000 0.12710  0.27980  0.47953  Biso   1.000  C
  C57      1.0000 0.17610  0.25500  0.43873  Biso   1.000  C
  C58      1.0000 0.28460  0.33610  0.42133  Biso   1.000  C
  H25      1.0000 0.32220  0.40460  0.43603  Biso   1.000  H
  C59      1.0000 0.33020  0.31450  0.38543  Biso   1.000  C
  C60      1.0000 0.44800  0.40040  0.37163  Biso   1.000  C
  C61      1.0000 0.27460  0.21600  0.36243  Biso   1.000  C
  H26      1.0000 0.30680  0.20280  0.33623  Biso   1.000  H
  C62      1.0000 0.17390  0.13730  0.37673  Biso   1.000  C
  H27      1.0000 0.13980  0.06960  0.36133  Biso   1.000  H
  C63      1.0000 0.12030  0.15530  0.41393  Biso   1.000  C
  C64      1.0000 0.01210  0.21970  0.93520  Biso   1.000  C
  Cd4      1.0000 0.09083  0.42990  0.97528  Biso   1.000  Cd
  O19      1.0000 0.07220  0.23770  0.97007  Biso   1.000  O
  C65      1.0000 0.95940  0.11130  0.91010  Biso   1.000  C
  O20      1.0000 0.98840  0.29090  0.92030  Biso   1.000  O
  C66      1.0000 0.88510  0.08760  0.87390  Biso   1.000  C
  H28      1.0000 0.86520  0.13900  0.86490  Biso   1.000  H
  O21      1.0000 0.60250  0.72030  0.72160  Biso   1.000  O
  C67      1.0000 0.84000  0.98740  0.85100  Biso   1.000  C
  H29      1.0000 0.79090  0.97280  0.82610  Biso   1.000  H
  O22      1.0000 0.65190  0.60040  0.69780  Biso   1.000  O
  C68      1.0000 0.86730  0.90480  0.86470  Biso   1.000  C
  O23      1.0000 0.00160  0.51060  0.93910  Biso   1.000  O
  C69      1.0000 0.94090  0.92930  0.90150  Biso   1.000  C
  O24      1.0000 0.11340  0.61860  0.99330  Biso   1.000  O
  C70      1.0000 0.98560  0.03360  0.92390  Biso   1.000  C
  H30      1.0000 0.03450  0.04980  0.94900  Biso   1.000  H
  C71      1.0000 0.81950  0.80040  0.83840  Biso   1.000  C
  C72      1.0000 0.75370  0.77670  0.80010  Biso   1.000  C
  H31      1.0000 0.73240  0.82730  0.79140  Biso   1.000  H
  C73      1.0000 0.71610  0.68410  0.77310  Biso   1.000  C
  C74      1.0000 0.65220  0.66710  0.72750  Biso   1.000  C
  C75      1.0000 0.74750  0.60470  0.78790  Biso   1.000  C
  H32      1.0000 0.72630  0.54150  0.77000  Biso   1.000  H
  C76      1.0000 0.80840  0.62270  0.82820  Biso   1.000  C
  H33      1.0000 0.82400  0.56920  0.83880  Biso   1.000  H
  C77      1.0000 0.84730  0.72020  0.85380  Biso   1.000  C
  C78      1.0000 0.92110  0.74500  0.89460  Biso   1.000  C
  C79      1.0000 0.94850  0.66390  0.91200  Biso   1.000  C
  H34      1.0000 0.91760  0.59540  0.89730  Biso   1.000  H
  C80      1.0000 0.01570  0.68550  0.94790  Biso   1.000  C
  C81      1.0000 0.04760  0.59960  0.96170  Biso   1.000  C
  C82      1.0000 0.05860  0.78400  0.97090  Biso   1.000  C
  H35      1.0000 0.10400  0.79720  0.99710  Biso   1.000  H
  C83      1.0000 0.03660  0.86270  0.95660  Biso   1.000  C
  H36      1.0000 0.07020  0.93040  0.97200  Biso   1.000  H
  C84      1.0000 0.96500  0.84470  0.91940  Biso   1.000  C
  C85      1.0000 0.20760  0.98790  0.26853  Biso   1.000  C
  Cd5      1.0000 0.33907  0.90917  0.30862  Biso   1.000  Cd
  O25      1.0000 0.16550  0.92780  0.30340  Biso   1.000  O
  C86      1.0000 0.15190  0.04060  0.24343  Biso   1.000  C
  O26      1.0000 0.30250  0.01160  0.25363  Biso   1.000  O
  C87      1.0000 0.20250  0.11490  0.20723  Biso   1.000  C
  H37      1.0000 0.27380  0.13480  0.19823  Biso   1.000  H
  O27      1.0000 0.11780  0.39750  0.05493  Biso   1.000  O
  C88      1.0000 0.14740  0.16000  0.18433  Biso   1.000  C
  H38      1.0000 0.18190  0.20910  0.15943  Biso   1.000  H
  O28      1.0000 0.94850  0.34810  0.03113  Biso   1.000  O
  C89      1.0000 0.03750  0.13270  0.19803  Biso   1.000  C
  O29      1.0000 0.50900  0.99840  0.27243  Biso   1.000  O
  C90      1.0000 0.98840  0.05910  0.23483  Biso   1.000  C
  O30      1.0000 0.50520  0.88660  0.32663  Biso   1.000  O
  C91      1.0000 0.04800  0.01440  0.25723  Biso   1.000  C
  H39      1.0000 0.01530  0.96550  0.28233  Biso   1.000  H
  C92      1.0000 0.98090  0.18050  0.17173  Biso   1.000  C
  C93      1.0000 0.02300  0.24630  0.13343  Biso   1.000  C
  H40      1.0000 0.09490  0.26760  0.12473  Biso   1.000  H
  C94      1.0000 0.96800  0.28390  0.10643  Biso   1.000  C
  C95      1.0000 0.01490  0.34780  0.06083  Biso   1.000  C
  C96      1.0000 0.85720  0.25250  0.12123  Biso   1.000  C
  H41      1.0000 0.81520  0.27370  0.10333  Biso   1.000  H
  C97      1.0000 0.81430  0.19160  0.16153  Biso   1.000  C
  H42      1.0000 0.74520  0.17600  0.17213  Biso   1.000  H
  C98      1.0000 0.87290  0.15270  0.18713  Biso   1.000  C
  C99      1.0000 0.82390  0.07890  0.22793  Biso   1.000  C
  C100     1.0000 0.71540  0.05150  0.24533  Biso   1.000  C
  H43      1.0000 0.67780  0.08240  0.23063  Biso   1.000  H
  C101     1.0000 0.66980  0.98430  0.28123  Biso   1.000  C
  C102     1.0000 0.55200  0.95240  0.29503  Biso   1.000  C
  C103     1.0000 0.72540  0.94140  0.30423  Biso   1.000  C
  H44      1.0000 0.69320  0.89600  0.33043  Biso   1.000  H
  C104     1.0000 0.82610  0.96340  0.28993  Biso   1.000  C
  H45      1.0000 0.86020  0.92980  0.30533  Biso   1.000  H
  C105     1.0000 0.87970  0.03500  0.25273  Biso   1.000  C
  C106     1.0000 0.78030  0.79240  0.60187  Biso   1.000  C
  Cd6      1.0000 0.57010  0.66093  0.64195  Biso   1.000  Cd
  O31      1.0000 0.76230  0.83450  0.63674  Biso   1.000  O
  C107     1.0000 0.88870  0.84810  0.57677  Biso   1.000  C
  O32      1.0000 0.70910  0.69750  0.58697  Biso   1.000  O
  C108     1.0000 0.91240  0.79750  0.54057  Biso   1.000  C
  H46      1.0000 0.86100  0.72620  0.53157  Biso   1.000  H
  O33      1.0000 0.27970  0.88220  0.38827  Biso   1.000  O
  C109     1.0000 0.01260  0.85260  0.51767  Biso   1.000  C
  H47      1.0000 0.02720  0.81810  0.49277  Biso   1.000  H
  O34      1.0000 0.39960  0.05150  0.36447  Biso   1.000  O
  C110     1.0000 0.09520  0.96250  0.53137  Biso   1.000  C
  O35      1.0000 0.48940  0.49100  0.60577  Biso   1.000  O
  C111     1.0000 0.07070  0.01160  0.56817  Biso   1.000  C
  O36      1.0000 0.38140  0.49480  0.65997  Biso   1.000  O
  C112     1.0000 0.96640  0.95200  0.59057  Biso   1.000  C
  H48      1.0000 0.95020  0.98470  0.61567  Biso   1.000  H
  C113     1.0000 0.19960  0.01910  0.50507  Biso   1.000  C
  C114     1.0000 0.22330  0.97700  0.46677  Biso   1.000  C
  H49      1.0000 0.17270  0.90510  0.45807  Biso   1.000  H
  C115     1.0000 0.31590  0.03200  0.43977  Biso   1.000  C
  C116     1.0000 0.33290  0.98510  0.39417  Biso   1.000  C
  C117     1.0000 0.39530  0.14280  0.45457  Biso   1.000  C
  H50      1.0000 0.45850  0.18480  0.43667  Biso   1.000  H
  C118     1.0000 0.37730  0.18570  0.49487  Biso   1.000  C
  H51      1.0000 0.43080  0.25480  0.50547  Biso   1.000  H
  C119     1.0000 0.27980  0.12710  0.52047  Biso   1.000  C
  C120     1.0000 0.25500  0.17610  0.56127  Biso   1.000  C
  C121     1.0000 0.33610  0.28460  0.57867  Biso   1.000  C
  H52      1.0000 0.40460  0.32220  0.56397  Biso   1.000  H
  C122     1.0000 0.31450  0.33020  0.61457  Biso   1.000  C
  C123     1.0000 0.40040  0.44800  0.62837  Biso   1.000  C
  C124     1.0000 0.21600  0.27460  0.63757  Biso   1.000  C
  H53      1.0000 0.20280  0.30680  0.66377  Biso   1.000  H
  C125     1.0000 0.13730  0.17390  0.62327  Biso   1.000  C
  H54      1.0000 0.06960  0.13980  0.63867  Biso   1.000  H
  C126     1.0000 0.15530  0.12030  0.58607  Biso   1.000  C
