data_image0
_cell_length_a       14.4162
_cell_length_b       14.4162
_cell_length_c       17.304
_cell_angle_alpha    90
_cell_angle_beta     90
_cell_angle_gamma    120

_symmetry_space_group_name_H-M    "P 1"
_symmetry_int_tables_number       1

loop_
  _symmetry_equiv_pos_as_xyz
  'x, y, z'

loop_
  _atom_site_label
  _atom_site_occupancy
  _atom_site_fract_x
  _atom_site_fract_y
  _atom_site_fract_z
  _atom_site_thermal_displace_type
  _atom_site_B_iso_or_equiv
  _atom_site_type_symbol
  O1       1.0000 0.34600  0.49950  0.66609  Biso   1.000  O
  C1       1.0000 0.40150  0.43180  0.53360  Biso   1.000  C
  H1       1.0000 0.33540  0.38610  0.55610  Biso   1.000  H
  O2       1.0000 0.50050  0.84650  0.66609  Biso   1.000  O
  C2       1.0000 0.56820  0.96970  0.53360  Biso   1.000  C
  H2       1.0000 0.61390  0.94930  0.55610  Biso   1.000  H
  O3       1.0000 0.15350  0.65400  0.66609  Biso   1.000  O
  C3       1.0000 0.03030  0.59850  0.53360  Biso   1.000  C
  H3       1.0000 0.05070  0.66460  0.55610  Biso   1.000  H
  O4       1.0000 0.65400  0.50050  0.16609  Biso   1.000  O
  C4       1.0000 0.59850  0.56820  0.03360  Biso   1.000  C
  H4       1.0000 0.66460  0.61390  0.05610  Biso   1.000  H
  O5       1.0000 0.49950  0.15350  0.16609  Biso   1.000  O
  C5       1.0000 0.43180  0.03030  0.03360  Biso   1.000  C
  H5       1.0000 0.38610  0.05070  0.05610  Biso   1.000  H
  O6       1.0000 0.84650  0.34600  0.16609  Biso   1.000  O
  C6       1.0000 0.96970  0.40150  0.03360  Biso   1.000  C
  H6       1.0000 0.94930  0.33540  0.05610  Biso   1.000  H
  O7       1.0000 0.49950  0.34600  0.33391  Biso   1.000  O
  C7       1.0000 0.43180  0.40150  0.46640  Biso   1.000  C
  H7       1.0000 0.38610  0.33540  0.44390  Biso   1.000  H
  O8       1.0000 0.84650  0.50050  0.33391  Biso   1.000  O
  C8       1.0000 0.96970  0.56820  0.46640  Biso   1.000  C
  H8       1.0000 0.94930  0.61390  0.44390  Biso   1.000  H
  O9       1.0000 0.65400  0.15350  0.33391  Biso   1.000  O
  C9       1.0000 0.59850  0.03030  0.46640  Biso   1.000  C
  H9       1.0000 0.66460  0.05070  0.44390  Biso   1.000  H
  O10      1.0000 0.50050  0.65400  0.83391  Biso   1.000  O
  C10      1.0000 0.56820  0.59850  0.96640  Biso   1.000  C
  H10      1.0000 0.61390  0.66460  0.94390  Biso   1.000  H
  O11      1.0000 0.15350  0.49950  0.83391  Biso   1.000  O
  C11      1.0000 0.03030  0.43180  0.96640  Biso   1.000  C
  H11      1.0000 0.05070  0.38610  0.94390  Biso   1.000  H
  O12      1.0000 0.34600  0.84650  0.83391  Biso   1.000  O
  C12      1.0000 0.40150  0.96970  0.96640  Biso   1.000  C
  H12      1.0000 0.33540  0.94930  0.94390  Biso   1.000  H
  O13      1.0000 0.65400  0.50050  0.33391  Biso   1.000  O
  C13      1.0000 0.59850  0.56820  0.46640  Biso   1.000  C
  H13      1.0000 0.66460  0.61390  0.44390  Biso   1.000  H
  O14      1.0000 0.49950  0.15350  0.33391  Biso   1.000  O
  C14      1.0000 0.43180  0.03030  0.46640  Biso   1.000  C
  H14      1.0000 0.38610  0.05070  0.44390  Biso   1.000  H
  O15      1.0000 0.84650  0.34600  0.33391  Biso   1.000  O
  C15      1.0000 0.96970  0.40150  0.46640  Biso   1.000  C
  H15      1.0000 0.94930  0.33540  0.44390  Biso   1.000  H
  O16      1.0000 0.34600  0.49950  0.83391  Biso   1.000  O
  C16      1.0000 0.40150  0.43180  0.96640  Biso   1.000  C
  H16      1.0000 0.33540  0.38610  0.94390  Biso   1.000  H
  O17      1.0000 0.50050  0.84650  0.83391  Biso   1.000  O
  C17      1.0000 0.56820  0.96970  0.96640  Biso   1.000  C
  H17      1.0000 0.61390  0.94930  0.94390  Biso   1.000  H
  O18      1.0000 0.15350  0.65400  0.83391  Biso   1.000  O
  C18      1.0000 0.03030  0.59850  0.96640  Biso   1.000  C
  H18      1.0000 0.05070  0.66460  0.94390  Biso   1.000  H
  O19      1.0000 0.50050  0.65400  0.66609  Biso   1.000  O
  C19      1.0000 0.56820  0.59850  0.53360  Biso   1.000  C
  H19      1.0000 0.61390  0.66460  0.55610  Biso   1.000  H
  O20      1.0000 0.15350  0.49950  0.66609  Biso   1.000  O
  C20      1.0000 0.03030  0.43180  0.53360  Biso   1.000  C
  H20      1.0000 0.05070  0.38610  0.55610  Biso   1.000  H
  O21      1.0000 0.34600  0.84650  0.66609  Biso   1.000  O
  C21      1.0000 0.40150  0.96970  0.53360  Biso   1.000  C
  H21      1.0000 0.33540  0.94930  0.55610  Biso   1.000  H
  O22      1.0000 0.49950  0.34600  0.16609  Biso   1.000  O
  C22      1.0000 0.43180  0.40150  0.03360  Biso   1.000  C
  H22      1.0000 0.38610  0.33540  0.05610  Biso   1.000  H
  O23      1.0000 0.84650  0.50050  0.16609  Biso   1.000  O
  C23      1.0000 0.96970  0.56820  0.03360  Biso   1.000  C
  H23      1.0000 0.94930  0.61390  0.05610  Biso   1.000  H
  O24      1.0000 0.65400  0.15350  0.16609  Biso   1.000  O
  C24      1.0000 0.59850  0.03030  0.03360  Biso   1.000  C
  H24      1.0000 0.66460  0.05070  0.05610  Biso   1.000  H
  Fe1      1.0000 0.25639  0.51279  0.75000  Biso   1.000  Fe
  Fe2      1.0000 0.48721  0.74361  0.75000  Biso   1.000  Fe
  Fe3      1.0000 0.25639  0.74361  0.75000  Biso   1.000  Fe
  Fe4      1.0000 0.74361  0.48721  0.25000  Biso   1.000  Fe
  Fe5      1.0000 0.51279  0.25639  0.25000  Biso   1.000  Fe
  Fe6      1.0000 0.74361  0.25639  0.25000  Biso   1.000  Fe
  O25      1.0000 0.33333  0.66667  0.75000  Biso   1.000  O
  O26      1.0000 0.66667  0.33333  0.25000  Biso   1.000  O
  C25      1.0000 0.43633  0.56367  0.63920  Biso   1.000  C
  C26      1.0000 0.46980  0.53020  0.56740  Biso   1.000  C
  C27      1.0000 0.43633  0.87266  0.63920  Biso   1.000  C
  C28      1.0000 0.46980  0.93960  0.56740  Biso   1.000  C
  C29      1.0000 0.12734  0.56367  0.63920  Biso   1.000  C
  C30      1.0000 0.06040  0.53020  0.56740  Biso   1.000  C
  C31      1.0000 0.56367  0.43633  0.13920  Biso   1.000  C
  C32      1.0000 0.53020  0.46980  0.06740  Biso   1.000  C
  C33      1.0000 0.56367  0.12734  0.13920  Biso   1.000  C
  C34      1.0000 0.53020  0.06040  0.06740  Biso   1.000  C
  C35      1.0000 0.87266  0.43633  0.13920  Biso   1.000  C
  C36      1.0000 0.93960  0.46980  0.06740  Biso   1.000  C
  C37      1.0000 0.56367  0.43633  0.36080  Biso   1.000  C
  C38      1.0000 0.53020  0.46980  0.43260  Biso   1.000  C
  C39      1.0000 0.87266  0.43633  0.36080  Biso   1.000  C
  C40      1.0000 0.93960  0.46980  0.43260  Biso   1.000  C
  C41      1.0000 0.56367  0.12734  0.36080  Biso   1.000  C
  C42      1.0000 0.53020  0.06040  0.43260  Biso   1.000  C
  C43      1.0000 0.43633  0.56367  0.86080  Biso   1.000  C
  C44      1.0000 0.46980  0.53020  0.93260  Biso   1.000  C
  C45      1.0000 0.12734  0.56367  0.86080  Biso   1.000  C
  C46      1.0000 0.06040  0.53020  0.93260  Biso   1.000  C
  C47      1.0000 0.43633  0.87266  0.86080  Biso   1.000  C
  C48      1.0000 0.46980  0.93960  0.93260  Biso   1.000  C
