data_image0
_cell_length_a       16.2107
_cell_length_b       14.9781
_cell_length_c       7.9573
_cell_angle_alpha    90
_cell_angle_beta     92.069
_cell_angle_gamma    90

_symmetry_space_group_name_H-M    "P 1"
_symmetry_int_tables_number       1

loop_
  _symmetry_equiv_pos_as_xyz
  'x, y, z'

loop_
  _atom_site_label
  _atom_site_occupancy
  _atom_site_fract_x
  _atom_site_fract_y
  _atom_site_fract_z
  _atom_site_thermal_displace_type
  _atom_site_B_iso_or_equiv
  _atom_site_type_symbol
  Ag1      1.0000 0.02724  0.26053  0.39942  Biso   1.000  Ag
  Tb1      1.0000 0.54616  0.38364  0.95109  Biso   1.000  Tb
  C1       1.0000 0.86760  0.32860  0.54060  Biso   1.000  C
  H1       1.0000 0.89410  0.38270  0.52320  Biso   1.000  H
  C2       1.0000 0.78985  0.32920  0.60660  Biso   1.000  C
  H2       1.0000 0.76500  0.38290  0.63460  Biso   1.000  H
  C3       1.0000 0.74937  0.24911  0.63060  Biso   1.000  C
  C4       1.0000 0.78861  0.17110  0.58860  Biso   1.000  C
  H3       1.0000 0.76290  0.11630  0.60300  Biso   1.000  H
  C5       1.0000 0.86702  0.17520  0.52450  Biso   1.000  C
  H4       1.0000 0.89340  0.12230  0.49700  Biso   1.000  H
  C6       1.0000 0.66426  0.24908  0.70010  Biso   1.000  C
  C7       1.0000 0.21140  0.25290  0.29390  Biso   1.000  C
  H5       1.0000 0.20890  0.19300  0.32440  Biso   1.000  H
  C8       1.0000 0.28536  0.28730  0.24220  Biso   1.000  C
  H6       1.0000 0.33170  0.25090  0.23780  Biso   1.000  H
  C9       1.0000 0.28995  0.37570  0.19740  Biso   1.000  C
  C10      1.0000 0.21958  0.42700  0.20410  Biso   1.000  C
  H7       1.0000 0.22070  0.48700  0.17430  Biso   1.000  H
  C11      1.0000 0.14740  0.38850  0.25540  Biso   1.000  C
  H8       1.0000 0.10000  0.42350  0.25810  Biso   1.000  H
  C12      1.0000 0.36818  0.41850  0.14100  Biso   1.000  C
  C13      1.0000 0.42970  0.45765  0.71230  Biso   1.000  C
  C14      1.0000 0.36350  0.49300  0.59490  Biso   1.000  C
  H9       1.0000 0.32020  0.44950  0.58190  Biso   1.000  H
  H10      1.0000 0.34150  0.54710  0.63990  Biso   1.000  H
  H11      1.0000 0.38620  0.50490  0.48740  Biso   1.000  H
  N1       1.0000 0.90607  0.25295  0.50100  Biso   1.000  N
  N2       1.0000 0.14304  0.30310  0.30140  Biso   1.000  N
  O1       1.0000 0.64283  0.31548  0.78170  Biso   1.000  O
  O2       1.0000 0.61935  0.18103  0.67200  Biso   1.000  O
  O3       1.0000 0.42524  0.36614  0.09800  Biso   1.000  O
  O4       1.0000 0.37085  0.50152  0.14190  Biso   1.000  O
  O5       1.0000 0.45016  0.50164  0.84250  Biso   1.000  O
  O6       1.0000 0.46498  0.38449  0.68690  Biso   1.000  O
  Ag2      1.0000 0.97276  0.76053  0.10058  Biso   1.000  Ag
  Tb2      1.0000 0.45384  0.88364  0.54891  Biso   1.000  Tb
  C15      1.0000 0.13240  0.82860  0.95940  Biso   1.000  C
  H12      1.0000 0.10590  0.88270  0.97680  Biso   1.000  H
  C16      1.0000 0.21015  0.82920  0.89340  Biso   1.000  C
  H13      1.0000 0.23500  0.88290  0.86540  Biso   1.000  H
  C17      1.0000 0.25063  0.74911  0.86940  Biso   1.000  C
  C18      1.0000 0.21139  0.67110  0.91140  Biso   1.000  C
  H14      1.0000 0.23710  0.61630  0.89700  Biso   1.000  H
  C19      1.0000 0.13298  0.67520  0.97550  Biso   1.000  C
  H15      1.0000 0.10660  0.62230  0.00300  Biso   1.000  H
  C20      1.0000 0.33574  0.74908  0.79990  Biso   1.000  C
  C21      1.0000 0.78860  0.75290  0.20610  Biso   1.000  C
  H16      1.0000 0.79110  0.69300  0.17560  Biso   1.000  H
  C22      1.0000 0.71464  0.78730  0.25780  Biso   1.000  C
  H17      1.0000 0.66830  0.75090  0.26220  Biso   1.000  H
  C23      1.0000 0.71005  0.87570  0.30260  Biso   1.000  C
  C24      1.0000 0.78042  0.92700  0.29590  Biso   1.000  C
  H18      1.0000 0.77930  0.98700  0.32570  Biso   1.000  H
  C25      1.0000 0.85260  0.88850  0.24460  Biso   1.000  C
  H19      1.0000 0.90000  0.92350  0.24190  Biso   1.000  H
  C26      1.0000 0.63182  0.91850  0.35900  Biso   1.000  C
  C27      1.0000 0.57030  0.95765  0.78770  Biso   1.000  C
  C28      1.0000 0.63650  0.99300  0.90510  Biso   1.000  C
  H20      1.0000 0.67980  0.94950  0.91810  Biso   1.000  H
  H21      1.0000 0.65850  0.04710  0.86010  Biso   1.000  H
  H22      1.0000 0.61380  0.00490  0.01260  Biso   1.000  H
  N3       1.0000 0.09393  0.75295  0.99900  Biso   1.000  N
  N4       1.0000 0.85696  0.80310  0.19860  Biso   1.000  N
  O7       1.0000 0.35717  0.81548  0.71830  Biso   1.000  O
  O8       1.0000 0.38065  0.68103  0.82800  Biso   1.000  O
  O9       1.0000 0.57476  0.86614  0.40200  Biso   1.000  O
  O10      1.0000 0.62915  0.00152  0.35810  Biso   1.000  O
  O11      1.0000 0.54984  0.00164  0.65750  Biso   1.000  O
  O12      1.0000 0.53502  0.88449  0.81310  Biso   1.000  O
  Ag3      1.0000 0.97276  0.73947  0.60058  Biso   1.000  Ag
  Tb3      1.0000 0.45384  0.61636  0.04891  Biso   1.000  Tb
  C29      1.0000 0.13240  0.67140  0.45940  Biso   1.000  C
  H23      1.0000 0.10590  0.61730  0.47680  Biso   1.000  H
  C30      1.0000 0.21015  0.67080  0.39340  Biso   1.000  C
  H24      1.0000 0.23500  0.61710  0.36540  Biso   1.000  H
  C31      1.0000 0.25063  0.75089  0.36940  Biso   1.000  C
  C32      1.0000 0.21139  0.82890  0.41140  Biso   1.000  C
  H25      1.0000 0.23710  0.88370  0.39700  Biso   1.000  H
  C33      1.0000 0.13298  0.82480  0.47550  Biso   1.000  C
  H26      1.0000 0.10660  0.87770  0.50300  Biso   1.000  H
  C34      1.0000 0.33574  0.75092  0.29990  Biso   1.000  C
  C35      1.0000 0.78860  0.74710  0.70610  Biso   1.000  C
  H27      1.0000 0.79110  0.80700  0.67560  Biso   1.000  H
  C36      1.0000 0.71464  0.71270  0.75780  Biso   1.000  C
  H28      1.0000 0.66830  0.74910  0.76220  Biso   1.000  H
  C37      1.0000 0.71005  0.62430  0.80260  Biso   1.000  C
  C38      1.0000 0.78042  0.57300  0.79590  Biso   1.000  C
  H29      1.0000 0.77930  0.51300  0.82570  Biso   1.000  H
  C39      1.0000 0.85260  0.61150  0.74460  Biso   1.000  C
  H30      1.0000 0.90000  0.57650  0.74190  Biso   1.000  H
  C40      1.0000 0.63182  0.58150  0.85900  Biso   1.000  C
  C41      1.0000 0.57030  0.54235  0.28770  Biso   1.000  C
  C42      1.0000 0.63650  0.50700  0.40510  Biso   1.000  C
  H31      1.0000 0.67980  0.55050  0.41810  Biso   1.000  H
  H32      1.0000 0.65850  0.45290  0.36010  Biso   1.000  H
  H33      1.0000 0.61380  0.49510  0.51260  Biso   1.000  H
  N5       1.0000 0.09393  0.74705  0.49900  Biso   1.000  N
  N6       1.0000 0.85696  0.69690  0.69860  Biso   1.000  N
  O13      1.0000 0.35717  0.68452  0.21830  Biso   1.000  O
  O14      1.0000 0.38065  0.81897  0.32800  Biso   1.000  O
  O15      1.0000 0.57476  0.63386  0.90200  Biso   1.000  O
  O16      1.0000 0.62915  0.49848  0.85810  Biso   1.000  O
  O17      1.0000 0.54984  0.49836  0.15750  Biso   1.000  O
  O18      1.0000 0.53502  0.61551  0.31310  Biso   1.000  O
  Ag4      1.0000 0.02724  0.23947  0.89942  Biso   1.000  Ag
  Tb4      1.0000 0.54616  0.11636  0.45109  Biso   1.000  Tb
  C43      1.0000 0.86760  0.17140  0.04060  Biso   1.000  C
  H34      1.0000 0.89410  0.11730  0.02320  Biso   1.000  H
  C44      1.0000 0.78985  0.17080  0.10660  Biso   1.000  C
  H35      1.0000 0.76500  0.11710  0.13460  Biso   1.000  H
  C45      1.0000 0.74937  0.25089  0.13060  Biso   1.000  C
  C46      1.0000 0.78861  0.32890  0.08860  Biso   1.000  C
  H36      1.0000 0.76290  0.38370  0.10300  Biso   1.000  H
  C47      1.0000 0.86702  0.32480  0.02450  Biso   1.000  C
  H37      1.0000 0.89340  0.37770  0.99700  Biso   1.000  H
  C48      1.0000 0.66426  0.25092  0.20010  Biso   1.000  C
  C49      1.0000 0.21140  0.24710  0.79390  Biso   1.000  C
  H38      1.0000 0.20890  0.30700  0.82440  Biso   1.000  H
  C50      1.0000 0.28536  0.21270  0.74220  Biso   1.000  C
  H39      1.0000 0.33170  0.24910  0.73780  Biso   1.000  H
  C51      1.0000 0.28995  0.12430  0.69740  Biso   1.000  C
  C52      1.0000 0.21958  0.07300  0.70410  Biso   1.000  C
  H40      1.0000 0.22070  0.01300  0.67430  Biso   1.000  H
  C53      1.0000 0.14740  0.11150  0.75540  Biso   1.000  C
  H41      1.0000 0.10000  0.07650  0.75810  Biso   1.000  H
  C54      1.0000 0.36818  0.08150  0.64100  Biso   1.000  C
  C55      1.0000 0.42970  0.04235  0.21230  Biso   1.000  C
  C56      1.0000 0.36350  0.00700  0.09490  Biso   1.000  C
  H42      1.0000 0.32020  0.05050  0.08190  Biso   1.000  H
  H43      1.0000 0.34150  0.95290  0.13990  Biso   1.000  H
  H44      1.0000 0.38620  0.99510  0.98740  Biso   1.000  H
  N7       1.0000 0.90607  0.24705  0.00100  Biso   1.000  N
  N8       1.0000 0.14304  0.19690  0.80140  Biso   1.000  N
  O19      1.0000 0.64283  0.18452  0.28170  Biso   1.000  O
  O20      1.0000 0.61935  0.31897  0.17200  Biso   1.000  O
  O21      1.0000 0.42524  0.13386  0.59800  Biso   1.000  O
  O22      1.0000 0.37085  0.99848  0.64190  Biso   1.000  O
  O23      1.0000 0.45016  0.99836  0.34250  Biso   1.000  O
  O24      1.0000 0.46498  0.11551  0.18690  Biso   1.000  O
