data_image0
_cell_length_a       6.9795
_cell_length_b       29.501
_cell_length_c       15.8327
_cell_angle_alpha    90
_cell_angle_beta     101.455
_cell_angle_gamma    90

_symmetry_space_group_name_H-M    "P 1"
_symmetry_int_tables_number       1

loop_
  _symmetry_equiv_pos_as_xyz
  'x, y, z'

loop_
  _atom_site_label
  _atom_site_occupancy
  _atom_site_fract_x
  _atom_site_fract_y
  _atom_site_fract_z
  _atom_site_thermal_displace_type
  _atom_site_B_iso_or_equiv
  _atom_site_type_symbol
  U1       1.0000 0.98260  0.46394  0.84795  Biso   1.000  U
  O1       1.0000 0.80130  0.42760  0.71600  Biso   1.000  O
  O2       1.0000 0.65120  0.48327  0.76910  Biso   1.000  O
  O3       1.0000 0.25210  0.46833  0.96610  Biso   1.000  O
  O4       1.0000 0.12410  0.47161  0.08470  Biso   1.000  O
  O5       1.0000 0.17200  0.09559  0.31810  Biso   1.000  O
  O6       1.0000 0.01410  0.15932  0.26930  Biso   1.000  O
  N1       1.0000 0.09750  0.40201  0.59010  Biso   1.000  N
  N2       1.0000 0.76150  0.39618  0.18800  Biso   1.000  N
  N3       1.0000 0.69710  0.21035  0.37680  Biso   1.000  N
  C1       1.0000 0.64780  0.44970  0.71920  Biso   1.000  C
  C2       1.0000 0.45590  0.43380  0.66960  Biso   1.000  C
  C3       1.0000 0.29800  0.46280  0.65160  Biso   1.000  C
  H1       1.0000 0.31290  0.49400  0.66630  Biso   1.000  H
  C4       1.0000 0.11640  0.44580  0.61140  Biso   1.000  C
  H2       1.0000 0.00610  0.46530  0.59930  Biso   1.000  H
  C5       1.0000 0.25090  0.37330  0.60640  Biso   1.000  C
  H3       1.0000 0.23240  0.34220  0.59110  Biso   1.000  H
  C6       1.0000 0.43330  0.38840  0.64490  Biso   1.000  C
  H4       1.0000 0.54210  0.36840  0.65450  Biso   1.000  H
  C7       1.0000 0.25790  0.46130  0.04500  Biso   1.000  C
  C8       1.0000 0.43610  0.43830  0.09610  Biso   1.000  C
  C9       1.0000 0.44140  0.42380  0.17890  Biso   1.000  C
  H5       1.0000 0.33190  0.42840  0.20520  Biso   1.000  H
  C10      1.0000 0.60690  0.40250  0.22360  Biso   1.000  C
  H6       1.0000 0.61000  0.39220  0.28070  Biso   1.000  H
  C11      1.0000 0.76030  0.40950  0.10610  Biso   1.000  C
  H7       1.0000 0.87170  0.40430  0.08140  Biso   1.000  H
  C12      1.0000 0.59810  0.43050  0.05870  Biso   1.000  C
  H8       1.0000 0.59630  0.43950  0.00100  Biso   1.000  H
  C13      1.0000 0.15950  0.13780  0.30310  Biso   1.000  C
  C14      1.0000 0.35110  0.16350  0.32940  Biso   1.000  C
  C15      1.0000 0.36320  0.20910  0.30880  Biso   1.000  C
  H9       1.0000 0.25220  0.22440  0.27720  Biso   1.000  H
  C16      1.0000 0.53810  0.23190  0.33470  Biso   1.000  C
  H10      1.0000 0.54530  0.26330  0.32240  Biso   1.000  H
  C17      1.0000 0.68840  0.16600  0.39640  Biso   1.000  C
  H11      1.0000 0.80140  0.15120  0.42760  Biso   1.000  H
  C18      1.0000 0.52080  0.14240  0.37210  Biso   1.000  C
  H12      1.0000 0.51880  0.11080  0.38430  Biso   1.000  H
  C19      1.0000 0.90350  0.35560  0.47180  Biso   1.000  C
  C20      1.0000 0.92770  0.37860  0.39630  Biso   1.000  C
  C21      1.0000 0.92440  0.35380  0.32120  Biso   1.000  C
  C22      1.0000 0.89850  0.30670  0.31920  Biso   1.000  C
  C23      1.0000 0.88930  0.28390  0.39660  Biso   1.000  C
  C24      1.0000 0.88480  0.30790  0.47300  Biso   1.000  C
  C25      1.0000 0.90100  0.38350  0.55130  Biso   1.000  C
  H13      1.0000 0.80800  0.40890  0.53620  Biso   1.000  H
  H14      1.0000 0.85410  0.36440  0.59450  Biso   1.000  H
  C26      1.0000 0.95520  0.42950  0.39820  Biso   1.000  C
  H15      1.0000 0.93120  0.44120  0.33920  Biso   1.000  H
  H16      1.0000 0.08930  0.43680  0.42700  Biso   1.000  H
  H17      1.0000 0.86310  0.44340  0.42980  Biso   1.000  H
  C27      1.0000 0.94960  0.37740  0.23990  Biso   1.000  C
  H18      1.0000 0.00590  0.35580  0.20370  Biso   1.000  H
  H19      1.0000 0.04400  0.40260  0.25520  Biso   1.000  H
  C28      1.0000 0.88180  0.28090  0.23510  Biso   1.000  C
  H20      1.0000 0.84640  0.24930  0.24360  Biso   1.000  H
  H21      1.0000 0.00740  0.28180  0.21640  Biso   1.000  H
  H22      1.0000 0.78070  0.29490  0.19100  Biso   1.000  H
  C29      1.0000 0.89440  0.23300  0.39890  Biso   1.000  C
  H23      1.0000 0.95990  0.22320  0.45730  Biso   1.000  H
  H24      1.0000 0.97490  0.22220  0.35800  Biso   1.000  H
  C30      1.0000 0.86390  0.28300  0.55250  Biso   1.000  C
  H25      1.0000 0.80060  0.30270  0.58870  Biso   1.000  H
  H26      1.0000 0.99350  0.27410  0.58450  Biso   1.000  H
  H27      1.0000 0.78400  0.25580  0.53670  Biso   1.000  H
  U2       1.0000 0.01740  0.96394  0.65205  Biso   1.000  U
  O7       1.0000 0.19870  0.92760  0.78400  Biso   1.000  O
  O8       1.0000 0.34880  0.98327  0.73090  Biso   1.000  O
  O9       1.0000 0.74790  0.96833  0.53390  Biso   1.000  O
  O10      1.0000 0.87590  0.97161  0.41530  Biso   1.000  O
  O11      1.0000 0.82800  0.59559  0.18190  Biso   1.000  O
  O12      1.0000 0.98590  0.65932  0.23070  Biso   1.000  O
  N4       1.0000 0.90250  0.90201  0.90990  Biso   1.000  N
  N5       1.0000 0.23850  0.89618  0.31200  Biso   1.000  N
  N6       1.0000 0.30290  0.71035  0.12320  Biso   1.000  N
  C31      1.0000 0.35220  0.94970  0.78080  Biso   1.000  C
  C32      1.0000 0.54410  0.93380  0.83040  Biso   1.000  C
  C33      1.0000 0.70200  0.96280  0.84840  Biso   1.000  C
  H28      1.0000 0.68710  0.99400  0.83370  Biso   1.000  H
  C34      1.0000 0.88360  0.94580  0.88860  Biso   1.000  C
  H29      1.0000 0.99390  0.96530  0.90070  Biso   1.000  H
  C35      1.0000 0.74910  0.87330  0.89360  Biso   1.000  C
  H30      1.0000 0.76760  0.84220  0.90890  Biso   1.000  H
  C36      1.0000 0.56670  0.88840  0.85510  Biso   1.000  C
  H31      1.0000 0.45790  0.86840  0.84550  Biso   1.000  H
  C37      1.0000 0.74210  0.96130  0.45500  Biso   1.000  C
  C38      1.0000 0.56390  0.93830  0.40390  Biso   1.000  C
  C39      1.0000 0.55860  0.92380  0.32110  Biso   1.000  C
  H32      1.0000 0.66810  0.92840  0.29480  Biso   1.000  H
  C40      1.0000 0.39310  0.90250  0.27640  Biso   1.000  C
  H33      1.0000 0.39000  0.89220  0.21930  Biso   1.000  H
  C41      1.0000 0.23970  0.90950  0.39390  Biso   1.000  C
  H34      1.0000 0.12830  0.90430  0.41860  Biso   1.000  H
  C42      1.0000 0.40190  0.93050  0.44130  Biso   1.000  C
  H35      1.0000 0.40370  0.93950  0.49900  Biso   1.000  H
  C43      1.0000 0.84050  0.63780  0.19690  Biso   1.000  C
  C44      1.0000 0.64890  0.66350  0.17060  Biso   1.000  C
  C45      1.0000 0.63680  0.70910  0.19120  Biso   1.000  C
  H36      1.0000 0.74780  0.72440  0.22280  Biso   1.000  H
  C46      1.0000 0.46190  0.73190  0.16530  Biso   1.000  C
  H37      1.0000 0.45470  0.76330  0.17760  Biso   1.000  H
  C47      1.0000 0.31160  0.66600  0.10360  Biso   1.000  C
  H38      1.0000 0.19860  0.65120  0.07240  Biso   1.000  H
  C48      1.0000 0.47920  0.64240  0.12790  Biso   1.000  C
  H39      1.0000 0.48120  0.61080  0.11570  Biso   1.000  H
  C49      1.0000 0.09650  0.85560  0.02820  Biso   1.000  C
  C50      1.0000 0.07230  0.87860  0.10370  Biso   1.000  C
  C51      1.0000 0.07560  0.85380  0.17880  Biso   1.000  C
  C52      1.0000 0.10150  0.80670  0.18080  Biso   1.000  C
  C53      1.0000 0.11070  0.78390  0.10340  Biso   1.000  C
  C54      1.0000 0.11520  0.80790  0.02700  Biso   1.000  C
  C55      1.0000 0.09900  0.88350  0.94870  Biso   1.000  C
  H40      1.0000 0.19200  0.90890  0.96380  Biso   1.000  H
  H41      1.0000 0.14590  0.86440  0.90550  Biso   1.000  H
  C56      1.0000 0.04480  0.92950  0.10180  Biso   1.000  C
  H42      1.0000 0.06880  0.94120  0.16080  Biso   1.000  H
  H43      1.0000 0.91070  0.93680  0.07300  Biso   1.000  H
  H44      1.0000 0.13690  0.94340  0.07020  Biso   1.000  H
  C57      1.0000 0.05040  0.87740  0.26010  Biso   1.000  C
  H45      1.0000 0.99410  0.85580  0.29630  Biso   1.000  H
  H46      1.0000 0.95600  0.90260  0.24480  Biso   1.000  H
  C58      1.0000 0.11820  0.78090  0.26490  Biso   1.000  C
  H47      1.0000 0.15360  0.74930  0.25640  Biso   1.000  H
  H48      1.0000 0.99260  0.78180  0.28360  Biso   1.000  H
  H49      1.0000 0.21930  0.79490  0.30900  Biso   1.000  H
  C59      1.0000 0.10560  0.73300  0.10110  Biso   1.000  C
  H50      1.0000 0.04010  0.72320  0.04270  Biso   1.000  H
  H51      1.0000 0.02510  0.72220  0.14200  Biso   1.000  H
  C60      1.0000 0.13610  0.78300  0.94750  Biso   1.000  C
  H52      1.0000 0.19940  0.80270  0.91130  Biso   1.000  H
  H53      1.0000 0.00650  0.77410  0.91550  Biso   1.000  H
  H54      1.0000 0.21600  0.75580  0.96330  Biso   1.000  H
  U3       1.0000 0.01740  0.53606  0.15205  Biso   1.000  U
  O13      1.0000 0.19870  0.57240  0.28400  Biso   1.000  O
  O14      1.0000 0.34880  0.51673  0.23090  Biso   1.000  O
  O15      1.0000 0.74790  0.53167  0.03390  Biso   1.000  O
  O16      1.0000 0.87590  0.52839  0.91530  Biso   1.000  O
  O17      1.0000 0.82800  0.90441  0.68190  Biso   1.000  O
  O18      1.0000 0.98590  0.84068  0.73070  Biso   1.000  O
  N7       1.0000 0.90250  0.59799  0.40990  Biso   1.000  N
  N8       1.0000 0.23850  0.60382  0.81200  Biso   1.000  N
  N9       1.0000 0.30290  0.78965  0.62320  Biso   1.000  N
  C61      1.0000 0.35220  0.55030  0.28080  Biso   1.000  C
  C62      1.0000 0.54410  0.56620  0.33040  Biso   1.000  C
  C63      1.0000 0.70200  0.53720  0.34840  Biso   1.000  C
  H55      1.0000 0.68710  0.50600  0.33370  Biso   1.000  H
  C64      1.0000 0.88360  0.55420  0.38860  Biso   1.000  C
  H56      1.0000 0.99390  0.53470  0.40070  Biso   1.000  H
  C65      1.0000 0.74910  0.62670  0.39360  Biso   1.000  C
  H57      1.0000 0.76760  0.65780  0.40890  Biso   1.000  H
  C66      1.0000 0.56670  0.61160  0.35510  Biso   1.000  C
  H58      1.0000 0.45790  0.63160  0.34550  Biso   1.000  H
  C67      1.0000 0.74210  0.53870  0.95500  Biso   1.000  C
  C68      1.0000 0.56390  0.56170  0.90390  Biso   1.000  C
  C69      1.0000 0.55860  0.57620  0.82110  Biso   1.000  C
  H59      1.0000 0.66810  0.57160  0.79480  Biso   1.000  H
  C70      1.0000 0.39310  0.59750  0.77640  Biso   1.000  C
  H60      1.0000 0.39000  0.60780  0.71930  Biso   1.000  H
  C71      1.0000 0.23970  0.59050  0.89390  Biso   1.000  C
  H61      1.0000 0.12830  0.59570  0.91860  Biso   1.000  H
  C72      1.0000 0.40190  0.56950  0.94130  Biso   1.000  C
  H62      1.0000 0.40370  0.56050  0.99900  Biso   1.000  H
  C73      1.0000 0.84050  0.86220  0.69690  Biso   1.000  C
  C74      1.0000 0.64890  0.83650  0.67060  Biso   1.000  C
  C75      1.0000 0.63680  0.79090  0.69120  Biso   1.000  C
  H63      1.0000 0.74780  0.77560  0.72280  Biso   1.000  H
  C76      1.0000 0.46190  0.76810  0.66530  Biso   1.000  C
  H64      1.0000 0.45470  0.73670  0.67760  Biso   1.000  H
  C77      1.0000 0.31160  0.83400  0.60360  Biso   1.000  C
  H65      1.0000 0.19860  0.84880  0.57240  Biso   1.000  H
  C78      1.0000 0.47920  0.85760  0.62790  Biso   1.000  C
  H66      1.0000 0.48120  0.88920  0.61570  Biso   1.000  H
  C79      1.0000 0.09650  0.64440  0.52820  Biso   1.000  C
  C80      1.0000 0.07230  0.62140  0.60370  Biso   1.000  C
  C81      1.0000 0.07560  0.64620  0.67880  Biso   1.000  C
  C82      1.0000 0.10150  0.69330  0.68080  Biso   1.000  C
  C83      1.0000 0.11070  0.71610  0.60340  Biso   1.000  C
  C84      1.0000 0.11520  0.69210  0.52700  Biso   1.000  C
  C85      1.0000 0.09900  0.61650  0.44870  Biso   1.000  C
  H67      1.0000 0.19200  0.59110  0.46380  Biso   1.000  H
  H68      1.0000 0.14590  0.63560  0.40550  Biso   1.000  H
  C86      1.0000 0.04480  0.57050  0.60180  Biso   1.000  C
  H69      1.0000 0.06880  0.55880  0.66080  Biso   1.000  H
  H70      1.0000 0.91070  0.56320  0.57300  Biso   1.000  H
  H71      1.0000 0.13690  0.55660  0.57020  Biso   1.000  H
  C87      1.0000 0.05040  0.62260  0.76010  Biso   1.000  C
  H72      1.0000 0.99410  0.64420  0.79630  Biso   1.000  H
  H73      1.0000 0.95600  0.59740  0.74480  Biso   1.000  H
  C88      1.0000 0.11820  0.71910  0.76490  Biso   1.000  C
  H74      1.0000 0.15360  0.75070  0.75640  Biso   1.000  H
  H75      1.0000 0.99260  0.71820  0.78360  Biso   1.000  H
  H76      1.0000 0.21930  0.70510  0.80900  Biso   1.000  H
  C89      1.0000 0.10560  0.76700  0.60110  Biso   1.000  C
  H77      1.0000 0.04010  0.77680  0.54270  Biso   1.000  H
  H78      1.0000 0.02510  0.77780  0.64200  Biso   1.000  H
  C90      1.0000 0.13610  0.71700  0.44750  Biso   1.000  C
  H79      1.0000 0.19940  0.69730  0.41130  Biso   1.000  H
  H80      1.0000 0.00650  0.72590  0.41550  Biso   1.000  H
  H81      1.0000 0.21600  0.74420  0.46330  Biso   1.000  H
  U4       1.0000 0.98260  0.03606  0.34795  Biso   1.000  U
  O19      1.0000 0.80130  0.07240  0.21600  Biso   1.000  O
  O20      1.0000 0.65120  0.01673  0.26910  Biso   1.000  O
  O21      1.0000 0.25210  0.03167  0.46610  Biso   1.000  O
  O22      1.0000 0.12410  0.02839  0.58470  Biso   1.000  O
  O23      1.0000 0.17200  0.40441  0.81810  Biso   1.000  O
  O24      1.0000 0.01410  0.34068  0.76930  Biso   1.000  O
  N10      1.0000 0.09750  0.09799  0.09010  Biso   1.000  N
  N11      1.0000 0.76150  0.10382  0.68800  Biso   1.000  N
  N12      1.0000 0.69710  0.28965  0.87680  Biso   1.000  N
  C91      1.0000 0.64780  0.05030  0.21920  Biso   1.000  C
  C92      1.0000 0.45590  0.06620  0.16960  Biso   1.000  C
  C93      1.0000 0.29800  0.03720  0.15160  Biso   1.000  C
  H82      1.0000 0.31290  0.00600  0.16630  Biso   1.000  H
  C94      1.0000 0.11640  0.05420  0.11140  Biso   1.000  C
  H83      1.0000 0.00610  0.03470  0.09930  Biso   1.000  H
  C95      1.0000 0.25090  0.12670  0.10640  Biso   1.000  C
  H84      1.0000 0.23240  0.15780  0.09110  Biso   1.000  H
  C96      1.0000 0.43330  0.11160  0.14490  Biso   1.000  C
  H85      1.0000 0.54210  0.13160  0.15450  Biso   1.000  H
  C97      1.0000 0.25790  0.03870  0.54500  Biso   1.000  C
  C98      1.0000 0.43610  0.06170  0.59610  Biso   1.000  C
  C99      1.0000 0.44140  0.07620  0.67890  Biso   1.000  C
  H86      1.0000 0.33190  0.07160  0.70520  Biso   1.000  H
  C100     1.0000 0.60690  0.09750  0.72360  Biso   1.000  C
  H87      1.0000 0.61000  0.10780  0.78070  Biso   1.000  H
  C101     1.0000 0.76030  0.09050  0.60610  Biso   1.000  C
  H88      1.0000 0.87170  0.09570  0.58140  Biso   1.000  H
  C102     1.0000 0.59810  0.06950  0.55870  Biso   1.000  C
  H89      1.0000 0.59630  0.06050  0.50100  Biso   1.000  H
  C103     1.0000 0.15950  0.36220  0.80310  Biso   1.000  C
  C104     1.0000 0.35110  0.33650  0.82940  Biso   1.000  C
  C105     1.0000 0.36320  0.29090  0.80880  Biso   1.000  C
  H90      1.0000 0.25220  0.27560  0.77720  Biso   1.000  H
  C106     1.0000 0.53810  0.26810  0.83470  Biso   1.000  C
  H91      1.0000 0.54530  0.23670  0.82240  Biso   1.000  H
  C107     1.0000 0.68840  0.33400  0.89640  Biso   1.000  C
  H92      1.0000 0.80140  0.34880  0.92760  Biso   1.000  H
  C108     1.0000 0.52080  0.35760  0.87210  Biso   1.000  C
  H93      1.0000 0.51880  0.38920  0.88430  Biso   1.000  H
  C109     1.0000 0.90350  0.14440  0.97180  Biso   1.000  C
  C110     1.0000 0.92770  0.12140  0.89630  Biso   1.000  C
  C111     1.0000 0.92440  0.14620  0.82120  Biso   1.000  C
  C112     1.0000 0.89850  0.19330  0.81920  Biso   1.000  C
  C113     1.0000 0.88930  0.21610  0.89660  Biso   1.000  C
  C114     1.0000 0.88480  0.19210  0.97300  Biso   1.000  C
  C115     1.0000 0.90100  0.11650  0.05130  Biso   1.000  C
  H94      1.0000 0.80800  0.09110  0.03620  Biso   1.000  H
  H95      1.0000 0.85410  0.13560  0.09450  Biso   1.000  H
  C116     1.0000 0.95520  0.07050  0.89820  Biso   1.000  C
  H96      1.0000 0.93120  0.05880  0.83920  Biso   1.000  H
  H97      1.0000 0.08930  0.06320  0.92700  Biso   1.000  H
  H98      1.0000 0.86310  0.05660  0.92980  Biso   1.000  H
  C117     1.0000 0.94960  0.12260  0.73990  Biso   1.000  C
  H99      1.0000 0.00590  0.14420  0.70370  Biso   1.000  H
  H100     1.0000 0.04400  0.09740  0.75520  Biso   1.000  H
  C118     1.0000 0.88180  0.21910  0.73510  Biso   1.000  C
  H101     1.0000 0.84640  0.25070  0.74360  Biso   1.000  H
  H102     1.0000 0.00740  0.21820  0.71640  Biso   1.000  H
  H103     1.0000 0.78070  0.20510  0.69100  Biso   1.000  H
  C119     1.0000 0.89440  0.26700  0.89890  Biso   1.000  C
  H104     1.0000 0.95990  0.27680  0.95730  Biso   1.000  H
  H105     1.0000 0.97490  0.27780  0.85800  Biso   1.000  H
  C120     1.0000 0.86390  0.21700  0.05250  Biso   1.000  C
  H106     1.0000 0.80060  0.19730  0.08870  Biso   1.000  H
  H107     1.0000 0.99350  0.22590  0.08450  Biso   1.000  H
  H108     1.0000 0.78400  0.24420  0.03670  Biso   1.000  H
