data_image0
_cell_length_a       10.28
_cell_length_b       32.067
_cell_length_c       6.9403
_cell_angle_alpha    90
_cell_angle_beta     90
_cell_angle_gamma    90

_symmetry_space_group_name_H-M    "P 1"
_symmetry_int_tables_number       1

loop_
  _symmetry_equiv_pos_as_xyz
  'x, y, z'

loop_
  _atom_site_label
  _atom_site_occupancy
  _atom_site_fract_x
  _atom_site_fract_y
  _atom_site_fract_z
  _atom_site_thermal_displace_type
  _atom_site_B_iso_or_equiv
  _atom_site_type_symbol
  C1       1.0000 0.43030  0.27060  0.89000  Biso   1.000  C
  C2       1.0000 0.43100  0.31440  0.89100  Biso   1.000  C
  C3       1.0000 0.93030  0.77060  0.89000  Biso   1.000  C
  C4       1.0000 0.93100  0.81440  0.89100  Biso   1.000  C
  C5       1.0000 0.56970  0.72940  0.39000  Biso   1.000  C
  C6       1.0000 0.56900  0.68560  0.39100  Biso   1.000  C
  C7       1.0000 0.06970  0.22940  0.39000  Biso   1.000  C
  C8       1.0000 0.06900  0.18560  0.39100  Biso   1.000  C
  C9       1.0000 0.56970  0.27060  0.61000  Biso   1.000  C
  C10      1.0000 0.56900  0.31440  0.60900  Biso   1.000  C
  C11      1.0000 0.06970  0.77060  0.61000  Biso   1.000  C
  C12      1.0000 0.06900  0.81440  0.60900  Biso   1.000  C
  C13      1.0000 0.43030  0.72940  0.11000  Biso   1.000  C
  C14      1.0000 0.43100  0.68560  0.10900  Biso   1.000  C
  C15      1.0000 0.93030  0.22940  0.11000  Biso   1.000  C
  C16      1.0000 0.93100  0.18560  0.10900  Biso   1.000  C
  C17      1.0000 0.56970  0.72940  0.11000  Biso   1.000  C
  C18      1.0000 0.56900  0.68560  0.10900  Biso   1.000  C
  C19      1.0000 0.06970  0.22940  0.11000  Biso   1.000  C
  C20      1.0000 0.06900  0.18560  0.10900  Biso   1.000  C
  C21      1.0000 0.43030  0.27060  0.61000  Biso   1.000  C
  C22      1.0000 0.43100  0.31440  0.60900  Biso   1.000  C
  C23      1.0000 0.93030  0.77060  0.61000  Biso   1.000  C
  C24      1.0000 0.93100  0.81440  0.60900  Biso   1.000  C
  C25      1.0000 0.43030  0.72940  0.39000  Biso   1.000  C
  C26      1.0000 0.43100  0.68560  0.39100  Biso   1.000  C
  C27      1.0000 0.93030  0.22940  0.39000  Biso   1.000  C
  C28      1.0000 0.93100  0.18560  0.39100  Biso   1.000  C
  C29      1.0000 0.56970  0.27060  0.89000  Biso   1.000  C
  C30      1.0000 0.56900  0.31440  0.89100  Biso   1.000  C
  C31      1.0000 0.06970  0.77060  0.89000  Biso   1.000  C
  C32      1.0000 0.06900  0.81440  0.89100  Biso   1.000  C
  Zn1      1.0000 0.50000  0.40383  0.25000  Biso   1.000  Zn
  O1       1.0000 0.50000  0.46630  0.25000  Biso   1.000  O
  Zn2      1.0000 0.00000  0.90383  0.25000  Biso   1.000  Zn
  O2       1.0000 0.00000  0.96630  0.25000  Biso   1.000  O
  Zn3      1.0000 0.50000  0.59617  0.75000  Biso   1.000  Zn
  O3       1.0000 0.50000  0.53370  0.75000  Biso   1.000  O
  Zn4      1.0000 0.00000  0.09617  0.75000  Biso   1.000  Zn
  O4       1.0000 0.00000  0.03370  0.75000  Biso   1.000  O
  Zn5      1.0000 0.50000  0.50000  0.00000  Biso   1.000  Zn
  Zn6      1.0000 0.00000  0.00000  0.00000  Biso   1.000  Zn
  Zn7      1.0000 0.50000  0.50000  0.50000  Biso   1.000  Zn
  Zn8      1.0000 0.00000  0.00000  0.50000  Biso   1.000  Zn
  O5       1.0000 0.16230  0.13040  0.75000  Biso   1.000  O
  O6       1.0000 0.26100  0.07230  0.75000  Biso   1.000  O
  C33      1.0000 0.38800  0.13490  0.75000  Biso   1.000  C
  C34      1.0000 0.26500  0.11130  0.75000  Biso   1.000  C
  C35      1.0000 0.38590  0.17960  0.75000  Biso   1.000  C
  H1       1.0000 0.30710  0.19380  0.75000  Biso   1.000  H
  O7       1.0000 0.66230  0.63040  0.75000  Biso   1.000  O
  O8       1.0000 0.76100  0.57230  0.75000  Biso   1.000  O
  C36      1.0000 0.88800  0.63490  0.75000  Biso   1.000  C
  C37      1.0000 0.76500  0.61130  0.75000  Biso   1.000  C
  C38      1.0000 0.88590  0.67960  0.75000  Biso   1.000  C
  H2       1.0000 0.80710  0.69380  0.75000  Biso   1.000  H
  O9       1.0000 0.83770  0.86960  0.25000  Biso   1.000  O
  O10      1.0000 0.73900  0.92770  0.25000  Biso   1.000  O
  C39      1.0000 0.61200  0.86510  0.25000  Biso   1.000  C
  C40      1.0000 0.73500  0.88870  0.25000  Biso   1.000  C
  C41      1.0000 0.61410  0.82040  0.25000  Biso   1.000  C
  H3       1.0000 0.69290  0.80620  0.25000  Biso   1.000  H
  O11      1.0000 0.33770  0.36960  0.25000  Biso   1.000  O
  O12      1.0000 0.23900  0.42770  0.25000  Biso   1.000  O
  C42      1.0000 0.11200  0.36510  0.25000  Biso   1.000  C
  C43      1.0000 0.23500  0.38870  0.25000  Biso   1.000  C
  C44      1.0000 0.11410  0.32040  0.25000  Biso   1.000  C
  H4       1.0000 0.19290  0.30620  0.25000  Biso   1.000  H
  O13      1.0000 0.83770  0.13040  0.75000  Biso   1.000  O
  O14      1.0000 0.73900  0.07230  0.75000  Biso   1.000  O
  C45      1.0000 0.61200  0.13490  0.75000  Biso   1.000  C
  C46      1.0000 0.73500  0.11130  0.75000  Biso   1.000  C
  C47      1.0000 0.61410  0.17960  0.75000  Biso   1.000  C
  H5       1.0000 0.69290  0.19380  0.75000  Biso   1.000  H
  O15      1.0000 0.33770  0.63040  0.75000  Biso   1.000  O
  O16      1.0000 0.23900  0.57230  0.75000  Biso   1.000  O
  C48      1.0000 0.11200  0.63490  0.75000  Biso   1.000  C
  C49      1.0000 0.23500  0.61130  0.75000  Biso   1.000  C
  C50      1.0000 0.11410  0.67960  0.75000  Biso   1.000  C
  H6       1.0000 0.19290  0.69380  0.75000  Biso   1.000  H
  O17      1.0000 0.16230  0.86960  0.25000  Biso   1.000  O
  O18      1.0000 0.26100  0.92770  0.25000  Biso   1.000  O
  C51      1.0000 0.38800  0.86510  0.25000  Biso   1.000  C
  C52      1.0000 0.26500  0.88870  0.25000  Biso   1.000  C
  C53      1.0000 0.38590  0.82040  0.25000  Biso   1.000  C
  H7       1.0000 0.30710  0.80620  0.25000  Biso   1.000  H
  O19      1.0000 0.66230  0.36960  0.25000  Biso   1.000  O
  O20      1.0000 0.76100  0.42770  0.25000  Biso   1.000  O
  C54      1.0000 0.88800  0.36510  0.25000  Biso   1.000  C
  C55      1.0000 0.76500  0.38870  0.25000  Biso   1.000  C
  C56      1.0000 0.88590  0.32040  0.25000  Biso   1.000  C
  H8       1.0000 0.80710  0.30620  0.25000  Biso   1.000  H
  N1       1.0000 0.50000  0.40470  0.59110  Biso   1.000  N
  N2       1.0000 0.50000  0.44390  0.66130  Biso   1.000  N
  N3       1.0000 0.00000  0.90470  0.59110  Biso   1.000  N
  N4       1.0000 0.00000  0.94390  0.66130  Biso   1.000  N
  N5       1.0000 0.50000  0.59530  0.09110  Biso   1.000  N
  N6       1.0000 0.50000  0.55610  0.16130  Biso   1.000  N
  N7       1.0000 0.00000  0.09530  0.09110  Biso   1.000  N
  N8       1.0000 0.00000  0.05610  0.16130  Biso   1.000  N
  N9       1.0000 0.50000  0.40470  0.90890  Biso   1.000  N
  N10      1.0000 0.50000  0.44390  0.83870  Biso   1.000  N
  N11      1.0000 0.00000  0.90470  0.90890  Biso   1.000  N
  N12      1.0000 0.00000  0.94390  0.83870  Biso   1.000  N
  N13      1.0000 0.50000  0.59530  0.40890  Biso   1.000  N
  N14      1.0000 0.50000  0.55610  0.33870  Biso   1.000  N
  N15      1.0000 0.00000  0.09530  0.40890  Biso   1.000  N
  N16      1.0000 0.00000  0.05610  0.33870  Biso   1.000  N
  C57      1.0000 0.50000  0.11320  0.75000  Biso   1.000  C
  H9       1.0000 0.50000  0.08420  0.75000  Biso   1.000  H
  C58      1.0000 0.50000  0.20090  0.75000  Biso   1.000  C
  C59      1.0000 0.50000  0.24820  0.75000  Biso   1.000  C
  C60      1.0000 0.50000  0.33510  0.75000  Biso   1.000  C
  C61      1.0000 0.50000  0.38120  0.75000  Biso   1.000  C
  C62      1.0000 0.00000  0.61320  0.75000  Biso   1.000  C
  H10      1.0000 0.00000  0.58420  0.75000  Biso   1.000  H
  C63      1.0000 0.00000  0.70090  0.75000  Biso   1.000  C
  C64      1.0000 0.00000  0.74820  0.75000  Biso   1.000  C
  C65      1.0000 0.00000  0.83510  0.75000  Biso   1.000  C
  C66      1.0000 0.00000  0.88120  0.75000  Biso   1.000  C
  C67      1.0000 0.50000  0.88680  0.25000  Biso   1.000  C
  H11      1.0000 0.50000  0.91580  0.25000  Biso   1.000  H
  C68      1.0000 0.50000  0.79910  0.25000  Biso   1.000  C
  C69      1.0000 0.50000  0.75180  0.25000  Biso   1.000  C
  C70      1.0000 0.50000  0.66490  0.25000  Biso   1.000  C
  C71      1.0000 0.50000  0.61880  0.25000  Biso   1.000  C
  C72      1.0000 0.00000  0.38680  0.25000  Biso   1.000  C
  H12      1.0000 0.00000  0.41580  0.25000  Biso   1.000  H
  C73      1.0000 0.00000  0.29910  0.25000  Biso   1.000  C
  C74      1.0000 0.00000  0.25180  0.25000  Biso   1.000  C
  C75      1.0000 0.00000  0.16490  0.25000  Biso   1.000  C
  C76      1.0000 0.00000  0.11880  0.25000  Biso   1.000  C
