data_LABJUV_clean
_audit_creation_date              2014-07-02
_audit_creation_method            'Materials Studio'
_symmetry_space_group_name_H-M    'P1'
_symmetry_Int_Tables_number       1
_symmetry_cell_setting            triclinic
loop_
_symmetry_equiv_pos_as_xyz
  x,y,z
_cell_length_a                    10.1652
_cell_length_b                    14.6342
_cell_length_c                    15.2829
_cell_angle_alpha                 117.5380
_cell_angle_beta                  96.1410
_cell_angle_gamma                 104.3380
loop_
_atom_site_label
_atom_site_type_symbol
_atom_site_fract_x
_atom_site_fract_y
_atom_site_fract_z
_atom_site_U_iso_or_equiv
_atom_site_adp_type
_atom_site_occupancy
Cu1    Cu    0.93990   0.57547   0.53369   0.01267  Uiso   1.00
Cu2    Cu    0.94159   0.61651   0.74524   0.01267  Uiso   1.00
Cu3    Cu    0.73569   0.72646   0.78185   0.01267  Uiso   1.00
Cu4    Cu    0.67206   0.51081   0.75430   0.01267  Uiso   1.00
Cu5    Cu    0.84793   0.68552   0.91457   0.01267  Uiso   1.00
Cu6    Cu    0.06010   0.42453   0.46631   0.01267  Uiso   1.00
Cu7    Cu    0.05841   0.38349   0.25476   0.01267  Uiso   1.00
Cu8    Cu    0.26431   0.27354   0.21815   0.01267  Uiso   1.00
Cu9    Cu    0.32794   0.48919   0.24570   0.01267  Uiso   1.00
Cu10   Cu    0.15207   0.31448   0.08543   0.01267  Uiso   1.00
H1     H     0.11240   0.81370   0.67340   0.01267  Uiso   1.00
H2     H     0.29740   0.93590   0.67070   0.01267  Uiso   1.00
H3     H     0.18720   0.75190   0.36580   0.01267  Uiso   1.00
H4     H     0.00310   0.63440   0.37660   0.01267  Uiso   1.00
H5     H     0.27540   0.94230   0.40210   0.01267  Uiso   1.00
H6     H     0.43250   0.75690   0.53050   0.01267  Uiso   1.00
H7     H     0.51170   0.67790   0.61550   0.01267  Uiso   1.00
H8     H     0.77810   0.95930   0.82640   0.01267  Uiso   1.00
H9     H     0.70700   0.04460   0.74800   0.01267  Uiso   1.00
H10    H     0.09090   0.09270   0.91590   0.01267  Uiso   1.00
H11    H     0.06240   0.99600   0.74470   0.01267  Uiso   1.00
H12    H     0.08480   0.27020   0.73890   0.01267  Uiso   1.00
H13    H     0.10960   0.35720   0.91210   0.01267  Uiso   1.00
H14    H     0.88210   0.93450   0.59010   0.01267  Uiso   1.00
H15    H     0.19650   0.27150   0.52880   0.01267  Uiso   1.00
H16    H     0.40280   0.41570   0.60330   0.01267  Uiso   1.00
H17    H     0.55290   0.29930   0.75560   0.01267  Uiso   1.00
H18    H     0.35010   0.15700   0.69350   0.01267  Uiso   1.00
H19    H     0.88760   0.18630   0.32660   0.01267  Uiso   1.00
H20    H     0.70260   0.06410   0.32930   0.01267  Uiso   1.00
H21    H     0.81280   0.24810   0.63420   0.01267  Uiso   1.00
H22    H     0.99690   0.36560   0.62340   0.01267  Uiso   1.00
H23    H     0.72460   0.05770   0.59790   0.01267  Uiso   1.00
H24    H     0.56750   0.24310   0.46950   0.01267  Uiso   1.00
H25    H     0.48830   0.32210   0.38450   0.01267  Uiso   1.00
H26    H     0.22190   0.04070   0.17360   0.01267  Uiso   1.00
H27    H     0.29300   0.95540   0.25200   0.01267  Uiso   1.00
H28    H     0.90910   0.90730   0.08410   0.01267  Uiso   1.00
H29    H     0.93760   0.00400   0.25530   0.01267  Uiso   1.00
H30    H     0.91520   0.72980   0.26110   0.01267  Uiso   1.00
H31    H     0.89040   0.64280   0.08790   0.01267  Uiso   1.00
H32    H     0.11790   0.06550   0.40990   0.01267  Uiso   1.00
H33    H     0.80350   0.72850   0.47120   0.01267  Uiso   1.00
H34    H     0.59720   0.58430   0.39670   0.01267  Uiso   1.00
H35    H     0.44710   0.70070   0.24440   0.01267  Uiso   1.00
H36    H     0.64990   0.84300   0.30650   0.01267  Uiso   1.00
C1     C     0.12890   0.80040   0.61060   0.01267  Uiso   1.00
C2     C     0.23980   0.87460   0.60980   0.01267  Uiso   1.00
C3     C     0.26610   0.85710   0.51570   0.01267  Uiso   1.00
C4     C     0.17470   0.76600   0.42970   0.01267  Uiso   1.00
C5     C     0.06440   0.69480   0.43650   0.01267  Uiso   1.00
C6     C     0.38950   0.92890   0.50890   0.01267  Uiso   1.00
C7     C     0.36570   0.96660   0.44240   0.01267  Uiso   1.00
C8     C     0.52500   0.95970   0.56500   0.01267  Uiso   1.00
C9     C     0.56400   0.91040   0.62700   0.01267  Uiso   1.00
C10    C     0.50490   0.80000   0.59010   0.01267  Uiso   1.00
C11    C     0.55300   0.75260   0.64150   0.01267  Uiso   1.00
C12    C     0.70900   0.91740   0.76490   0.01267  Uiso   1.00
C13    C     0.66650   0.96920   0.71810   0.01267  Uiso   1.00
C14    C     0.08900   0.12900   0.87960   0.01267  Uiso   1.00
C15    C     0.07150   0.06980   0.77660   0.01267  Uiso   1.00
C16    C     0.06770   0.12160   0.72080   0.01267  Uiso   1.00
C17    C     0.08440   0.23170   0.77320   0.01267  Uiso   1.00
C18    C     0.10040   0.28340   0.87760   0.01267  Uiso   1.00
C19    C     0.04040   0.05850   0.60610   0.01267  Uiso   1.00
C20    C     0.92910   0.96150   0.55340   0.01267  Uiso   1.00
C21    C     0.11550   0.09720   0.55210   0.01267  Uiso   1.00
C22    C     0.24750   0.19600   0.60300   0.01267  Uiso   1.00
C23    C     0.26690   0.27580   0.57630   0.01267  Uiso   1.00
C24    C     0.39210   0.36190   0.62100   0.01267  Uiso   1.00
C25    C     0.47920   0.29500   0.71050   0.01267  Uiso   1.00
C26    C     0.35810   0.20800   0.67250   0.01267  Uiso   1.00
C27    C     0.87110   0.19960   0.38940   0.01267  Uiso   1.00
C28    C     0.76020   0.12540   0.39020   0.01267  Uiso   1.00
C29    C     0.73390   0.14290   0.48430   0.01267  Uiso   1.00
C30    C     0.82530   0.23400   0.57030   0.01267  Uiso   1.00
C31    C     0.93560   0.30520   0.56350   0.01267  Uiso   1.00
C32    C     0.61050   0.07110   0.49110   0.01267  Uiso   1.00
C33    C     0.63430   0.03340   0.55760   0.01267  Uiso   1.00
C34    C     0.47500   0.04030   0.43500   0.01267  Uiso   1.00
C35    C     0.43600   0.08960   0.37300   0.01267  Uiso   1.00
C36    C     0.49510   0.20000   0.40990   0.01267  Uiso   1.00
C37    C     0.44700   0.24740   0.35850   0.01267  Uiso   1.00
C38    C     0.29100   0.08260   0.23510   0.01267  Uiso   1.00
C39    C     0.33350   0.03080   0.28190   0.01267  Uiso   1.00
C40    C     0.91100   0.87100   0.12040   0.01267  Uiso   1.00
C41    C     0.92850   0.93020   0.22340   0.01267  Uiso   1.00
C42    C     0.93230   0.87840   0.27920   0.01267  Uiso   1.00
C43    C     0.91560   0.76830   0.22680   0.01267  Uiso   1.00
C44    C     0.89960   0.71660   0.12240   0.01267  Uiso   1.00
C45    C     0.95960   0.94150   0.39390   0.01267  Uiso   1.00
C46    C     0.07090   0.03850   0.44660   0.01267  Uiso   1.00
C47    C     0.88450   0.90280   0.44790   0.01267  Uiso   1.00
C48    C     0.75250   0.80400   0.39700   0.01267  Uiso   1.00
C49    C     0.73310   0.72420   0.42370   0.01267  Uiso   1.00
C50    C     0.60790   0.63810   0.37900   0.01267  Uiso   1.00
C51    C     0.52080   0.70500   0.28950   0.01267  Uiso   1.00
C52    C     0.64190   0.79200   0.32750   0.01267  Uiso   1.00
I1     I     0.70964   0.53856   0.59101   0.01267  Uiso   1.00
I2     I     0.15471   0.58763   0.66458   0.01267  Uiso   1.00
I3     I     0.00517   0.83281   0.87158   0.01267  Uiso   1.00
I4     I     0.89734   0.49791   0.84273   0.01267  Uiso   1.00
I5     I     0.56825   0.66219   0.87407   0.01267  Uiso   1.00
I6     I     0.29036   0.46144   0.40899   0.01267  Uiso   1.00
I7     I     0.84529   0.41237   0.33542   0.01267  Uiso   1.00
I8     I     0.99483   0.16719   0.12842   0.01267  Uiso   1.00
I9     I     0.10266   0.50209   0.15727   0.01267  Uiso   1.00
I10    I     0.43175   0.33781   0.12593   0.01267  Uiso   1.00
N1     N     0.04230   0.70950   0.52650   0.01267  Uiso   1.00
N2     N     0.65660   0.81080   0.72700   0.01267  Uiso   1.00
N3     N     0.10330   0.23370   0.93170   0.01267  Uiso   1.00
N4     N     0.49910   0.37280   0.68820   0.01267  Uiso   1.00
N5     N     0.95770   0.29050   0.47350   0.01267  Uiso   1.00
N6     N     0.34340   0.18920   0.27300   0.01267  Uiso   1.00
N7     N     0.89670   0.76630   0.06830   0.01267  Uiso   1.00
N8     N     0.50090   0.62720   0.31180   0.01267  Uiso   1.00
