data_image0
_cell_length_a       32.8072
_cell_length_b       14.9123
_cell_length_c       34.9062
_cell_angle_alpha    90
_cell_angle_beta     105.822
_cell_angle_gamma    90

_symmetry_space_group_name_H-M    "P 1"
_symmetry_int_tables_number       1

loop_
  _symmetry_equiv_pos_as_xyz
  'x, y, z'

loop_
  _atom_site_label
  _atom_site_occupancy
  _atom_site_fract_x
  _atom_site_fract_y
  _atom_site_fract_z
  _atom_site_thermal_displace_type
  _atom_site_B_iso_or_equiv
  _atom_site_type_symbol
  N1       1.0000 0.93839  0.33630  0.11394  Biso   1.000  N
  I1       1.0000 0.95545  0.40680  0.01740  Biso   1.000  I
  Zn1      1.0000 0.98081  0.31435  0.08095  Biso   1.000  Zn
  C1       1.0000 0.92520  0.42010  0.11870  Biso   1.000  C
  H1       1.0000 0.93620  0.46860  0.10700  Biso   1.000  H
  I2       1.0000 0.05563  0.32989  0.12625  Biso   1.000  I
  Zn2      1.0000 0.67121  0.79335  0.15206  Biso   1.000  Zn
  C2       1.0000 0.89620  0.43810  0.13990  Biso   1.000  C
  H2       1.0000 0.88740  0.49790  0.14250  Biso   1.000  H
  I3       1.0000 0.70751  0.90029  0.11492  Biso   1.000  I
  Zn3      1.0000 0.81949  0.05258  0.36222  Biso   1.000  Zn
  C3       1.0000 0.88019  0.36730  0.15738  Biso   1.000  C
  I4       1.0000 0.64077  0.82307  0.21031  Biso   1.000  I
  Zn4      1.0000 0.98981  0.77396  0.58766  Biso   1.000  Zn
  C4       1.0000 0.89430  0.28050  0.15270  Biso   1.000  C
  H3       1.0000 0.88420  0.23050  0.16430  Biso   1.000  H
  I5       1.0000 0.75273  0.04586  0.38468  Biso   1.000  I
  Zn5      1.0000 0.17471  0.03392  0.65542  Biso   1.000  Zn
  C5       1.0000 0.92320  0.26930  0.13070  Biso   1.000  C
  H4       1.0000 0.93270  0.21030  0.12750  Biso   1.000  H
  I6       1.0000 0.85712  0.91324  0.34560  Biso   1.000  I
  Zn6      1.0000 0.67739  0.26647  0.62028  Biso   1.000  Zn
  N2       1.0000 0.71237  0.68390  0.16686  Biso   1.000  N
  I7       1.0000 0.05991  0.80375  0.63906  Biso   1.000  I
  Zn7      1.0000 0.30762  0.23771  0.36796  Biso   1.000  Zn
  C6       1.0000 0.73250  0.65660  0.14060  Biso   1.000  C
  H5       1.0000 0.72830  0.68870  0.11640  Biso   1.000  H
  I8       1.0000 0.96416  0.87720  0.52737  Biso   1.000  I
  Zn8      1.0000 0.48092  0.50521  0.58652  Biso   1.000  Zn
  C7       1.0000 0.75930  0.58300  0.14750  Biso   1.000  C
  H6       1.0000 0.77340  0.56500  0.12830  Biso   1.000  H
  I9       1.0000 0.13893  0.01101  0.71087  Biso   1.000  I
  Zn9      1.0000 0.30628  0.76691  0.86862  Biso   1.000  Zn
  C8       1.0000 0.76524  0.53630  0.18288  Biso   1.000  C
  I10      1.0000 0.21147  0.91548  0.62446  Biso   1.000  I
  Zn10     1.0000 0.17500  0.55409  0.11952  Biso   1.000  Zn
  C9       1.0000 0.74410  0.56460  0.21033  Biso   1.000  C
  H7       1.0000 0.74750  0.53370  0.23480  Biso   1.000  H
  I11      1.0000 0.69150  0.32497  0.55607  Biso   1.000  I
  Zn11     1.0000 0.49022  0.04434  0.08388  Biso   1.000  Zn
  C10      1.0000 0.71791  0.63890  0.20107  Biso   1.000  C
  H8       1.0000 0.70340  0.65860  0.21970  Biso   1.000  H
  I12      1.0000 0.67484  0.37322  0.67500  Biso   1.000  I
  Zn12     1.0000 0.80015  0.58765  0.87101  Biso   1.000  Zn
  N3       1.0000 0.81339  0.14010  0.31472  Biso   1.000  N
  I13      1.0000 0.23792  0.22831  0.38531  Biso   1.000  I
  C11      1.0000 0.84090  0.13320  0.29300  Biso   1.000  C
  H9       1.0000 0.86120  0.08630  0.29900  Biso   1.000  H
  I14      1.0000 0.34130  0.38464  0.35487  Biso   1.000  I
  C12      1.0000 0.84130  0.19080  0.26240  Biso   1.000  C
  H10      1.0000 0.86070  0.18230  0.24690  Biso   1.000  H
  I15      1.0000 0.45232  0.39826  0.52803  Biso   1.000  I
  C13      1.0000 0.81263  0.26190  0.25465  Biso   1.000  C
  I16      1.0000 0.55352  0.47646  0.63474  Biso   1.000  I
  C14      1.0000 0.78380  0.26940  0.27693  Biso   1.000  C
  H11      1.0000 0.76350  0.31640  0.27190  Biso   1.000  H
  I17      1.0000 0.34016  0.91321  0.85442  Biso   1.000  I
  C15      1.0000 0.78500  0.20670  0.30686  Biso   1.000  C
  H12      1.0000 0.76510  0.21150  0.32210  Biso   1.000  H
  I18      1.0000 0.23744  0.75298  0.88776  Biso   1.000  I
  C16      1.0000 0.84796  0.37990  0.17944  Biso   1.000  C
  I19      1.0000 0.18092  0.51669  0.04942  Biso   1.000  I
  N4       1.0000 0.82367  0.45350  0.17169  Biso   1.000  N
  I20      1.0000 0.17772  0.43566  0.17080  Biso   1.000  I
  C17      1.0000 0.79305  0.45610  0.19023  Biso   1.000  C
  I21      1.0000 0.46468  0.95003  0.02095  Biso   1.000  I
  N5       1.0000 0.78612  0.39470  0.21582  Biso   1.000  N
  I22      1.0000 0.56253  0.02592  0.13325  Biso   1.000  I
  C18      1.0000 0.81475  0.32720  0.22331  Biso   1.000  C
  I23      1.0000 0.72938  0.61250  0.88499  Biso   1.000  I
  N6       1.0000 0.84553  0.31650  0.20570  Biso   1.000  N
  I24      1.0000 0.82826  0.43390  0.85856  Biso   1.000  I
  N7       1.0000 0.86300  0.11720  0.40811  Biso   1.000  N
  C19      1.0000 0.89280  0.06930  0.43400  Biso   1.000  C
  H13      1.0000 0.89430  0.00650  0.43000  Biso   1.000  H
  C20      1.0000 0.92140  0.10850  0.46610  Biso   1.000  C
  H14      1.0000 0.94240  0.07320  0.48380  Biso   1.000  H
  C21      1.0000 0.91902  0.19930  0.47215  Biso   1.000  C
  C22      1.0000 0.88820  0.24940  0.44630  Biso   1.000  C
  H15      1.0000 0.88570  0.31200  0.45010  Biso   1.000  H
  C23      1.0000 0.86080  0.20490  0.41423  Biso   1.000  C
  H16      1.0000 0.83960  0.23870  0.39600  Biso   1.000  H
  N8       1.0000 0.98344  0.64020  0.57246  Biso   1.000  N
  C24      1.0000 0.95480  0.60990  0.53987  Biso   1.000  C
  H17      1.0000 0.93640  0.65150  0.52300  Biso   1.000  H
  C25      1.0000 0.95130  0.51980  0.53000  Biso   1.000  C
  H18      1.0000 0.93060  0.50040  0.50680  Biso   1.000  H
  C26      1.0000 0.97814  0.45760  0.55414  Biso   1.000  C
  C27      1.0000 0.00720  0.49030  0.58848  Biso   1.000  C
  H19      1.0000 0.02580  0.45030  0.60620  Biso   1.000  H
  C28      1.0000 0.00870  0.58070  0.59630  Biso   1.000  C
  H20      1.0000 0.02850  0.60200  0.61970  Biso   1.000  H
  N9       1.0000 0.12608  0.09290  0.61238  Biso   1.000  N
  C29      1.0000 0.09010  0.04660  0.59592  Biso   1.000  C
  H21      1.0000 0.09020  0.98330  0.59910  Biso   1.000  H
  C30      1.0000 0.05310  0.08800  0.57467  Biso   1.000  C
  H22      1.0000 0.02860  0.05370  0.56260  Biso   1.000  H
  C31      1.0000 0.05262  0.18040  0.57142  Biso   1.000  C
  C32      1.0000 0.08980  0.22790  0.58713  Biso   1.000  C
  H23      1.0000 0.09060  0.29120  0.58410  Biso   1.000  H
  C33      1.0000 0.12550  0.18140  0.60718  Biso   1.000  C
  H24      1.0000 0.15100  0.21400  0.61780  Biso   1.000  H
  C34      1.0000 0.95138  0.24260  0.50549  Biso   1.000  C
  N10      1.0000 0.94628  0.32850  0.51455  Biso   1.000  N
  C35      1.0000 0.97788  0.36160  0.54382  Biso   1.000  C
  N11      1.0000 0.01195  0.31560  0.56396  Biso   1.000  N
  C36      1.0000 0.01346  0.23090  0.55183  Biso   1.000  C
  N12      1.0000 0.98436  0.19070  0.52327  Biso   1.000  N
  N13      1.0000 0.94376  0.79180  0.61736  Biso   1.000  N
  C37      1.0000 0.93040  0.87610  0.62010  Biso   1.000  C
  H25      1.0000 0.94200  0.92320  0.60800  Biso   1.000  H
  C38      1.0000 0.90080  0.89650  0.63980  Biso   1.000  C
  H26      1.0000 0.89170  0.95670  0.64100  Biso   1.000  H
  C39      1.0000 0.88412  0.82890  0.65802  Biso   1.000  C
  C40      1.0000 0.89750  0.74130  0.65480  Biso   1.000  C
  H27      1.0000 0.88660  0.69300  0.66670  Biso   1.000  H
  C41      1.0000 0.92700  0.72620  0.63400  Biso   1.000  C
  H28      1.0000 0.93570  0.66630  0.63130  Biso   1.000  H
  N14      1.0000 0.71937  0.16410  0.64294  Biso   1.000  N
  C42      1.0000 0.74231  0.12710  0.62091  Biso   1.000  C
  H29      1.0000 0.74040  0.15160  0.59540  Biso   1.000  H
  C43      1.0000 0.76841  0.05530  0.63363  Biso   1.000  C
  H30      1.0000 0.78460  0.03100  0.61730  Biso   1.000  H
  C44      1.0000 0.77086  0.01840  0.67085  Biso   1.000  C
  C45      1.0000 0.74732  0.05690  0.69430  Biso   1.000  C
  H31      1.0000 0.74840  0.03310  0.71980  Biso   1.000  H
  C46      1.0000 0.72242  0.13010  0.67962  Biso   1.000  C
  H32      1.0000 0.70690  0.15780  0.69570  Biso   1.000  H
  N15      1.0000 0.80328  0.66200  0.82188  Biso   1.000  N
  C47      1.0000 0.83910  0.66020  0.81100  Biso   1.000  C
  H33      1.0000 0.86190  0.62460  0.82600  Biso   1.000  H
  C48      1.0000 0.84440  0.70830  0.77880  Biso   1.000  C
  H34      1.0000 0.87040  0.70550  0.77180  Biso   1.000  H
  C49      1.0000 0.81117  0.76080  0.75678  Biso   1.000  C
  C50      1.0000 0.77370  0.76150  0.76817  Biso   1.000  C
  H35      1.0000 0.75020  0.79610  0.75370  Biso   1.000  H
  C51      1.0000 0.77100  0.71160  0.80066  Biso   1.000  C
  H36      1.0000 0.74530  0.71250  0.80820  Biso   1.000  H
  C52      1.0000 0.85183  0.85030  0.67892  Biso   1.000  C
  N16      1.0000 0.82897  0.92420  0.66706  Biso   1.000  N
  C53      1.0000 0.79824  0.93880  0.68476  Biso   1.000  C
  N17      1.0000 0.79043  0.88750  0.71334  Biso   1.000  N
  C54      1.0000 0.81679  0.81700  0.72405  Biso   1.000  C
  N18      1.0000 0.84770  0.79570  0.70788  Biso   1.000  N
  N19      1.0000 0.62143  0.19530  0.60109  Biso   1.000  N
  C55      1.0000 0.58380  0.23740  0.58930  Biso   1.000  C
  H37      1.0000 0.58270  0.30030  0.59320  Biso   1.000  H
  C56      1.0000 0.54666  0.19210  0.57170  Biso   1.000  C
  H38      1.0000 0.52060  0.22350  0.56300  Biso   1.000  H
  C57      1.0000 0.54829  0.09930  0.56698  Biso   1.000  C
  C58      1.0000 0.58690  0.05560  0.57950  Biso   1.000  C
  H39      1.0000 0.58880  0.99250  0.57660  Biso   1.000  H
  C59      1.0000 0.62250  0.10610  0.59630  Biso   1.000  C
  H40      1.0000 0.64900  0.07630  0.60480  Biso   1.000  H
  N20      1.0000 0.35288  0.16900  0.41098  Biso   1.000  N
  C60      1.0000 0.38100  0.21530  0.43920  Biso   1.000  C
  H41      1.0000 0.37970  0.27900  0.43880  Biso   1.000  H
  C61      1.0000 0.41200  0.17370  0.46880  Biso   1.000  C
  H42      1.0000 0.43160  0.20810  0.48830  Biso   1.000  H
  C62      1.0000 0.41379  0.08010  0.46966  Biso   1.000  C
  C63      1.0000 0.38431  0.03190  0.44125  Biso   1.000  C
  H43      1.0000 0.38450  0.96820  0.44150  Biso   1.000  H
  C64      1.0000 0.35420  0.07930  0.41215  Biso   1.000  C
  H44      1.0000 0.33400  0.04660  0.39250  Biso   1.000  H
  N21      1.0000 0.47832  0.63600  0.56625  Biso   1.000  N
  C65      1.0000 0.50900  0.69230  0.58490  Biso   1.000  C
  H45      1.0000 0.53150  0.66970  0.60600  Biso   1.000  H
  C66      1.0000 0.50950  0.78160  0.57500  Biso   1.000  C
  H46      1.0000 0.53230  0.81900  0.58870  Biso   1.000  H
  C67      1.0000 0.47660  0.81640  0.54500  Biso   1.000  C
  C68      1.0000 0.44500  0.75800  0.52490  Biso   1.000  C
  H47      1.0000 0.42230  0.77890  0.50360  Biso   1.000  H
  C69      1.0000 0.44700  0.66870  0.53640  Biso   1.000  C
  C70      1.0000 0.51015  0.04660  0.54699  Biso   1.000  C
  N22      1.0000 0.47936  0.08860  0.51998  Biso   1.000  N
  C71      1.0000 0.44746  0.03490  0.50071  Biso   1.000  C
  N23      1.0000 0.44434  0.94710  0.50647  Biso   1.000  N
  C72      1.0000 0.47653  0.91300  0.53514  Biso   1.000  C
  N24      1.0000 0.50992  0.96000  0.55639  Biso   1.000  N
  N25      1.0000 0.43815  0.49730  0.61987  Biso   1.000  N
  C73      1.0000 0.42755  0.41460  0.62890  Biso   1.000  C
  H48      1.0000 0.44060  0.36420  0.62050  Biso   1.000  H
  C74      1.0000 0.39810  0.40100  0.65012  Biso   1.000  C
  H49      1.0000 0.39110  0.34180  0.65610  Biso   1.000  H
  C75      1.0000 0.37901  0.47380  0.66263  Biso   1.000  C
  C76      1.0000 0.39120  0.55870  0.65410  Biso   1.000  C
  H50      1.0000 0.37950  0.61020  0.66310  Biso   1.000  H
  C77      1.0000 0.42030  0.56800  0.63270  Biso   1.000  C
  H51      1.0000 0.42810  0.62660  0.62670  Biso   1.000  H
  N26      1.0000 0.30437  0.68390  0.82065  Biso   1.000  N
  C78      1.0000 0.27440  0.62200  0.80720  Biso   1.000  C
  H52      1.0000 0.25220  0.61700  0.81980  Biso   1.000  H
  C79      1.0000 0.27410  0.56500  0.77600  Biso   1.000  C
  H53      1.0000 0.25210  0.52200  0.76720  Biso   1.000  H
  C80      1.0000 0.30650  0.57190  0.75768  Biso   1.000  C
  C81      1.0000 0.33720  0.63720  0.77130  Biso   1.000  C
  H54      1.0000 0.35940  0.64470  0.75890  Biso   1.000  H
  C82      1.0000 0.33520  0.69070  0.80260  Biso   1.000  C
  H55      1.0000 0.35670  0.73430  0.81190  Biso   1.000  H
  N27      1.0000 0.21590  0.14230  0.67015  Biso   1.000  N
  C83      1.0000 0.21470  0.19740  0.70042  Biso   1.000  C
  H56      1.0000 0.19660  0.18280  0.71670  Biso   1.000  H
  C84      1.0000 0.23910  0.27510  0.70866  Biso   1.000  C
  H57      1.0000 0.23760  0.31280  0.73020  Biso   1.000  H
  C85      1.0000 0.26574  0.29720  0.68518  Biso   1.000  C
  C86      1.0000 0.26670  0.23970  0.65380  Biso   1.000  C
  H58      1.0000 0.28440  0.25270  0.63710  Biso   1.000  H
  C87      1.0000 0.24160  0.16340  0.64750  Biso   1.000  C
  H59      1.0000 0.24260  0.12460  0.62620  Biso   1.000  H
  C88      1.0000 0.34608  0.46060  0.68381  Biso   1.000  C
  N28      1.0000 0.34123  0.52360  0.70886  Biso   1.000  N
  C89      1.0000 0.31019  0.50910  0.72564  Biso   1.000  C
  N29      1.0000 0.28311  0.43960  0.71783  Biso   1.000  N
  C90      1.0000 0.29204  0.37940  0.69315  Biso   1.000  C
  N30      1.0000 0.32383  0.38390  0.67598  Biso   1.000  N
  N31      1.0000 0.35251  0.70610  0.91323  Biso   1.000  N
  C91      1.0000 0.38200  0.75450  0.93940  Biso   1.000  C
  H60      1.0000 0.38190  0.81780  0.93650  Biso   1.000  H
  C92      1.0000 0.41230  0.71560  0.97030  Biso   1.000  C
  H61      1.0000 0.43320  0.75140  0.98790  Biso   1.000  H
  C93      1.0000 0.41171  0.62350  0.97520  Biso   1.000  C
  C94      1.0000 0.38130  0.57340  0.94900  Biso   1.000  C
  H62      1.0000 0.38010  0.51010  0.95180  Biso   1.000  H
  C95      1.0000 0.35230  0.61820  0.91830  Biso   1.000  C
  H63      1.0000 0.33130  0.58380  0.90000  Biso   1.000  H
  N32      1.0000 0.48180  0.17950  0.06940  Biso   1.000  N
  C96      1.0000 0.44990  0.21200  0.04110  Biso   1.000  C
  H64      1.0000 0.42950  0.17120  0.02610  Biso   1.000  H
  C97      1.0000 0.44450  0.30240  0.03230  Biso   1.000  C
  H65      1.0000 0.42080  0.32280  0.01190  Biso   1.000  H
  C98      1.0000 0.47380  0.36160  0.05320  Biso   1.000  C
  C99      1.0000 0.50750  0.32850  0.08120  Biso   1.000  C
  H66      1.0000 0.52900  0.36780  0.09560  Biso   1.000  H
  C100     1.0000 0.51050  0.23760  0.08860  Biso   1.000  C
  H67      1.0000 0.53430  0.21580  0.10850  Biso   1.000  H
  N33      1.0000 0.61944  0.73260  0.11306  Biso   1.000  N
  C101     1.0000 0.61750  0.64340  0.11350  Biso   1.000  C
  H68      1.0000 0.64210  0.61060  0.12690  Biso   1.000  H
  C102     1.0000 0.58080  0.59690  0.09510  Biso   1.000  C
  H69      1.0000 0.58040  0.53320  0.09600  Biso   1.000  H
  C103     1.0000 0.54520  0.64310  0.07550  Biso   1.000  C
  C104     1.0000 0.54770  0.73580  0.07410  Biso   1.000  C
  H70      1.0000 0.52380  0.77020  0.06030  Biso   1.000  H
  C105     1.0000 0.58570  0.77740  0.09320  Biso   1.000  C
  H71      1.0000 0.58740  0.84090  0.09180  Biso   1.000  H
  C106     1.0000 0.44469  0.58100  0.00800  Biso   1.000  C
  N34      1.0000 0.44052  0.49320  0.01520  Biso   1.000  N
  C107     1.0000 0.47240  0.46060  0.04490  Biso   1.000  C
  N35      1.0000 0.50489  0.50760  0.06661  Biso   1.000  N
  C108     1.0000 0.50640  0.59230  0.05560  Biso   1.000  C
  N36      1.0000 0.47707  0.63340  0.02644  Biso   1.000  N
  N37      1.0000 0.30868  0.15820  0.31965  Biso   1.000  N
  C109     1.0000 0.27560  0.11030  0.29828  Biso   1.000  C
  H72      1.0000 0.24960  0.11320  0.30520  Biso   1.000  H
  C110     1.0000 0.27790  0.05730  0.26678  Biso   1.000  C
  H73      1.0000 0.25410  0.02320  0.25260  Biso   1.000  H
  C111     1.0000 0.31530  0.05420  0.25591  Biso   1.000  C
  C112     1.0000 0.34970  0.10460  0.27740  Biso   1.000  C
  H74      1.0000 0.37570  0.10420  0.27050  Biso   1.000  H
  C113     1.0000 0.34500  0.15510  0.30910  Biso   1.000  C
  H75      1.0000 0.36840  0.18910  0.32400  Biso   1.000  H
  N38      1.0000 0.21811  0.65360  0.14350  Biso   1.000  N
  C114     1.0000 0.22190  0.68820  0.17970  Biso   1.000  C
  H76      1.0000 0.20560  0.66330  0.19580  Biso   1.000  H
  C115     1.0000 0.24890  0.75960  0.19429  Biso   1.000  C
  H77      1.0000 0.25100  0.78320  0.22000  Biso   1.000  H
  C116     1.0000 0.27282  0.79580  0.17110  Biso   1.000  C
  C117     1.0000 0.27000  0.75770  0.13430  Biso   1.000  C
  H78      1.0000 0.28680  0.77990  0.11810  Biso   1.000  H
  C118     1.0000 0.24240  0.68660  0.12140  Biso   1.000  C
  H79      1.0000 0.24050  0.66050  0.09620  Biso   1.000  H
  N39      1.0000 0.44498  0.02210  0.11398  Biso   1.000  N
  C119     1.0000 0.43720  0.08030  0.13990  Biso   1.000  C
  H80      1.0000 0.45240  0.13520  0.14410  Biso   1.000  H
  C120     1.0000 0.40770  0.06440  0.16130  Biso   1.000  C
  H81      1.0000 0.40330  0.10710  0.17990  Biso   1.000  H
  C121     1.0000 0.38510  0.98520  0.15470  Biso   1.000  C
  C122     1.0000 0.39360  0.92390  0.12800  Biso   1.000  C
  H82      1.0000 0.37920  0.86800  0.12340  Biso   1.000  H
  C123     1.0000 0.42300  0.94530  0.10820  Biso   1.000  C
  H83      1.0000 0.42820  0.90350  0.08950  Biso   1.000  H
  C124     1.0000 0.32030  0.99600  0.22307  Biso   1.000  C
  N40      1.0000 0.29330  0.92700  0.21278  Biso   1.000  N
  C125     1.0000 0.30024  0.87590  0.18379  Biso   1.000  C
  N41      1.0000 0.32924  0.89110  0.16445  Biso   1.000  N
  C126     1.0000 0.35360  0.96330  0.17675  Biso   1.000  C
  N42      1.0000 0.35106  0.01640  0.20640  Biso   1.000  N
  N43      1.0000 0.11789  0.62310  0.10637  Biso   1.000  N
  C127     1.0000 0.08150  0.57920  0.09190  Biso   1.000  C
  H84      1.0000 0.08150  0.51550  0.09340  Biso   1.000  H
  C128     1.0000 0.04366  0.62270  0.07490  Biso   1.000  C
  H85      1.0000 0.01830  0.58950  0.06450  Biso   1.000  H
  C129     1.0000 0.04332  0.71550  0.07335  Biso   1.000  C
  C130     1.0000 0.08090  0.76160  0.08950  Biso   1.000  C
  H86      1.0000 0.08140  0.82520  0.08990  Biso   1.000  H
  C131     1.0000 0.11780  0.71260  0.10510  Biso   1.000  C
  H87      1.0000 0.14380  0.74380  0.11510  Biso   1.000  H
  N44      1.0000 0.84807  0.64940  0.91322  Biso   1.000  N
  C132     1.0000 0.88180  0.60300  0.93489  Biso   1.000  C
  H88      1.0000 0.88370  0.54080  0.92980  Biso   1.000  H
  C133     1.0000 0.91370  0.64290  0.96440  Biso   1.000  C
  H89      1.0000 0.93720  0.60870  0.97930  Biso   1.000  H
  C134     1.0000 0.91083  0.73360  0.97191  Biso   1.000  C
  C135     1.0000 0.87640  0.78260  0.94909  Biso   1.000  C
  H90      1.0000 0.87400  0.84520  0.95310  Biso   1.000  H
  C136     1.0000 0.84590  0.73730  0.92049  Biso   1.000  C
  H91      1.0000 0.82220  0.77010  0.90520  Biso   1.000  H
  N45      1.0000 0.97259  0.17750  0.06756  Biso   1.000  N
  C137     1.0000 0.99580  0.11940  0.09350  Biso   1.000  C
  H92      1.0000 0.01360  0.14170  0.11790  Biso   1.000  H
  C138     1.0000 0.99520  0.02830  0.08660  Biso   1.000  C
  H93      1.0000 0.01260  0.98900  0.10560  Biso   1.000  H
  C139     1.0000 0.96854  0.99480  0.05127  Biso   1.000  C
  C140     1.0000 0.94320  0.05480  0.02518  Biso   1.000  C
  H94      1.0000 0.92380  0.03420  0.00140  Biso   1.000  H
  C141     1.0000 0.94660  0.14590  0.03410  Biso   1.000  C
  H95      1.0000 0.92970  0.18700  0.01560  Biso   1.000  H
  C142     1.0000 0.00500  0.76690  0.05298  Biso   1.000  C
  N46      1.0000 0.97631  0.72590  0.02357  Biso   1.000  N
  C143     1.0000 0.94371  0.77740  0.00437  Biso   1.000  C
  N47      1.0000 0.93895  0.86400  0.01201  Biso   1.000  N
  C144     1.0000 0.96958  0.89790  0.04208  Biso   1.000  C
  N48      1.0000 0.00261  0.85190  0.06430  Biso   1.000  N
  N49      1.0000 0.06161  0.83630  0.88606  Biso   1.000  N
  I25      1.0000 0.04455  0.90680  0.98260  Biso   1.000  I
  Zn13     1.0000 0.01919  0.81435  0.91905  Biso   1.000  Zn
  C145     1.0000 0.07480  0.92010  0.88130  Biso   1.000  C
  H96      1.0000 0.06380  0.96860  0.89300  Biso   1.000  H
  I26      1.0000 0.94437  0.82989  0.87375  Biso   1.000  I
  Zn14     1.0000 0.32879  0.29335  0.84794  Biso   1.000  Zn
  C146     1.0000 0.10380  0.93810  0.86010  Biso   1.000  C
  H97      1.0000 0.11260  0.99790  0.85750  Biso   1.000  H
  I27      1.0000 0.29249  0.40029  0.88508  Biso   1.000  I
  Zn15     1.0000 0.18051  0.55258  0.63778  Biso   1.000  Zn
  C147     1.0000 0.11981  0.86730  0.84262  Biso   1.000  C
  I28      1.0000 0.35923  0.32307  0.78969  Biso   1.000  I
  Zn16     1.0000 0.01019  0.27396  0.41234  Biso   1.000  Zn
  C148     1.0000 0.10570  0.78050  0.84730  Biso   1.000  C
  H98      1.0000 0.11580  0.73050  0.83570  Biso   1.000  H
  I29      1.0000 0.24727  0.54586  0.61532  Biso   1.000  I
  Zn17     1.0000 0.82529  0.53392  0.34458  Biso   1.000  Zn
  C149     1.0000 0.07680  0.76930  0.86930  Biso   1.000  C
  H99      1.0000 0.06730  0.71030  0.87250  Biso   1.000  H
  I30      1.0000 0.14288  0.41324  0.65440  Biso   1.000  I
  Zn18     1.0000 0.32261  0.76647  0.37972  Biso   1.000  Zn
  N50      1.0000 0.28763  0.18390  0.83314  Biso   1.000  N
  I31      1.0000 0.94009  0.30375  0.36094  Biso   1.000  I
  Zn19     1.0000 0.69238  0.73771  0.63204  Biso   1.000  Zn
  C150     1.0000 0.26750  0.15660  0.85940  Biso   1.000  C
  H100     1.0000 0.27170  0.18870  0.88360  Biso   1.000  H
  I32      1.0000 0.03584  0.37720  0.47263  Biso   1.000  I
  Zn20     1.0000 0.51908  0.00521  0.41348  Biso   1.000  Zn
  C151     1.0000 0.24070  0.08300  0.85250  Biso   1.000  C
  H101     1.0000 0.22660  0.06500  0.87170  Biso   1.000  H
  I33      1.0000 0.86107  0.51101  0.28913  Biso   1.000  I
  Zn21     1.0000 0.69372  0.26691  0.13138  Biso   1.000  Zn
  C152     1.0000 0.23476  0.03630  0.81712  Biso   1.000  C
  I34      1.0000 0.78853  0.41548  0.37554  Biso   1.000  I
  Zn22     1.0000 0.82500  0.05409  0.88048  Biso   1.000  Zn
  C153     1.0000 0.25590  0.06460  0.78967  Biso   1.000  C
  H102     1.0000 0.25250  0.03370  0.76520  Biso   1.000  H
  I35      1.0000 0.30850  0.82497  0.44393  Biso   1.000  I
  Zn23     1.0000 0.50978  0.54434  0.91612  Biso   1.000  Zn
  C154     1.0000 0.28209  0.13890  0.79893  Biso   1.000  C
  H103     1.0000 0.29660  0.15860  0.78030  Biso   1.000  H
  I36      1.0000 0.32516  0.87322  0.32500  Biso   1.000  I
  Zn24     1.0000 0.19985  0.08765  0.12899  Biso   1.000  Zn
  N51      1.0000 0.18661  0.64010  0.68528  Biso   1.000  N
  I37      1.0000 0.76208  0.72831  0.61469  Biso   1.000  I
  C155     1.0000 0.15910  0.63320  0.70700  Biso   1.000  C
  H104     1.0000 0.13880  0.58630  0.70100  Biso   1.000  H
  I38      1.0000 0.65870  0.88464  0.64513  Biso   1.000  I
  C156     1.0000 0.15870  0.69080  0.73760  Biso   1.000  C
  H105     1.0000 0.13930  0.68230  0.75310  Biso   1.000  H
  I39      1.0000 0.54768  0.89826  0.47197  Biso   1.000  I
  C157     1.0000 0.18737  0.76190  0.74535  Biso   1.000  C
  I40      1.0000 0.44648  0.97646  0.36526  Biso   1.000  I
  C158     1.0000 0.21620  0.76940  0.72307  Biso   1.000  C
  H106     1.0000 0.23650  0.81640  0.72810  Biso   1.000  H
  I41      1.0000 0.65984  0.41321  0.14558  Biso   1.000  I
  C159     1.0000 0.21500  0.70670  0.69314  Biso   1.000  C
  H107     1.0000 0.23490  0.71150  0.67790  Biso   1.000  H
  I42      1.0000 0.76256  0.25298  0.11224  Biso   1.000  I
  C160     1.0000 0.15204  0.87990  0.82056  Biso   1.000  C
  I43      1.0000 0.81908  0.01669  0.95058  Biso   1.000  I
  N52      1.0000 0.17633  0.95350  0.82831  Biso   1.000  N
  I44      1.0000 0.82228  0.93566  0.82920  Biso   1.000  I
  C161     1.0000 0.20695  0.95610  0.80977  Biso   1.000  C
  I45      1.0000 0.53532  0.45003  0.97905  Biso   1.000  I
  N53      1.0000 0.21388  0.89470  0.78418  Biso   1.000  N
  I46      1.0000 0.43747  0.52592  0.86675  Biso   1.000  I
  C162     1.0000 0.18525  0.82720  0.77669  Biso   1.000  C
  I47      1.0000 0.27062  0.11250  0.11501  Biso   1.000  I
  N54      1.0000 0.15447  0.81650  0.79430  Biso   1.000  N
  I48      1.0000 0.17174  0.93390  0.14144  Biso   1.000  I
  N55      1.0000 0.13700  0.61720  0.59189  Biso   1.000  N
  C163     1.0000 0.10720  0.56930  0.56600  Biso   1.000  C
  H108     1.0000 0.10570  0.50650  0.57000  Biso   1.000  H
  C164     1.0000 0.07860  0.60850  0.53390  Biso   1.000  C
  H109     1.0000 0.05760  0.57320  0.51620  Biso   1.000  H
  C165     1.0000 0.08098  0.69930  0.52785  Biso   1.000  C
  C166     1.0000 0.11180  0.74940  0.55370  Biso   1.000  C
  H110     1.0000 0.11430  0.81200  0.54990  Biso   1.000  H
  C167     1.0000 0.13920  0.70490  0.58577  Biso   1.000  C
  H111     1.0000 0.16040  0.73870  0.60400  Biso   1.000  H
  N56      1.0000 0.01656  0.14020  0.42754  Biso   1.000  N
  C168     1.0000 0.04520  0.10990  0.46013  Biso   1.000  C
  H112     1.0000 0.06360  0.15150  0.47700  Biso   1.000  H
  C169     1.0000 0.04870  0.01980  0.47000  Biso   1.000  C
  H113     1.0000 0.06940  0.00040  0.49320  Biso   1.000  H
  C170     1.0000 0.02186  0.95760  0.44586  Biso   1.000  C
  C171     1.0000 0.99280  0.99030  0.41152  Biso   1.000  C
  H114     1.0000 0.97420  0.95030  0.39380  Biso   1.000  H
  C172     1.0000 0.99130  0.08070  0.40370  Biso   1.000  C
  H115     1.0000 0.97150  0.10200  0.38030  Biso   1.000  H
  N57      1.0000 0.87392  0.59290  0.38762  Biso   1.000  N
  C173     1.0000 0.90990  0.54660  0.40408  Biso   1.000  C
  H116     1.0000 0.90980  0.48330  0.40090  Biso   1.000  H
  C174     1.0000 0.94690  0.58800  0.42533  Biso   1.000  C
  H117     1.0000 0.97140  0.55370  0.43740  Biso   1.000  H
  C175     1.0000 0.94738  0.68040  0.42858  Biso   1.000  C
  C176     1.0000 0.91020  0.72790  0.41287  Biso   1.000  C
  H118     1.0000 0.90940  0.79120  0.41590  Biso   1.000  H
  C177     1.0000 0.87450  0.68140  0.39282  Biso   1.000  C
  H119     1.0000 0.84900  0.71400  0.38220  Biso   1.000  H
  C178     1.0000 0.04862  0.74260  0.49451  Biso   1.000  C
  N58      1.0000 0.05372  0.82850  0.48545  Biso   1.000  N
  C179     1.0000 0.02212  0.86160  0.45618  Biso   1.000  C
  N59      1.0000 0.98805  0.81560  0.43604  Biso   1.000  N
  C180     1.0000 0.98654  0.73090  0.44817  Biso   1.000  C
  N60      1.0000 0.01564  0.69070  0.47673  Biso   1.000  N
  N61      1.0000 0.05624  0.29180  0.38264  Biso   1.000  N
  C181     1.0000 0.06960  0.37610  0.37990  Biso   1.000  C
  H120     1.0000 0.05800  0.42320  0.39200  Biso   1.000  H
  C182     1.0000 0.09920  0.39650  0.36020  Biso   1.000  C
  H121     1.0000 0.10830  0.45670  0.35900  Biso   1.000  H
  C183     1.0000 0.11588  0.32890  0.34198  Biso   1.000  C
  C184     1.0000 0.10250  0.24130  0.34520  Biso   1.000  C
  H122     1.0000 0.11340  0.19300  0.33330  Biso   1.000  H
  C185     1.0000 0.07300  0.22620  0.36600  Biso   1.000  C
  H123     1.0000 0.06430  0.16630  0.36870  Biso   1.000  H
  N62      1.0000 0.28063  0.66410  0.35706  Biso   1.000  N
  C186     1.0000 0.25769  0.62710  0.37909  Biso   1.000  C
  H124     1.0000 0.25960  0.65160  0.40460  Biso   1.000  H
  C187     1.0000 0.23159  0.55530  0.36637  Biso   1.000  C
  H125     1.0000 0.21540  0.53100  0.38270  Biso   1.000  H
  C188     1.0000 0.22914  0.51840  0.32915  Biso   1.000  C
  C189     1.0000 0.25268  0.55690  0.30570  Biso   1.000  C
  H126     1.0000 0.25160  0.53310  0.28020  Biso   1.000  H
  C190     1.0000 0.27758  0.63010  0.32038  Biso   1.000  C
  H127     1.0000 0.29310  0.65780  0.30430  Biso   1.000  H
  N63      1.0000 0.19672  0.16200  0.17812  Biso   1.000  N
  C191     1.0000 0.16090  0.16020  0.18900  Biso   1.000  C
  H128     1.0000 0.13810  0.12460  0.17400  Biso   1.000  H
  C192     1.0000 0.15560  0.20830  0.22120  Biso   1.000  C
  H129     1.0000 0.12960  0.20550  0.22820  Biso   1.000  H
  C193     1.0000 0.18883  0.26080  0.24322  Biso   1.000  C
  C194     1.0000 0.22630  0.26150  0.23183  Biso   1.000  C
  H130     1.0000 0.24980  0.29610  0.24630  Biso   1.000  H
  C195     1.0000 0.22900  0.21160  0.19934  Biso   1.000  C
  H131     1.0000 0.25470  0.21250  0.19180  Biso   1.000  H
  C196     1.0000 0.14817  0.35030  0.32108  Biso   1.000  C
  N64      1.0000 0.17103  0.42420  0.33294  Biso   1.000  N
  C197     1.0000 0.20176  0.43880  0.31524  Biso   1.000  C
  N65      1.0000 0.20957  0.38750  0.28666  Biso   1.000  N
  C198     1.0000 0.18321  0.31700  0.27595  Biso   1.000  C
  N66      1.0000 0.15230  0.29570  0.29212  Biso   1.000  N
  N67      1.0000 0.37857  0.69530  0.39891  Biso   1.000  N
  C199     1.0000 0.41620  0.73740  0.41070  Biso   1.000  C
  H132     1.0000 0.41730  0.80030  0.40680  Biso   1.000  H
  C200     1.0000 0.45334  0.69210  0.42830  Biso   1.000  C
  H133     1.0000 0.47940  0.72350  0.43700  Biso   1.000  H
  C201     1.0000 0.45171  0.59930  0.43302  Biso   1.000  C
  C202     1.0000 0.41310  0.55560  0.42050  Biso   1.000  C
  H134     1.0000 0.41120  0.49250  0.42340  Biso   1.000  H
  C203     1.0000 0.37750  0.60610  0.40370  Biso   1.000  C
  H135     1.0000 0.35100  0.57630  0.39520  Biso   1.000  H
  N68      1.0000 0.64712  0.66900  0.58902  Biso   1.000  N
  C204     1.0000 0.61900  0.71530  0.56080  Biso   1.000  C
  H136     1.0000 0.62030  0.77900  0.56120  Biso   1.000  H
  C205     1.0000 0.58800  0.67370  0.53120  Biso   1.000  C
  H137     1.0000 0.56840  0.70810  0.51170  Biso   1.000  H
  C206     1.0000 0.58621  0.58010  0.53034  Biso   1.000  C
  C207     1.0000 0.61569  0.53190  0.55875  Biso   1.000  C
  H138     1.0000 0.61550  0.46820  0.55850  Biso   1.000  H
  C208     1.0000 0.64580  0.57930  0.58785  Biso   1.000  C
  H139     1.0000 0.66600  0.54660  0.60750  Biso   1.000  H
  N69      1.0000 0.52168  0.13600  0.43375  Biso   1.000  N
  C209     1.0000 0.49100  0.19230  0.41510  Biso   1.000  C
  H140     1.0000 0.46850  0.16970  0.39400  Biso   1.000  H
  C210     1.0000 0.49050  0.28160  0.42500  Biso   1.000  C
  H141     1.0000 0.46770  0.31900  0.41130  Biso   1.000  H
  C211     1.0000 0.52340  0.31640  0.45500  Biso   1.000  C
  C212     1.0000 0.55500  0.25800  0.47510  Biso   1.000  C
  H142     1.0000 0.57770  0.27890  0.49640  Biso   1.000  H
  C213     1.0000 0.55300  0.16870  0.46360  Biso   1.000  C
  C214     1.0000 0.48985  0.54660  0.45301  Biso   1.000  C
  N70      1.0000 0.52064  0.58860  0.48002  Biso   1.000  N
  C215     1.0000 0.55254  0.53490  0.49929  Biso   1.000  C
  N71      1.0000 0.55566  0.44710  0.49353  Biso   1.000  N
  C216     1.0000 0.52347  0.41300  0.46486  Biso   1.000  C
  N72      1.0000 0.49008  0.46000  0.44361  Biso   1.000  N
  N73      1.0000 0.56185  0.99730  0.38013  Biso   1.000  N
  C217     1.0000 0.57245  0.91460  0.37110  Biso   1.000  C
  H143     1.0000 0.55940  0.86420  0.37950  Biso   1.000  H
  C218     1.0000 0.60190  0.90100  0.34988  Biso   1.000  C
  H144     1.0000 0.60890  0.84180  0.34390  Biso   1.000  H
  C219     1.0000 0.62099  0.97380  0.33737  Biso   1.000  C
  C220     1.0000 0.60880  0.05870  0.34590  Biso   1.000  C
  H145     1.0000 0.62050  0.11020  0.33690  Biso   1.000  H
  C221     1.0000 0.57970  0.06800  0.36730  Biso   1.000  C
  H146     1.0000 0.57190  0.12660  0.37330  Biso   1.000  H
  N74      1.0000 0.69563  0.18390  0.17935  Biso   1.000  N
  C222     1.0000 0.72560  0.12200  0.19280  Biso   1.000  C
  H147     1.0000 0.74780  0.11700  0.18020  Biso   1.000  H
  C223     1.0000 0.72590  0.06500  0.22400  Biso   1.000  C
  H148     1.0000 0.74790  0.02200  0.23280  Biso   1.000  H
  C224     1.0000 0.69350  0.07190  0.24232  Biso   1.000  C
  C225     1.0000 0.66280  0.13720  0.22870  Biso   1.000  C
  H149     1.0000 0.64060  0.14470  0.24110  Biso   1.000  H
  C226     1.0000 0.66480  0.19070  0.19740  Biso   1.000  C
  H150     1.0000 0.64330  0.23430  0.18810  Biso   1.000  H
  N75      1.0000 0.78410  0.64230  0.32985  Biso   1.000  N
  C227     1.0000 0.78530  0.69740  0.29958  Biso   1.000  C
  H151     1.0000 0.80340  0.68280  0.28330  Biso   1.000  H
  C228     1.0000 0.76090  0.77510  0.29134  Biso   1.000  C
  H152     1.0000 0.76240  0.81280  0.26980  Biso   1.000  H
  C229     1.0000 0.73426  0.79720  0.31482  Biso   1.000  C
  C230     1.0000 0.73330  0.73970  0.34620  Biso   1.000  C
  H153     1.0000 0.71560  0.75270  0.36290  Biso   1.000  H
  C231     1.0000 0.75840  0.66340  0.35250  Biso   1.000  C
  H154     1.0000 0.75740  0.62460  0.37380  Biso   1.000  H
  C232     1.0000 0.65392  0.96060  0.31619  Biso   1.000  C
  N76      1.0000 0.65877  0.02360  0.29114  Biso   1.000  N
  C233     1.0000 0.68981  0.00910  0.27436  Biso   1.000  C
  N77      1.0000 0.71689  0.93960  0.28217  Biso   1.000  N
  C234     1.0000 0.70796  0.87940  0.30685  Biso   1.000  C
  N78      1.0000 0.67617  0.88390  0.32402  Biso   1.000  N
  N79      1.0000 0.64749  0.20610  0.08677  Biso   1.000  N
  C235     1.0000 0.61800  0.25450  0.06060  Biso   1.000  C
  H155     1.0000 0.61810  0.31780  0.06350  Biso   1.000  H
  C236     1.0000 0.58770  0.21560  0.02970  Biso   1.000  C
  H156     1.0000 0.56680  0.25140  0.01210  Biso   1.000  H
  C237     1.0000 0.58829  0.12350  0.02480  Biso   1.000  C
  C238     1.0000 0.61870  0.07340  0.05100  Biso   1.000  C
  H157     1.0000 0.61990  0.01010  0.04820  Biso   1.000  H
  C239     1.0000 0.64770  0.11820  0.08170  Biso   1.000  C
  H158     1.0000 0.66870  0.08380  0.10000  Biso   1.000  H
  N80      1.0000 0.51820  0.67950  0.93060  Biso   1.000  N
  C240     1.0000 0.55010  0.71200  0.95890  Biso   1.000  C
  H159     1.0000 0.57050  0.67120  0.97390  Biso   1.000  H
  C241     1.0000 0.55550  0.80240  0.96770  Biso   1.000  C
  H160     1.0000 0.57920  0.82280  0.98810  Biso   1.000  H
  C242     1.0000 0.52620  0.86160  0.94680  Biso   1.000  C
  C243     1.0000 0.49250  0.82850  0.91880  Biso   1.000  C
  H161     1.0000 0.47100  0.86780  0.90440  Biso   1.000  H
  C244     1.0000 0.48950  0.73760  0.91140  Biso   1.000  C
  H162     1.0000 0.46570  0.71580  0.89150  Biso   1.000  H
  N81      1.0000 0.38056  0.23260  0.88694  Biso   1.000  N
  C245     1.0000 0.38250  0.14340  0.88650  Biso   1.000  C
  H163     1.0000 0.35790  0.11060  0.87310  Biso   1.000  H
  C246     1.0000 0.41920  0.09690  0.90490  Biso   1.000  C
  H164     1.0000 0.41960  0.03320  0.90400  Biso   1.000  H
  C247     1.0000 0.45480  0.14310  0.92450  Biso   1.000  C
  C248     1.0000 0.45230  0.23580  0.92590  Biso   1.000  C
  H165     1.0000 0.47620  0.27020  0.93970  Biso   1.000  H
  C249     1.0000 0.41430  0.27740  0.90680  Biso   1.000  C
  H166     1.0000 0.41260  0.34090  0.90820  Biso   1.000  H
  C250     1.0000 0.55531  0.08100  0.99200  Biso   1.000  C
  N82      1.0000 0.55948  0.99320  0.98480  Biso   1.000  N
  C251     1.0000 0.52760  0.96060  0.95510  Biso   1.000  C
  N83      1.0000 0.49511  0.00760  0.93339  Biso   1.000  N
  C252     1.0000 0.49360  0.09230  0.94440  Biso   1.000  C
  N84      1.0000 0.52293  0.13340  0.97356  Biso   1.000  N
  N85      1.0000 0.69132  0.65820  0.68035  Biso   1.000  N
  C253     1.0000 0.72440  0.61030  0.70172  Biso   1.000  C
  H167     1.0000 0.75040  0.61320  0.69480  Biso   1.000  H
  C254     1.0000 0.72210  0.55730  0.73322  Biso   1.000  C
  H168     1.0000 0.74590  0.52320  0.74740  Biso   1.000  H
  C255     1.0000 0.68470  0.55420  0.74409  Biso   1.000  C
  C256     1.0000 0.65030  0.60460  0.72260  Biso   1.000  C
  H169     1.0000 0.62430  0.60420  0.72950  Biso   1.000  H
  C257     1.0000 0.65500  0.65510  0.69090  Biso   1.000  C
  H170     1.0000 0.63160  0.68910  0.67600  Biso   1.000  H
  N86      1.0000 0.78189  0.15360  0.85650  Biso   1.000  N
  C258     1.0000 0.77810  0.18820  0.82030  Biso   1.000  C
  H171     1.0000 0.79440  0.16330  0.80420  Biso   1.000  H
  C259     1.0000 0.75110  0.25960  0.80571  Biso   1.000  C
  H172     1.0000 0.74900  0.28320  0.78000  Biso   1.000  H
  C260     1.0000 0.72718  0.29580  0.82890  Biso   1.000  C
  C261     1.0000 0.73000  0.25770  0.86570  Biso   1.000  C
  H173     1.0000 0.71320  0.27990  0.88190  Biso   1.000  H
  C262     1.0000 0.75760  0.18660  0.87860  Biso   1.000  C
  H174     1.0000 0.75950  0.16050  0.90380  Biso   1.000  H
  N87      1.0000 0.55502  0.52210  0.88602  Biso   1.000  N
  C263     1.0000 0.56280  0.58030  0.86010  Biso   1.000  C
  H175     1.0000 0.54760  0.63520  0.85590  Biso   1.000  H
  C264     1.0000 0.59230  0.56440  0.83870  Biso   1.000  C
  H176     1.0000 0.59670  0.60710  0.82010  Biso   1.000  H
  C265     1.0000 0.61490  0.48520  0.84530  Biso   1.000  C
  C266     1.0000 0.60640  0.42390  0.87200  Biso   1.000  C
  H177     1.0000 0.62080  0.36800  0.87660  Biso   1.000  H
  C267     1.0000 0.57700  0.44530  0.89180  Biso   1.000  C
  H178     1.0000 0.57180  0.40350  0.91050  Biso   1.000  H
  C268     1.0000 0.67970  0.49600  0.77693  Biso   1.000  C
  N88      1.0000 0.70670  0.42700  0.78722  Biso   1.000  N
  C269     1.0000 0.69976  0.37590  0.81621  Biso   1.000  C
  N89      1.0000 0.67076  0.39110  0.83555  Biso   1.000  N
  C270     1.0000 0.64640  0.46330  0.82325  Biso   1.000  C
  N90      1.0000 0.64894  0.51640  0.79360  Biso   1.000  N
  N91      1.0000 0.88211  0.12310  0.89363  Biso   1.000  N
  C271     1.0000 0.91850  0.07920  0.90810  Biso   1.000  C
  H179     1.0000 0.91850  0.01550  0.90660  Biso   1.000  H
  C272     1.0000 0.95634  0.12270  0.92510  Biso   1.000  C
  H180     1.0000 0.98170  0.08950  0.93550  Biso   1.000  H
  C273     1.0000 0.95668  0.21550  0.92665  Biso   1.000  C
  C274     1.0000 0.91910  0.26160  0.91050  Biso   1.000  C
  H181     1.0000 0.91860  0.32520  0.91010  Biso   1.000  H
  C275     1.0000 0.88220  0.21260  0.89490  Biso   1.000  C
  H182     1.0000 0.85620  0.24380  0.88490  Biso   1.000  H
  N92      1.0000 0.15193  0.14940  0.08678  Biso   1.000  N
  C276     1.0000 0.11820  0.10300  0.06511  Biso   1.000  C
  H183     1.0000 0.11630  0.04080  0.07020  Biso   1.000  H
  C277     1.0000 0.08630  0.14290  0.03560  Biso   1.000  C
  H184     1.0000 0.06280  0.10870  0.02070  Biso   1.000  H
  C278     1.0000 0.08917  0.23360  0.02809  Biso   1.000  C
  C279     1.0000 0.12360  0.28260  0.05091  Biso   1.000  C
  H185     1.0000 0.12600  0.34520  0.04690  Biso   1.000  H
  C280     1.0000 0.15410  0.23730  0.07951  Biso   1.000  C
  H186     1.0000 0.17780  0.27010  0.09480  Biso   1.000  H
  N93      1.0000 0.02741  0.67750  0.93244  Biso   1.000  N
  C281     1.0000 0.00420  0.61940  0.90650  Biso   1.000  C
  H187     1.0000 0.98640  0.64170  0.88210  Biso   1.000  H
  C282     1.0000 0.00480  0.52830  0.91340  Biso   1.000  C
  H188     1.0000 0.98740  0.48900  0.89440  Biso   1.000  H
  C283     1.0000 0.03146  0.49480  0.94873  Biso   1.000  C
  C284     1.0000 0.05680  0.55480  0.97482  Biso   1.000  C
  H189     1.0000 0.07620  0.53420  0.99860  Biso   1.000  H
  C285     1.0000 0.05340  0.64590  0.96590  Biso   1.000  C
  H190     1.0000 0.07030  0.68700  0.98440  Biso   1.000  H
  C286     1.0000 0.99500  0.26690  0.94702  Biso   1.000  C
  N94      1.0000 0.02369  0.22590  0.97643  Biso   1.000  N
  C287     1.0000 0.05629  0.27740  0.99563  Biso   1.000  C
  N95      1.0000 0.06105  0.36400  0.98799  Biso   1.000  N
  C288     1.0000 0.03042  0.39790  0.95792  Biso   1.000  C
  N96      1.0000 0.99739  0.35190  0.93570  Biso   1.000  N
