data_LABPUB_clean
_audit_creation_date              2014-07-02
_audit_creation_method            'Materials Studio'
_symmetry_space_group_name_H-M    'P1'
_symmetry_Int_Tables_number       1
_symmetry_cell_setting            triclinic
loop_
_symmetry_equiv_pos_as_xyz
  x,y,z
_cell_length_a                    7.0900
_cell_length_b                    20.9100
_cell_length_c                    27.8230
_cell_angle_alpha                 107.6110
_cell_angle_beta                  90.0000
_cell_angle_gamma                 90.0000
loop_
_atom_site_label
_atom_site_type_symbol
_atom_site_fract_x
_atom_site_fract_y
_atom_site_fract_z
_atom_site_U_iso_or_equiv
_atom_site_adp_type
_atom_site_occupancy
Sm1    Sm    0.87277   0.91035   0.66149   0.01267  Uiso   1.00
Sm2    Sm    0.08665   0.74695   0.20675   0.01267  Uiso   1.00
Sm3    Sm    0.37277   0.08965   0.83851   0.01267  Uiso   1.00
Sm4    Sm    0.58665   0.25305   0.29325   0.01267  Uiso   1.00
Sm5    Sm    0.12723   0.08965   0.33851   0.01267  Uiso   1.00
Sm6    Sm    0.91335   0.25305   0.79325   0.01267  Uiso   1.00
Sm7    Sm    0.62723   0.91035   0.16149   0.01267  Uiso   1.00
Sm8    Sm    0.41335   0.74695   0.70675   0.01267  Uiso   1.00
P1     P     0.95937   0.91779   0.27272   0.01267  Uiso   1.00
P2     P     0.91364   0.75047   0.67951   0.01267  Uiso   1.00
P3     P     0.37753   0.86332   0.62631   0.01267  Uiso   1.00
P4     P     0.45937   0.08221   0.22728   0.01267  Uiso   1.00
P5     P     0.41364   0.24953   0.82049   0.01267  Uiso   1.00
P6     P     0.87753   0.13668   0.87369   0.01267  Uiso   1.00
P7     P     0.04063   0.08221   0.72728   0.01267  Uiso   1.00
P8     P     0.08636   0.24953   0.32049   0.01267  Uiso   1.00
P9     P     0.62247   0.13668   0.37369   0.01267  Uiso   1.00
P10    P     0.54063   0.91779   0.77272   0.01267  Uiso   1.00
P11    P     0.58636   0.75047   0.17951   0.01267  Uiso   1.00
P12    P     0.12247   0.86332   0.12631   0.01267  Uiso   1.00
H1     H     0.65010   0.98750   0.32330   0.01267  Uiso   1.00
H2     H     0.81200   0.62070   0.68620   0.01267  Uiso   1.00
H3     H     0.01700   0.61960   0.68810   0.01267  Uiso   1.00
H4     H     0.16050   0.76520   0.58550   0.01267  Uiso   1.00
H5     H     0.07390   0.79390   0.54960   0.01267  Uiso   1.00
H6     H     0.88340   0.90310   0.35020   0.01267  Uiso   1.00
H7     H     0.75200   0.85790   0.30800   0.01267  Uiso   1.00
H8     H     0.43200   0.98060   0.38260   0.01267  Uiso   1.00
H9     H     0.44500   0.90300   0.35670   0.01267  Uiso   1.00
H10    H     0.55150   0.83700   0.40500   0.01267  Uiso   1.00
H11    H     0.68390   0.82390   0.47790   0.01267  Uiso   1.00
H12    H     0.81820   0.01820   0.52320   0.01267  Uiso   1.00
H13    H     0.69870   0.03030   0.44940   0.01267  Uiso   1.00
H14    H     0.82230   0.65600   0.61490   0.01267  Uiso   1.00
H15    H     0.04270   0.65790   0.61970   0.01267  Uiso   1.00
H16    H     0.02930   0.53500   0.61130   0.01267  Uiso   1.00
H17    H     0.80770   0.53550   0.61050   0.01267  Uiso   1.00
H18    H     0.63360   0.49330   0.67360   0.01267  Uiso   1.00
H19    H     0.63620   0.42850   0.72740   0.01267  Uiso   1.00
H20    H     0.19310   0.40770   0.71170   0.01267  Uiso   1.00
H21    H     0.19180   0.47310   0.65820   0.01267  Uiso   1.00
H22    H     0.99140   0.76580   0.38180   0.01267  Uiso   1.00
H23    H     0.95370   0.74850   0.45960   0.01267  Uiso   1.00
H24    H     0.29390   0.68080   0.52320   0.01267  Uiso   1.00
H25    H     0.07430   0.68090   0.51620   0.01267  Uiso   1.00
H26    H     0.45370   0.79120   0.54600   0.01267  Uiso   1.00
H27    H     0.31960   0.84860   0.54050   0.01267  Uiso   1.00
H28    H     0.48000   0.68040   0.45290   0.01267  Uiso   1.00
H29    H     0.51980   0.69660   0.37470   0.01267  Uiso   1.00
H30    H     0.45440   0.74990   0.27690   0.01267  Uiso   1.00
H31    H     0.15010   0.01250   0.17670   0.01267  Uiso   1.00
H32    H     0.31200   0.37930   0.81380   0.01267  Uiso   1.00
H33    H     0.51700   0.38040   0.81190   0.01267  Uiso   1.00
H34    H     0.66050   0.23480   0.91450   0.01267  Uiso   1.00
H35    H     0.57390   0.20610   0.95040   0.01267  Uiso   1.00
H36    H     0.38340   0.09690   0.14980   0.01267  Uiso   1.00
H37    H     0.25200   0.14210   0.19200   0.01267  Uiso   1.00
H38    H     0.93200   0.01940   0.11740   0.01267  Uiso   1.00
H39    H     0.94500   0.09700   0.14330   0.01267  Uiso   1.00
H40    H     0.05150   0.16300   0.09500   0.01267  Uiso   1.00
H41    H     0.18390   0.17610   0.02210   0.01267  Uiso   1.00
H42    H     0.31820   0.98180   0.97680   0.01267  Uiso   1.00
H43    H     0.19870   0.96970   0.05060   0.01267  Uiso   1.00
H44    H     0.32230   0.34400   0.88510   0.01267  Uiso   1.00
H45    H     0.54270   0.34210   0.88030   0.01267  Uiso   1.00
H46    H     0.52930   0.46500   0.88870   0.01267  Uiso   1.00
H47    H     0.30770   0.46450   0.88950   0.01267  Uiso   1.00
H48    H     0.13360   0.50670   0.82640   0.01267  Uiso   1.00
H49    H     0.13620   0.57150   0.77260   0.01267  Uiso   1.00
H50    H     0.69310   0.59230   0.78830   0.01267  Uiso   1.00
H51    H     0.69180   0.52690   0.84180   0.01267  Uiso   1.00
H52    H     0.49140   0.23420   0.11820   0.01267  Uiso   1.00
H53    H     0.45370   0.25150   0.04040   0.01267  Uiso   1.00
H54    H     0.79390   0.31920   0.97680   0.01267  Uiso   1.00
H55    H     0.57430   0.31910   0.98380   0.01267  Uiso   1.00
H56    H     0.95370   0.20880   0.95400   0.01267  Uiso   1.00
H57    H     0.81960   0.15140   0.95950   0.01267  Uiso   1.00
H58    H     0.98000   0.31960   0.04710   0.01267  Uiso   1.00
H59    H     0.01980   0.30340   0.12530   0.01267  Uiso   1.00
H60    H     0.95440   0.25010   0.22310   0.01267  Uiso   1.00
H61    H     0.34990   0.01250   0.67670   0.01267  Uiso   1.00
H62    H     0.18800   0.37930   0.31380   0.01267  Uiso   1.00
H63    H     0.98300   0.38040   0.31190   0.01267  Uiso   1.00
H64    H     0.83950   0.23480   0.41450   0.01267  Uiso   1.00
H65    H     0.92610   0.20610   0.45040   0.01267  Uiso   1.00
H66    H     0.11660   0.09690   0.64980   0.01267  Uiso   1.00
H67    H     0.24800   0.14210   0.69200   0.01267  Uiso   1.00
H68    H     0.56800   0.01940   0.61740   0.01267  Uiso   1.00
H69    H     0.55500   0.09700   0.64330   0.01267  Uiso   1.00
H70    H     0.44850   0.16300   0.59500   0.01267  Uiso   1.00
H71    H     0.31610   0.17610   0.52210   0.01267  Uiso   1.00
H72    H     0.18180   0.98180   0.47680   0.01267  Uiso   1.00
H73    H     0.30130   0.96970   0.55060   0.01267  Uiso   1.00
H74    H     0.17770   0.34400   0.38510   0.01267  Uiso   1.00
H75    H     0.95730   0.34210   0.38030   0.01267  Uiso   1.00
H76    H     0.97070   0.46500   0.38870   0.01267  Uiso   1.00
H77    H     0.19230   0.46450   0.38950   0.01267  Uiso   1.00
H78    H     0.36640   0.50670   0.32640   0.01267  Uiso   1.00
H79    H     0.36380   0.57150   0.27260   0.01267  Uiso   1.00
H80    H     0.80690   0.59230   0.28830   0.01267  Uiso   1.00
H81    H     0.80820   0.52690   0.34180   0.01267  Uiso   1.00
H82    H     0.00860   0.23420   0.61820   0.01267  Uiso   1.00
H83    H     0.04630   0.25150   0.54040   0.01267  Uiso   1.00
H84    H     0.70610   0.31920   0.47680   0.01267  Uiso   1.00
H85    H     0.92570   0.31910   0.48380   0.01267  Uiso   1.00
H86    H     0.54630   0.20880   0.45400   0.01267  Uiso   1.00
H87    H     0.68040   0.15140   0.45950   0.01267  Uiso   1.00
H88    H     0.52000   0.31960   0.54710   0.01267  Uiso   1.00
H89    H     0.48020   0.30340   0.62530   0.01267  Uiso   1.00
H90    H     0.54560   0.25010   0.72310   0.01267  Uiso   1.00
H91    H     0.84990   0.98750   0.82330   0.01267  Uiso   1.00
H92    H     0.68800   0.62070   0.18620   0.01267  Uiso   1.00
H93    H     0.48300   0.61960   0.18810   0.01267  Uiso   1.00
H94    H     0.33950   0.76520   0.08550   0.01267  Uiso   1.00
H95    H     0.42610   0.79390   0.04960   0.01267  Uiso   1.00
H96    H     0.61660   0.90310   0.85020   0.01267  Uiso   1.00
H97    H     0.74800   0.85790   0.80800   0.01267  Uiso   1.00
H98    H     0.06800   0.98060   0.88260   0.01267  Uiso   1.00
H99    H     0.05500   0.90300   0.85670   0.01267  Uiso   1.00
H100   H     0.94850   0.83700   0.90500   0.01267  Uiso   1.00
H101   H     0.81610   0.82390   0.97790   0.01267  Uiso   1.00
H102   H     0.68180   0.01820   0.02320   0.01267  Uiso   1.00
H103   H     0.80130   0.03030   0.94940   0.01267  Uiso   1.00
H104   H     0.67770   0.65600   0.11490   0.01267  Uiso   1.00
H105   H     0.45730   0.65790   0.11970   0.01267  Uiso   1.00
H106   H     0.47070   0.53500   0.11130   0.01267  Uiso   1.00
H107   H     0.69230   0.53550   0.11050   0.01267  Uiso   1.00
H108   H     0.86640   0.49330   0.17360   0.01267  Uiso   1.00
H109   H     0.86380   0.42850   0.22740   0.01267  Uiso   1.00
H110   H     0.30690   0.40770   0.21170   0.01267  Uiso   1.00
H111   H     0.30820   0.47310   0.15820   0.01267  Uiso   1.00
H112   H     0.50860   0.76580   0.88180   0.01267  Uiso   1.00
H113   H     0.54630   0.74850   0.95960   0.01267  Uiso   1.00
H114   H     0.20610   0.68080   0.02320   0.01267  Uiso   1.00
H115   H     0.42570   0.68090   0.01620   0.01267  Uiso   1.00
H116   H     0.04630   0.79120   0.04600   0.01267  Uiso   1.00
H117   H     0.18040   0.84860   0.04050   0.01267  Uiso   1.00
H118   H     0.02000   0.68040   0.95290   0.01267  Uiso   1.00
H119   H     0.98020   0.69660   0.87470   0.01267  Uiso   1.00
H120   H     0.04560   0.74990   0.77690   0.01267  Uiso   1.00
C1     C     0.80860   0.90210   0.32080   0.01267  Uiso   1.00
C2     C     0.51830   0.94290   0.37279   0.01267  Uiso   1.00
C3     C     0.61000   0.93470   0.41946   0.01267  Uiso   1.00
C4     C     0.60690   0.87360   0.42840   0.01267  Uiso   1.00
C5     C     0.68620   0.86570   0.47250   0.01267  Uiso   1.00
C6     C     0.76690   0.91940   0.50781   0.01267  Uiso   1.00
C7     C     0.76720   0.98120   0.49910   0.01267  Uiso   1.00
C8     C     0.69300   0.98880   0.45510   0.01267  Uiso   1.00
C9     C     0.84480   0.91220   0.55660   0.01267  Uiso   1.00
C10    C     0.92600   0.66410   0.63870   0.01267  Uiso   1.00
C11    C     0.91730   0.54260   0.63240   0.01267  Uiso   1.00
C12    C     0.91390   0.49360   0.66310   0.01267  Uiso   1.00
C13    C     0.74750   0.47780   0.68230   0.01267  Uiso   1.00
C14    C     0.74950   0.43880   0.71460   0.01267  Uiso   1.00
C15    C     0.91540   0.41500   0.72820   0.01267  Uiso   1.00
C16    C     0.08060   0.42650   0.70530   0.01267  Uiso   1.00
C17    C     0.08000   0.46560   0.67320   0.01267  Uiso   1.00
C18    C     0.91810   0.37700   0.76590   0.01267  Uiso   1.00
C19    C     0.27810   0.74510   0.32060   0.01267  Uiso   1.00
C20    C     0.25950   0.73350   0.37100   0.01267  Uiso   1.00
C21    C     0.09060   0.74880   0.39610   0.01267  Uiso   1.00
C22    C     0.06840   0.73870   0.44280   0.01267  Uiso   1.00
C23    C     0.21550   0.71430   0.46430   0.01267  Uiso   1.00
C24    C     0.18890   0.70610   0.51590   0.01267  Uiso   1.00
C25    C     0.34230   0.81740   0.55951   0.01267  Uiso   1.00
C26    C     0.38180   0.69810   0.43870   0.01267  Uiso   1.00
C27    C     0.40600   0.70760   0.39180   0.01267  Uiso   1.00
C28    C     0.30860   0.09790   0.17920   0.01267  Uiso   1.00
C29    C     0.01830   0.05710   0.12721   0.01267  Uiso   1.00
C30    C     0.11000   0.06530   0.08054   0.01267  Uiso   1.00
C31    C     0.10690   0.12640   0.07160   0.01267  Uiso   1.00
C32    C     0.18620   0.13430   0.02750   0.01267  Uiso   1.00
C33    C     0.26690   0.08060   0.99219   0.01267  Uiso   1.00
C34    C     0.26720   0.01880   0.00090   0.01267  Uiso   1.00
C35    C     0.19300   0.01120   0.04490   0.01267  Uiso   1.00
C36    C     0.34480   0.08780   0.94340   0.01267  Uiso   1.00
C37    C     0.42600   0.33590   0.86130   0.01267  Uiso   1.00
C38    C     0.41730   0.45740   0.86760   0.01267  Uiso   1.00
C39    C     0.41390   0.50640   0.83690   0.01267  Uiso   1.00
C40    C     0.24750   0.52220   0.81770   0.01267  Uiso   1.00
C41    C     0.24950   0.56120   0.78540   0.01267  Uiso   1.00
C42    C     0.41540   0.58500   0.77180   0.01267  Uiso   1.00
C43    C     0.58060   0.57350   0.79470   0.01267  Uiso   1.00
C44    C     0.58000   0.53440   0.82680   0.01267  Uiso   1.00
C45    C     0.41810   0.62300   0.73410   0.01267  Uiso   1.00
C46    C     0.77810   0.25490   0.17940   0.01267  Uiso   1.00
C47    C     0.75950   0.26650   0.12900   0.01267  Uiso   1.00
C48    C     0.59060   0.25120   0.10390   0.01267  Uiso   1.00
C49    C     0.56840   0.26130   0.05720   0.01267  Uiso   1.00
C50    C     0.71550   0.28570   0.03570   0.01267  Uiso   1.00
C51    C     0.68890   0.29390   0.98410   0.01267  Uiso   1.00
C52    C     0.84230   0.18260   0.94049   0.01267  Uiso   1.00
C53    C     0.88180   0.30190   0.06130   0.01267  Uiso   1.00
C54    C     0.90600   0.29240   0.10820   0.01267  Uiso   1.00
C55    C     0.19140   0.09790   0.67920   0.01267  Uiso   1.00
C56    C     0.48170   0.05710   0.62721   0.01267  Uiso   1.00
C57    C     0.39000   0.06530   0.58054   0.01267  Uiso   1.00
C58    C     0.39310   0.12640   0.57160   0.01267  Uiso   1.00
C59    C     0.31380   0.13430   0.52750   0.01267  Uiso   1.00
C60    C     0.23310   0.08060   0.49219   0.01267  Uiso   1.00
C61    C     0.23280   0.01880   0.50090   0.01267  Uiso   1.00
C62    C     0.30700   0.01120   0.54490   0.01267  Uiso   1.00
C63    C     0.15520   0.08780   0.44340   0.01267  Uiso   1.00
C64    C     0.07400   0.33590   0.36130   0.01267  Uiso   1.00
C65    C     0.08270   0.45740   0.36760   0.01267  Uiso   1.00
C66    C     0.08610   0.50640   0.33690   0.01267  Uiso   1.00
C67    C     0.25250   0.52220   0.31770   0.01267  Uiso   1.00
C68    C     0.25050   0.56120   0.28540   0.01267  Uiso   1.00
C69    C     0.08460   0.58500   0.27180   0.01267  Uiso   1.00
C70    C     0.91940   0.57350   0.29470   0.01267  Uiso   1.00
C71    C     0.92000   0.53440   0.32680   0.01267  Uiso   1.00
C72    C     0.08190   0.62300   0.23410   0.01267  Uiso   1.00
C73    C     0.72190   0.25490   0.67940   0.01267  Uiso   1.00
C74    C     0.74050   0.26650   0.62900   0.01267  Uiso   1.00
C75    C     0.90940   0.25120   0.60390   0.01267  Uiso   1.00
C76    C     0.93160   0.26130   0.55720   0.01267  Uiso   1.00
C77    C     0.78450   0.28570   0.53570   0.01267  Uiso   1.00
C78    C     0.81110   0.29390   0.48410   0.01267  Uiso   1.00
C79    C     0.65770   0.18260   0.44049   0.01267  Uiso   1.00
C80    C     0.61820   0.30190   0.56130   0.01267  Uiso   1.00
C81    C     0.59400   0.29240   0.60820   0.01267  Uiso   1.00
C82    C     0.69140   0.90210   0.82080   0.01267  Uiso   1.00
C83    C     0.98170   0.94290   0.87279   0.01267  Uiso   1.00
C84    C     0.89000   0.93470   0.91946   0.01267  Uiso   1.00
C85    C     0.89310   0.87360   0.92840   0.01267  Uiso   1.00
C86    C     0.81380   0.86570   0.97250   0.01267  Uiso   1.00
C87    C     0.73310   0.91940   0.00781   0.01267  Uiso   1.00
C88    C     0.73280   0.98120   0.99910   0.01267  Uiso   1.00
C89    C     0.80700   0.98880   0.95510   0.01267  Uiso   1.00
C90    C     0.65520   0.91220   0.05660   0.01267  Uiso   1.00
C91    C     0.57400   0.66410   0.13870   0.01267  Uiso   1.00
C92    C     0.58270   0.54260   0.13240   0.01267  Uiso   1.00
C93    C     0.58610   0.49360   0.16310   0.01267  Uiso   1.00
C94    C     0.75250   0.47780   0.18230   0.01267  Uiso   1.00
C95    C     0.75050   0.43880   0.21460   0.01267  Uiso   1.00
C96    C     0.58460   0.41500   0.22820   0.01267  Uiso   1.00
C97    C     0.41940   0.42650   0.20530   0.01267  Uiso   1.00
C98    C     0.42000   0.46560   0.17320   0.01267  Uiso   1.00
C99    C     0.58190   0.37700   0.26590   0.01267  Uiso   1.00
C100   C     0.22190   0.74510   0.82060   0.01267  Uiso   1.00
C101   C     0.24050   0.73350   0.87100   0.01267  Uiso   1.00
C102   C     0.40940   0.74880   0.89610   0.01267  Uiso   1.00
C103   C     0.43160   0.73870   0.94280   0.01267  Uiso   1.00
C104   C     0.28450   0.71430   0.96430   0.01267  Uiso   1.00
C105   C     0.31110   0.70610   0.01590   0.01267  Uiso   1.00
C106   C     0.15770   0.81740   0.05951   0.01267  Uiso   1.00
C107   C     0.11820   0.69810   0.93870   0.01267  Uiso   1.00
C108   C     0.09400   0.70760   0.89180   0.01267  Uiso   1.00
N1     N     0.65710   0.95420   0.33531   0.01267  Uiso   1.00
N2     N     0.91730   0.61380   0.66723   0.01267  Uiso   1.00
N3     N     0.17700   0.77240   0.55555   0.01267  Uiso   1.00
N4     N     0.15710   0.04580   0.16469   0.01267  Uiso   1.00
N5     N     0.41730   0.38620   0.83277   0.01267  Uiso   1.00
N6     N     0.67700   0.22760   0.94445   0.01267  Uiso   1.00
N7     N     0.34290   0.04580   0.66469   0.01267  Uiso   1.00
N8     N     0.08270   0.38620   0.33277   0.01267  Uiso   1.00
N9     N     0.82300   0.22760   0.44445   0.01267  Uiso   1.00
N10    N     0.84290   0.95420   0.83531   0.01267  Uiso   1.00
N11    N     0.58270   0.61380   0.16723   0.01267  Uiso   1.00
N12    N     0.32300   0.77240   0.05555   0.01267  Uiso   1.00
O1     O     0.87490   0.96320   0.59235   0.01267  Uiso   1.00
O2     O     0.86970   0.85320   0.55941   0.01267  Uiso   1.00
O3     O     0.07210   0.97982   0.29831   0.01267  Uiso   1.00
O4     O     0.08730   0.85711   0.25612   0.01267  Uiso   1.00
O5     O     0.82930   0.92860   0.23316   0.01267  Uiso   1.00
O6     O     0.92720   0.79301   0.64453   0.01267  Uiso   1.00
O7     O     0.73170   0.75900   0.70866   0.01267  Uiso   1.00
O8     O     0.08120   0.75891   0.71516   0.01267  Uiso   1.00
O9     O     0.76610   0.36310   0.78355   0.01267  Uiso   1.00
O10    O     0.07290   0.35520   0.77702   0.01267  Uiso   1.00
O11    O     0.45340   0.74540   0.30518   0.01267  Uiso   1.00
O12    O     0.14110   0.75270   0.29697   0.01267  Uiso   1.00
O13    O     0.56060   0.90150   0.63005   0.01267  Uiso   1.00
O14    O     0.20760   0.90931   0.64170   0.01267  Uiso   1.00
O15    O     0.38090   0.80615   0.64913   0.01267  Uiso   1.00
O16    O     0.37490   0.03680   0.90765   0.01267  Uiso   1.00
O17    O     0.36970   0.14680   0.94059   0.01267  Uiso   1.00
O18    O     0.57210   0.02018   0.20169   0.01267  Uiso   1.00
O19    O     0.58730   0.14289   0.24388   0.01267  Uiso   1.00
O20    O     0.32930   0.07140   0.26684   0.01267  Uiso   1.00
O21    O     0.42720   0.20699   0.85547   0.01267  Uiso   1.00
O22    O     0.23170   0.24100   0.79134   0.01267  Uiso   1.00
O23    O     0.58120   0.24109   0.78484   0.01267  Uiso   1.00
O24    O     0.26610   0.63690   0.71645   0.01267  Uiso   1.00
O25    O     0.57290   0.64480   0.72298   0.01267  Uiso   1.00
O26    O     0.95340   0.25460   0.19482   0.01267  Uiso   1.00
O27    O     0.64110   0.24730   0.20303   0.01267  Uiso   1.00
O28    O     0.06060   0.09850   0.86995   0.01267  Uiso   1.00
O29    O     0.70760   0.09069   0.85830   0.01267  Uiso   1.00
O30    O     0.88090   0.19385   0.85087   0.01267  Uiso   1.00
O31    O     0.12510   0.03680   0.40765   0.01267  Uiso   1.00
O32    O     0.13030   0.14680   0.44059   0.01267  Uiso   1.00
O33    O     0.92790   0.02018   0.70169   0.01267  Uiso   1.00
O34    O     0.91270   0.14289   0.74388   0.01267  Uiso   1.00
O35    O     0.17070   0.07140   0.76684   0.01267  Uiso   1.00
O36    O     0.07280   0.20699   0.35547   0.01267  Uiso   1.00
O37    O     0.26830   0.24100   0.29134   0.01267  Uiso   1.00
O38    O     0.91880   0.24109   0.28484   0.01267  Uiso   1.00
O39    O     0.23390   0.63690   0.21645   0.01267  Uiso   1.00
O40    O     0.92710   0.64480   0.22298   0.01267  Uiso   1.00
O41    O     0.54660   0.25460   0.69482   0.01267  Uiso   1.00
O42    O     0.85890   0.24730   0.70303   0.01267  Uiso   1.00
O43    O     0.43940   0.09850   0.36995   0.01267  Uiso   1.00
O44    O     0.79240   0.09069   0.35830   0.01267  Uiso   1.00
O45    O     0.61910   0.19385   0.35087   0.01267  Uiso   1.00
O46    O     0.62510   0.96320   0.09235   0.01267  Uiso   1.00
O47    O     0.63030   0.85320   0.05941   0.01267  Uiso   1.00
O48    O     0.42790   0.97982   0.79831   0.01267  Uiso   1.00
O49    O     0.41270   0.85711   0.75612   0.01267  Uiso   1.00
O50    O     0.67070   0.92860   0.73316   0.01267  Uiso   1.00
O51    O     0.57280   0.79301   0.14453   0.01267  Uiso   1.00
O52    O     0.76830   0.75900   0.20866   0.01267  Uiso   1.00
O53    O     0.41880   0.75891   0.21516   0.01267  Uiso   1.00
O54    O     0.73390   0.36310   0.28355   0.01267  Uiso   1.00
O55    O     0.42710   0.35520   0.27702   0.01267  Uiso   1.00
O56    O     0.04660   0.74540   0.80518   0.01267  Uiso   1.00
O57    O     0.35890   0.75270   0.79697   0.01267  Uiso   1.00
O58    O     0.93940   0.90150   0.13005   0.01267  Uiso   1.00
O59    O     0.29240   0.90931   0.14170   0.01267  Uiso   1.00
O60    O     0.11910   0.80615   0.14913   0.01267  Uiso   1.00
