data_LABQAI_clean
_audit_creation_date              2014-07-02
_audit_creation_method            'Materials Studio'
_symmetry_space_group_name_H-M    'P1'
_symmetry_Int_Tables_number       1
_symmetry_cell_setting            triclinic
loop_
_symmetry_equiv_pos_as_xyz
  x,y,z
_cell_length_a                    7.0770
_cell_length_b                    20.9430
_cell_length_c                    27.8090
_cell_angle_alpha                 107.3090
_cell_angle_beta                  90.0000
_cell_angle_gamma                 90.0000
loop_
_atom_site_label
_atom_site_type_symbol
_atom_site_fract_x
_atom_site_fract_y
_atom_site_fract_z
_atom_site_U_iso_or_equiv
_atom_site_adp_type
_atom_site_occupancy
Eu1    Eu    0.87283   0.91084   0.66223   0.01267  Uiso   1.00
Eu2    Eu    0.08672   0.74800   0.20815   0.01267  Uiso   1.00
Eu3    Eu    0.37283   0.08916   0.83777   0.01267  Uiso   1.00
Eu4    Eu    0.58672   0.25200   0.29185   0.01267  Uiso   1.00
Eu5    Eu    0.12717   0.08916   0.33777   0.01267  Uiso   1.00
Eu6    Eu    0.91328   0.25200   0.79185   0.01267  Uiso   1.00
Eu7    Eu    0.62717   0.91084   0.16224   0.01267  Uiso   1.00
Eu8    Eu    0.41328   0.74800   0.70815   0.01267  Uiso   1.00
P1     P     0.95947   0.91817   0.27312   0.01267  Uiso   1.00
P2     P     0.91352   0.75199   0.68109   0.01267  Uiso   1.00
P3     P     0.37760   0.86350   0.62721   0.01267  Uiso   1.00
P4     P     0.45947   0.08183   0.22688   0.01267  Uiso   1.00
P5     P     0.41352   0.24801   0.81891   0.01267  Uiso   1.00
P6     P     0.87760   0.13650   0.87279   0.01267  Uiso   1.00
P7     P     0.04053   0.08183   0.72688   0.01267  Uiso   1.00
P8     P     0.08648   0.24801   0.31891   0.01267  Uiso   1.00
P9     P     0.62240   0.13650   0.37279   0.01267  Uiso   1.00
P10    P     0.54053   0.91817   0.77312   0.01267  Uiso   1.00
P11    P     0.58648   0.75199   0.18109   0.01267  Uiso   1.00
P12    P     0.12240   0.86350   0.12721   0.01267  Uiso   1.00
H1     H     0.65060   0.98780   0.32350   0.01267  Uiso   1.00
H2     H     0.81000   0.62210   0.68730   0.01267  Uiso   1.00
H3     H     0.01530   0.62020   0.68930   0.01267  Uiso   1.00
H4     H     0.07320   0.79450   0.55110   0.01267  Uiso   1.00
H5     H     0.16110   0.76560   0.58680   0.01267  Uiso   1.00
H6     H     0.88360   0.90390   0.35060   0.01267  Uiso   1.00
H7     H     0.75160   0.85900   0.30860   0.01267  Uiso   1.00
H8     H     0.43230   0.98180   0.38300   0.01267  Uiso   1.00
H9     H     0.44250   0.90440   0.35720   0.01267  Uiso   1.00
H10    H     0.54920   0.83750   0.40560   0.01267  Uiso   1.00
H11    H     0.67910   0.82420   0.47850   0.01267  Uiso   1.00
H12    H     0.82000   0.01710   0.52360   0.01267  Uiso   1.00
H13    H     0.70050   0.03030   0.45000   0.01267  Uiso   1.00
H14    H     0.82400   0.65790   0.61630   0.01267  Uiso   1.00
H15    H     0.04440   0.65960   0.62180   0.01267  Uiso   1.00
H16    H     0.02510   0.53710   0.61230   0.01267  Uiso   1.00
H17    H     0.80320   0.53800   0.61210   0.01267  Uiso   1.00
H18    H     0.63080   0.49280   0.67260   0.01267  Uiso   1.00
H19    H     0.63020   0.42860   0.72780   0.01267  Uiso   1.00
H20    H     0.19260   0.40850   0.71180   0.01267  Uiso   1.00
H21    H     0.19050   0.47320   0.65760   0.01267  Uiso   1.00
H22    H     0.99030   0.76720   0.38270   0.01267  Uiso   1.00
H23    H     0.95050   0.74930   0.46090   0.01267  Uiso   1.00
H24    H     0.29400   0.68190   0.52450   0.01267  Uiso   1.00
H25    H     0.07400   0.68200   0.51770   0.01267  Uiso   1.00
H26    H     0.45460   0.79240   0.54720   0.01267  Uiso   1.00
H27    H     0.31950   0.84960   0.54170   0.01267  Uiso   1.00
H28    H     0.48010   0.68160   0.45500   0.01267  Uiso   1.00
H29    H     0.51870   0.69550   0.37560   0.01267  Uiso   1.00
H30    H     0.45230   0.75040   0.27800   0.01267  Uiso   1.00
H31    H     0.15060   0.01220   0.17650   0.01267  Uiso   1.00
H32    H     0.31000   0.37790   0.81270   0.01267  Uiso   1.00
H33    H     0.51530   0.37980   0.81070   0.01267  Uiso   1.00
H34    H     0.57320   0.20550   0.94890   0.01267  Uiso   1.00
H35    H     0.66110   0.23440   0.91320   0.01267  Uiso   1.00
H36    H     0.38360   0.09610   0.14940   0.01267  Uiso   1.00
H37    H     0.25160   0.14100   0.19140   0.01267  Uiso   1.00
H38    H     0.93230   0.01820   0.11700   0.01267  Uiso   1.00
H39    H     0.94250   0.09560   0.14280   0.01267  Uiso   1.00
H40    H     0.04920   0.16250   0.09440   0.01267  Uiso   1.00
H41    H     0.17910   0.17580   0.02150   0.01267  Uiso   1.00
H42    H     0.32000   0.98290   0.97640   0.01267  Uiso   1.00
H43    H     0.20050   0.96970   0.05000   0.01267  Uiso   1.00
H44    H     0.32400   0.34210   0.88370   0.01267  Uiso   1.00
H45    H     0.54440   0.34040   0.87820   0.01267  Uiso   1.00
H46    H     0.52510   0.46290   0.88770   0.01267  Uiso   1.00
H47    H     0.30320   0.46200   0.88790   0.01267  Uiso   1.00
H48    H     0.13080   0.50720   0.82740   0.01267  Uiso   1.00
H49    H     0.13020   0.57140   0.77220   0.01267  Uiso   1.00
H50    H     0.69260   0.59150   0.78820   0.01267  Uiso   1.00
H51    H     0.69050   0.52680   0.84240   0.01267  Uiso   1.00
H52    H     0.49030   0.23280   0.11730   0.01267  Uiso   1.00
H53    H     0.45050   0.25070   0.03910   0.01267  Uiso   1.00
H54    H     0.79400   0.31810   0.97550   0.01267  Uiso   1.00
H55    H     0.57400   0.31800   0.98230   0.01267  Uiso   1.00
H56    H     0.95460   0.20760   0.95280   0.01267  Uiso   1.00
H57    H     0.81950   0.15040   0.95830   0.01267  Uiso   1.00
H58    H     0.98010   0.31840   0.04500   0.01267  Uiso   1.00
H59    H     0.01870   0.30450   0.12440   0.01267  Uiso   1.00
H60    H     0.95230   0.24960   0.22200   0.01267  Uiso   1.00
H61    H     0.34940   0.01220   0.67650   0.01267  Uiso   1.00
H62    H     0.19000   0.37790   0.31270   0.01267  Uiso   1.00
H63    H     0.98470   0.37980   0.31070   0.01267  Uiso   1.00
H64    H     0.92680   0.20550   0.44890   0.01267  Uiso   1.00
H65    H     0.83890   0.23440   0.41320   0.01267  Uiso   1.00
H66    H     0.11640   0.09610   0.64940   0.01267  Uiso   1.00
H67    H     0.24840   0.14100   0.69140   0.01267  Uiso   1.00
H68    H     0.56770   0.01820   0.61700   0.01267  Uiso   1.00
H69    H     0.55750   0.09560   0.64280   0.01267  Uiso   1.00
H70    H     0.45080   0.16250   0.59440   0.01267  Uiso   1.00
H71    H     0.32090   0.17580   0.52150   0.01267  Uiso   1.00
H72    H     0.18000   0.98290   0.47640   0.01267  Uiso   1.00
H73    H     0.29950   0.96970   0.55000   0.01267  Uiso   1.00
H74    H     0.17600   0.34210   0.38370   0.01267  Uiso   1.00
H75    H     0.95560   0.34040   0.37820   0.01267  Uiso   1.00
H76    H     0.97490   0.46290   0.38770   0.01267  Uiso   1.00
H77    H     0.19680   0.46200   0.38790   0.01267  Uiso   1.00
H78    H     0.36920   0.50720   0.32740   0.01267  Uiso   1.00
H79    H     0.36980   0.57140   0.27220   0.01267  Uiso   1.00
H80    H     0.80740   0.59150   0.28820   0.01267  Uiso   1.00
H81    H     0.80950   0.52680   0.34240   0.01267  Uiso   1.00
H82    H     0.00970   0.23280   0.61730   0.01267  Uiso   1.00
H83    H     0.04950   0.25070   0.53910   0.01267  Uiso   1.00
H84    H     0.70600   0.31810   0.47550   0.01267  Uiso   1.00
H85    H     0.92600   0.31800   0.48230   0.01267  Uiso   1.00
H86    H     0.54540   0.20760   0.45280   0.01267  Uiso   1.00
H87    H     0.68050   0.15040   0.45830   0.01267  Uiso   1.00
H88    H     0.51990   0.31840   0.54500   0.01267  Uiso   1.00
H89    H     0.48130   0.30450   0.62440   0.01267  Uiso   1.00
H90    H     0.54770   0.24960   0.72200   0.01267  Uiso   1.00
H91    H     0.84940   0.98780   0.82350   0.01267  Uiso   1.00
H92    H     0.69000   0.62210   0.18730   0.01267  Uiso   1.00
H93    H     0.48470   0.62020   0.18930   0.01267  Uiso   1.00
H94    H     0.42680   0.79450   0.05110   0.01267  Uiso   1.00
H95    H     0.33890   0.76560   0.08680   0.01267  Uiso   1.00
H96    H     0.61640   0.90390   0.85060   0.01267  Uiso   1.00
H97    H     0.74840   0.85900   0.80860   0.01267  Uiso   1.00
H98    H     0.06770   0.98180   0.88300   0.01267  Uiso   1.00
H99    H     0.05750   0.90440   0.85720   0.01267  Uiso   1.00
H100   H     0.95080   0.83750   0.90560   0.01267  Uiso   1.00
H101   H     0.82090   0.82420   0.97850   0.01267  Uiso   1.00
H102   H     0.68000   0.01710   0.02360   0.01267  Uiso   1.00
H103   H     0.79950   0.03030   0.95000   0.01267  Uiso   1.00
H104   H     0.67600   0.65790   0.11630   0.01267  Uiso   1.00
H105   H     0.45560   0.65960   0.12180   0.01267  Uiso   1.00
H106   H     0.47490   0.53710   0.11230   0.01267  Uiso   1.00
H107   H     0.69680   0.53800   0.11210   0.01267  Uiso   1.00
H108   H     0.86920   0.49280   0.17260   0.01267  Uiso   1.00
H109   H     0.86980   0.42860   0.22780   0.01267  Uiso   1.00
H110   H     0.30740   0.40850   0.21180   0.01267  Uiso   1.00
H111   H     0.30950   0.47320   0.15760   0.01267  Uiso   1.00
H112   H     0.50970   0.76720   0.88270   0.01267  Uiso   1.00
H113   H     0.54950   0.74930   0.96090   0.01267  Uiso   1.00
H114   H     0.20600   0.68190   0.02450   0.01267  Uiso   1.00
H115   H     0.42600   0.68200   0.01770   0.01267  Uiso   1.00
H116   H     0.04540   0.79240   0.04720   0.01267  Uiso   1.00
H117   H     0.18050   0.84960   0.04170   0.01267  Uiso   1.00
H118   H     0.01990   0.68160   0.95500   0.01267  Uiso   1.00
H119   H     0.98130   0.69550   0.87560   0.01267  Uiso   1.00
H120   H     0.04770   0.75040   0.77800   0.01267  Uiso   1.00
C1     C     0.80850   0.90300   0.32120   0.01267  Uiso   1.00
C2     C     0.51740   0.94380   0.37321   0.01267  Uiso   1.00
C3     C     0.60890   0.93500   0.41976   0.01267  Uiso   1.00
C4     C     0.60480   0.87400   0.42900   0.01267  Uiso   1.00
C5     C     0.68280   0.86590   0.47310   0.01267  Uiso   1.00
C6     C     0.76470   0.91880   0.50820   0.01267  Uiso   1.00
C7     C     0.76760   0.98060   0.49960   0.01267  Uiso   1.00
C8     C     0.69370   0.98870   0.45570   0.01267  Uiso   1.00
C9     C     0.84300   0.91110   0.55670   0.01267  Uiso   1.00
C10    C     0.92660   0.66570   0.64045   0.01267  Uiso   1.00
C11    C     0.91380   0.54450   0.63360   0.01267  Uiso   1.00
C12    C     0.91120   0.49510   0.66350   0.01267  Uiso   1.00
C13    C     0.74480   0.47790   0.68200   0.01267  Uiso   1.00
C14    C     0.74360   0.43860   0.71470   0.01267  Uiso   1.00
C15    C     0.91390   0.41440   0.72740   0.01267  Uiso   1.00
C16    C     0.07950   0.42680   0.70510   0.01267  Uiso   1.00
C17    C     0.07890   0.46610   0.67300   0.01267  Uiso   1.00
C18    C     0.91640   0.37610   0.76490   0.01267  Uiso   1.00
C19    C     0.27840   0.74540   0.32190   0.01267  Uiso   1.00
C20    C     0.25980   0.73380   0.37210   0.01267  Uiso   1.00
C21    C     0.08870   0.74980   0.39710   0.01267  Uiso   1.00
C22    C     0.06550   0.73960   0.44410   0.01267  Uiso   1.00
C23    C     0.21430   0.71510   0.46560   0.01267  Uiso   1.00
C24    C     0.18870   0.70720   0.51720   0.01267  Uiso   1.00
C25    C     0.34270   0.81830   0.56072   0.01267  Uiso   1.00
C26    C     0.38160   0.69870   0.44040   0.01267  Uiso   1.00
C27    C     0.40550   0.70740   0.39290   0.01267  Uiso   1.00
C28    C     0.30850   0.09700   0.17880   0.01267  Uiso   1.00
C29    C     0.01740   0.05620   0.12679   0.01267  Uiso   1.00
C30    C     0.10890   0.06500   0.08024   0.01267  Uiso   1.00
C31    C     0.10480   0.12600   0.07100   0.01267  Uiso   1.00
C32    C     0.18280   0.13410   0.02690   0.01267  Uiso   1.00
C33    C     0.26470   0.08120   0.99180   0.01267  Uiso   1.00
C34    C     0.26760   0.01940   0.00040   0.01267  Uiso   1.00
C35    C     0.19370   0.01130   0.04430   0.01267  Uiso   1.00
C36    C     0.34300   0.08890   0.94330   0.01267  Uiso   1.00
C37    C     0.42660   0.33430   0.85955   0.01267  Uiso   1.00
C38    C     0.41380   0.45550   0.86640   0.01267  Uiso   1.00
C39    C     0.41120   0.50490   0.83650   0.01267  Uiso   1.00
C40    C     0.24480   0.52210   0.81800   0.01267  Uiso   1.00
C41    C     0.24360   0.56140   0.78530   0.01267  Uiso   1.00
C42    C     0.41390   0.58560   0.77260   0.01267  Uiso   1.00
C43    C     0.57950   0.57320   0.79490   0.01267  Uiso   1.00
C44    C     0.57890   0.53390   0.82700   0.01267  Uiso   1.00
C45    C     0.41640   0.62390   0.73510   0.01267  Uiso   1.00
C46    C     0.77840   0.25460   0.17810   0.01267  Uiso   1.00
C47    C     0.75980   0.26620   0.12790   0.01267  Uiso   1.00
C48    C     0.58870   0.25020   0.10290   0.01267  Uiso   1.00
C49    C     0.56550   0.26040   0.05590   0.01267  Uiso   1.00
C50    C     0.71430   0.28490   0.03440   0.01267  Uiso   1.00
C51    C     0.68870   0.29280   0.98280   0.01267  Uiso   1.00
C52    C     0.84270   0.18170   0.93928   0.01267  Uiso   1.00
C53    C     0.88160   0.30130   0.05960   0.01267  Uiso   1.00
C54    C     0.90550   0.29260   0.10710   0.01267  Uiso   1.00
C55    C     0.19150   0.09700   0.67880   0.01267  Uiso   1.00
C56    C     0.48260   0.05620   0.62679   0.01267  Uiso   1.00
C57    C     0.39110   0.06500   0.58024   0.01267  Uiso   1.00
C58    C     0.39520   0.12600   0.57100   0.01267  Uiso   1.00
C59    C     0.31720   0.13410   0.52690   0.01267  Uiso   1.00
C60    C     0.23530   0.08120   0.49180   0.01267  Uiso   1.00
C61    C     0.23240   0.01940   0.50040   0.01267  Uiso   1.00
C62    C     0.30630   0.01130   0.54430   0.01267  Uiso   1.00
C63    C     0.15700   0.08890   0.44330   0.01267  Uiso   1.00
C64    C     0.07340   0.33430   0.35955   0.01267  Uiso   1.00
C65    C     0.08620   0.45550   0.36640   0.01267  Uiso   1.00
C66    C     0.08880   0.50490   0.33650   0.01267  Uiso   1.00
C67    C     0.25520   0.52210   0.31800   0.01267  Uiso   1.00
C68    C     0.25640   0.56140   0.28530   0.01267  Uiso   1.00
C69    C     0.08610   0.58560   0.27260   0.01267  Uiso   1.00
C70    C     0.92050   0.57320   0.29490   0.01267  Uiso   1.00
C71    C     0.92110   0.53390   0.32700   0.01267  Uiso   1.00
C72    C     0.08360   0.62390   0.23510   0.01267  Uiso   1.00
C73    C     0.72160   0.25460   0.67810   0.01267  Uiso   1.00
C74    C     0.74020   0.26620   0.62790   0.01267  Uiso   1.00
C75    C     0.91130   0.25020   0.60290   0.01267  Uiso   1.00
C76    C     0.93450   0.26040   0.55590   0.01267  Uiso   1.00
C77    C     0.78570   0.28490   0.53440   0.01267  Uiso   1.00
C78    C     0.81130   0.29280   0.48280   0.01267  Uiso   1.00
C79    C     0.65730   0.18170   0.43928   0.01267  Uiso   1.00
C80    C     0.61840   0.30130   0.55960   0.01267  Uiso   1.00
C81    C     0.59450   0.29260   0.60710   0.01267  Uiso   1.00
C82    C     0.69150   0.90300   0.82120   0.01267  Uiso   1.00
C83    C     0.98260   0.94380   0.87321   0.01267  Uiso   1.00
C84    C     0.89110   0.93500   0.91976   0.01267  Uiso   1.00
C85    C     0.89520   0.87400   0.92900   0.01267  Uiso   1.00
C86    C     0.81720   0.86590   0.97310   0.01267  Uiso   1.00
C87    C     0.73530   0.91880   0.00820   0.01267  Uiso   1.00
C88    C     0.73240   0.98060   0.99960   0.01267  Uiso   1.00
C89    C     0.80630   0.98870   0.95570   0.01267  Uiso   1.00
C90    C     0.65700   0.91110   0.05670   0.01267  Uiso   1.00
C91    C     0.57340   0.66570   0.14045   0.01267  Uiso   1.00
C92    C     0.58620   0.54450   0.13360   0.01267  Uiso   1.00
C93    C     0.58880   0.49510   0.16350   0.01267  Uiso   1.00
C94    C     0.75520   0.47790   0.18200   0.01267  Uiso   1.00
C95    C     0.75640   0.43860   0.21470   0.01267  Uiso   1.00
C96    C     0.58610   0.41440   0.22740   0.01267  Uiso   1.00
C97    C     0.42050   0.42680   0.20510   0.01267  Uiso   1.00
C98    C     0.42110   0.46610   0.17300   0.01267  Uiso   1.00
C99    C     0.58360   0.37610   0.26490   0.01267  Uiso   1.00
C100   C     0.22160   0.74540   0.82190   0.01267  Uiso   1.00
C101   C     0.24020   0.73380   0.87210   0.01267  Uiso   1.00
C102   C     0.41130   0.74980   0.89710   0.01267  Uiso   1.00
C103   C     0.43450   0.73960   0.94410   0.01267  Uiso   1.00
C104   C     0.28570   0.71510   0.96560   0.01267  Uiso   1.00
C105   C     0.31130   0.70720   0.01720   0.01267  Uiso   1.00
C106   C     0.15730   0.81830   0.06072   0.01267  Uiso   1.00
C107   C     0.11840   0.69870   0.94040   0.01267  Uiso   1.00
C108   C     0.09450   0.70740   0.89290   0.01267  Uiso   1.00
N1     N     0.65740   0.95460   0.33565   0.01267  Uiso   1.00
N2     N     0.91560   0.61500   0.66843   0.01267  Uiso   1.00
N3     N     0.17690   0.77310   0.55687   0.01267  Uiso   1.00
N4     N     0.15740   0.04540   0.16435   0.01267  Uiso   1.00
N5     N     0.41560   0.38500   0.83157   0.01267  Uiso   1.00
N6     N     0.67690   0.22690   0.94313   0.01267  Uiso   1.00
N7     N     0.34260   0.04540   0.66435   0.01267  Uiso   1.00
N8     N     0.08440   0.38500   0.33157   0.01267  Uiso   1.00
N9     N     0.82310   0.22690   0.44313   0.01267  Uiso   1.00
N10    N     0.84260   0.95460   0.83565   0.01267  Uiso   1.00
N11    N     0.58440   0.61500   0.16843   0.01267  Uiso   1.00
N12    N     0.32310   0.77310   0.05687   0.01267  Uiso   1.00
O1     O     0.87440   0.96220   0.59296   0.01267  Uiso   1.00
O2     O     0.86770   0.85240   0.55983   0.01267  Uiso   1.00
O3     O     0.07280   0.98020   0.29843   0.01267  Uiso   1.00
O4     O     0.08760   0.85723   0.25671   0.01267  Uiso   1.00
O5     O     0.82850   0.92920   0.23348   0.01267  Uiso   1.00
O6     O     0.92710   0.79474   0.64596   0.01267  Uiso   1.00
O7     O     0.73180   0.76037   0.71030   0.01267  Uiso   1.00
O8     O     0.08190   0.76038   0.71663   0.01267  Uiso   1.00
O9     O     0.76440   0.36163   0.78262   0.01267  Uiso   1.00
O10    O     0.07160   0.35440   0.77606   0.01267  Uiso   1.00
O11    O     0.45240   0.74590   0.30628   0.01267  Uiso   1.00
O12    O     0.13950   0.75330   0.29794   0.01267  Uiso   1.00
O13    O     0.56020   0.90180   0.63088   0.01267  Uiso   1.00
O14    O     0.20730   0.90947   0.64263   0.01267  Uiso   1.00
O15    O     0.38090   0.80634   0.65022   0.01267  Uiso   1.00
O16    O     0.37440   0.03780   0.90704   0.01267  Uiso   1.00
O17    O     0.36770   0.14760   0.94017   0.01267  Uiso   1.00
O18    O     0.57280   0.01980   0.20157   0.01267  Uiso   1.00
O19    O     0.58760   0.14277   0.24329   0.01267  Uiso   1.00
O20    O     0.32850   0.07080   0.26652   0.01267  Uiso   1.00
O21    O     0.42710   0.20526   0.85404   0.01267  Uiso   1.00
O22    O     0.23180   0.23963   0.78970   0.01267  Uiso   1.00
O23    O     0.58190   0.23962   0.78337   0.01267  Uiso   1.00
O24    O     0.26440   0.63837   0.71738   0.01267  Uiso   1.00
O25    O     0.57160   0.64560   0.72394   0.01267  Uiso   1.00
O26    O     0.95240   0.25410   0.19372   0.01267  Uiso   1.00
O27    O     0.63950   0.24670   0.20206   0.01267  Uiso   1.00
O28    O     0.06020   0.09820   0.86912   0.01267  Uiso   1.00
O29    O     0.70730   0.09053   0.85737   0.01267  Uiso   1.00
O30    O     0.88090   0.19366   0.84978   0.01267  Uiso   1.00
O31    O     0.12560   0.03780   0.40704   0.01267  Uiso   1.00
O32    O     0.13230   0.14760   0.44017   0.01267  Uiso   1.00
O33    O     0.92720   0.01980   0.70157   0.01267  Uiso   1.00
O34    O     0.91240   0.14277   0.74329   0.01267  Uiso   1.00
O35    O     0.17150   0.07080   0.76652   0.01267  Uiso   1.00
O36    O     0.07290   0.20526   0.35404   0.01267  Uiso   1.00
O37    O     0.26820   0.23963   0.28970   0.01267  Uiso   1.00
O38    O     0.91810   0.23962   0.28337   0.01267  Uiso   1.00
O39    O     0.23560   0.63837   0.21738   0.01267  Uiso   1.00
O40    O     0.92840   0.64560   0.22394   0.01267  Uiso   1.00
O41    O     0.54760   0.25410   0.69372   0.01267  Uiso   1.00
O42    O     0.86050   0.24670   0.70206   0.01267  Uiso   1.00
O43    O     0.43980   0.09820   0.36912   0.01267  Uiso   1.00
O44    O     0.79270   0.09053   0.35737   0.01267  Uiso   1.00
O45    O     0.61910   0.19366   0.34978   0.01267  Uiso   1.00
O46    O     0.62560   0.96220   0.09296   0.01267  Uiso   1.00
O47    O     0.63230   0.85240   0.05983   0.01267  Uiso   1.00
O48    O     0.42720   0.98020   0.79843   0.01267  Uiso   1.00
O49    O     0.41240   0.85723   0.75671   0.01267  Uiso   1.00
O50    O     0.67150   0.92920   0.73348   0.01267  Uiso   1.00
O51    O     0.57290   0.79474   0.14596   0.01267  Uiso   1.00
O52    O     0.76820   0.76037   0.21030   0.01267  Uiso   1.00
O53    O     0.41810   0.76038   0.21663   0.01267  Uiso   1.00
O54    O     0.73560   0.36163   0.28262   0.01267  Uiso   1.00
O55    O     0.42840   0.35440   0.27606   0.01267  Uiso   1.00
O56    O     0.04760   0.74590   0.80628   0.01267  Uiso   1.00
O57    O     0.36050   0.75330   0.79794   0.01267  Uiso   1.00
O58    O     0.93980   0.90180   0.13088   0.01267  Uiso   1.00
O59    O     0.29270   0.90947   0.14263   0.01267  Uiso   1.00
O60    O     0.11910   0.80634   0.15022   0.01267  Uiso   1.00
