data_LACJAC_clean
_audit_creation_date              2014-07-02
_audit_creation_method            'Materials Studio'
_symmetry_space_group_name_H-M    'P1'
_symmetry_Int_Tables_number       1
_symmetry_cell_setting            triclinic
loop_
_symmetry_equiv_pos_as_xyz
  x,y,z
_cell_length_a                    9.7810
_cell_length_b                    11.9050
_cell_length_c                    15.2200
_cell_angle_alpha                 96.5000
_cell_angle_beta                  99.0700
_cell_angle_gamma                 112.4100
loop_
_atom_site_label
_atom_site_type_symbol
_atom_site_fract_x
_atom_site_fract_y
_atom_site_fract_z
_atom_site_U_iso_or_equiv
_atom_site_adp_type
_atom_site_occupancy
Zn1    Zn    0.98873   0.57029   0.29485   0.01267  Uiso   1.00
Zn2    Zn    0.89069   0.68827   0.67022   0.01267  Uiso   1.00
Zn3    Zn    0.43913   0.60484   0.07046   0.01267  Uiso   1.00
Zn4    Zn    0.01127   0.42971   0.70515   0.01267  Uiso   1.00
Zn5    Zn    0.10931   0.31173   0.32978   0.01267  Uiso   1.00
Zn6    Zn    0.56087   0.39516   0.92954   0.01267  Uiso   1.00
Zn7    Zn    0.50000   0.50000   0.50000   0.01267  Uiso   1.00
H1     H     0.30800   0.99870   0.82360   0.01267  Uiso   1.00
H2     H     0.72310   0.03960   0.94250   0.01267  Uiso   1.00
H3     H     0.65630   0.83180   0.89580   0.01267  Uiso   1.00
H4     H     0.42030   0.70810   0.80550   0.01267  Uiso   1.00
H5     H     0.80400   0.01140   0.66510   0.01267  Uiso   1.00
H6     H     0.46050   0.11390   0.60030   0.01267  Uiso   1.00
H7     H     0.29150   0.91110   0.57720   0.01267  Uiso   1.00
H8     H     0.37700   0.75560   0.58950   0.01267  Uiso   1.00
H9     H     0.17250   0.63310   0.14620   0.01267  Uiso   1.00
H10    H     0.34800   0.40300   0.20370   0.01267  Uiso   1.00
H11    H     0.07140   0.67840   0.51400   0.01267  Uiso   1.00
H12    H     0.68740   0.46190   0.35740   0.01267  Uiso   1.00
H13    H     0.70850   0.65040   0.23540   0.01267  Uiso   1.00
H14    H     0.82850   0.43050   0.09110   0.01267  Uiso   1.00
H15    H     0.69200   0.00130   0.17640   0.01267  Uiso   1.00
H16    H     0.27690   0.96040   0.05750   0.01267  Uiso   1.00
H17    H     0.34370   0.16820   0.10420   0.01267  Uiso   1.00
H18    H     0.57970   0.29190   0.19450   0.01267  Uiso   1.00
H19    H     0.19600   0.98860   0.33490   0.01267  Uiso   1.00
H20    H     0.53950   0.88610   0.39970   0.01267  Uiso   1.00
H21    H     0.70850   0.08890   0.42280   0.01267  Uiso   1.00
H22    H     0.62300   0.24440   0.41050   0.01267  Uiso   1.00
H23    H     0.82750   0.36690   0.85380   0.01267  Uiso   1.00
H24    H     0.65200   0.59700   0.79630   0.01267  Uiso   1.00
H25    H     0.92860   0.32160   0.48600   0.01267  Uiso   1.00
H26    H     0.31260   0.53810   0.64260   0.01267  Uiso   1.00
H27    H     0.29150   0.34960   0.76460   0.01267  Uiso   1.00
H28    H     0.17150   0.56950   0.90890   0.01267  Uiso   1.00
C1     C     0.33960   0.84070   0.80610   0.01267  Uiso   1.00
C2     C     0.37900   0.96550   0.83710   0.01267  Uiso   1.00
C3     C     0.52200   0.04090   0.88770   0.01267  Uiso   1.00
C4     C     0.62620   0.98970   0.90870   0.01267  Uiso   1.00
C5     C     0.58690   0.86580   0.87980   0.01267  Uiso   1.00
C6     C     0.44490   0.79130   0.82690   0.01267  Uiso   1.00
C7     C     0.18710   0.76100   0.74790   0.01267  Uiso   1.00
C8     C     0.56450   0.17540   0.91660   0.01267  Uiso   1.00
C9     C     0.60010   0.86850   0.62810   0.01267  Uiso   1.00
C10    C     0.70110   0.99100   0.64540   0.01267  Uiso   1.00
C11    C     0.65150   0.08430   0.63410   0.01267  Uiso   1.00
C12    C     0.49580   0.05260   0.60780   0.01267  Uiso   1.00
C13    C     0.39500   0.93120   0.59300   0.01267  Uiso   1.00
C14    C     0.44580   0.83790   0.60150   0.01267  Uiso   1.00
C15    C     0.65750   0.76950   0.63690   0.01267  Uiso   1.00
C16    C     0.76160   0.21510   0.64590   0.01267  Uiso   1.00
C17    C     0.19310   0.57210   0.17120   0.01267  Uiso   1.00
C18    C     0.28810   0.44780   0.20240   0.01267  Uiso   1.00
C19    C     0.96850   0.62990   0.49230   0.01267  Uiso   1.00
C20    C     0.76080   0.51340   0.40780   0.01267  Uiso   1.00
C21    C     0.71160   0.59590   0.18770   0.01267  Uiso   1.00
C22    C     0.77640   0.47660   0.10960   0.01267  Uiso   1.00
C23    C     0.66040   0.15930   0.19390   0.01267  Uiso   1.00
C24    C     0.62100   0.03450   0.16290   0.01267  Uiso   1.00
C25    C     0.47800   0.95910   0.11230   0.01267  Uiso   1.00
C26    C     0.37380   0.01030   0.09130   0.01267  Uiso   1.00
C27    C     0.41310   0.13420   0.12020   0.01267  Uiso   1.00
C28    C     0.55510   0.20870   0.17310   0.01267  Uiso   1.00
C29    C     0.81290   0.23900   0.25210   0.01267  Uiso   1.00
C30    C     0.43550   0.82460   0.08340   0.01267  Uiso   1.00
C31    C     0.39990   0.13150   0.37190   0.01267  Uiso   1.00
C32    C     0.29890   0.00900   0.35460   0.01267  Uiso   1.00
C33    C     0.34850   0.91570   0.36590   0.01267  Uiso   1.00
C34    C     0.50420   0.94740   0.39220   0.01267  Uiso   1.00
C35    C     0.60500   0.06880   0.40700   0.01267  Uiso   1.00
C36    C     0.55420   0.16210   0.39850   0.01267  Uiso   1.00
C37    C     0.34250   0.23050   0.36310   0.01267  Uiso   1.00
C38    C     0.23840   0.78490   0.35410   0.01267  Uiso   1.00
C39    C     0.80690   0.42790   0.82880   0.01267  Uiso   1.00
C40    C     0.71190   0.55220   0.79760   0.01267  Uiso   1.00
C41    C     0.03150   0.37010   0.50770   0.01267  Uiso   1.00
C42    C     0.23920   0.48660   0.59220   0.01267  Uiso   1.00
C43    C     0.28840   0.40410   0.81230   0.01267  Uiso   1.00
C44    C     0.22360   0.52340   0.89040   0.01267  Uiso   1.00
N1     N     0.18340   0.43210   0.24970   0.01267  Uiso   1.00
N2     N     0.12120   0.51390   0.22850   0.01267  Uiso   1.00
N3     N     0.29990   0.53470   0.15210   0.01267  Uiso   1.00
N4     N     0.86680   0.61470   0.54180   0.01267  Uiso   1.00
N5     N     0.72990   0.53910   0.48570   0.01267  Uiso   1.00
N6     N     0.90750   0.56770   0.40720   0.01267  Uiso   1.00
N7     N     0.81610   0.54920   0.19110   0.01267  Uiso   1.00
N8     N     0.65500   0.47770   0.05820   0.01267  Uiso   1.00
N9     N     0.61210   0.55570   0.10840   0.01267  Uiso   1.00
N10    N     0.81660   0.56790   0.75030   0.01267  Uiso   1.00
N11    N     0.87880   0.48610   0.77150   0.01267  Uiso   1.00
N12    N     0.70010   0.46530   0.84790   0.01267  Uiso   1.00
N13    N     0.13320   0.38530   0.45820   0.01267  Uiso   1.00
N14    N     0.27010   0.46090   0.51430   0.01267  Uiso   1.00
N15    N     0.09250   0.43230   0.59280   0.01267  Uiso   1.00
N16    N     0.18390   0.45080   0.80890   0.01267  Uiso   1.00
N17    N     0.34500   0.52230   0.94180   0.01267  Uiso   1.00
N18    N     0.38790   0.44430   0.89160   0.01267  Uiso   1.00
O1     O     0.15380   0.65120   0.71820   0.01267  Uiso   1.00
O2     O     0.09400   0.81200   0.73040   0.01267  Uiso   1.00
O3     O     0.46310   0.21590   0.89430   0.01267  Uiso   1.00
O4     O     0.69410   0.24540   0.95740   0.01267  Uiso   1.00
O5     O     0.57090   0.65820   0.61480   0.01267  Uiso   1.00
O6     O     0.79850   0.80700   0.66870   0.01267  Uiso   1.00
O7     O     0.89300   0.24490   0.69580   0.01267  Uiso   1.00
O8     O     0.72760   0.29040   0.60790   0.01267  Uiso   1.00
O9     O     0.84620   0.34880   0.28180   0.01267  Uiso   1.00
O10    O     0.90600   0.18800   0.26960   0.01267  Uiso   1.00
O11    O     0.53690   0.78410   0.10570   0.01267  Uiso   1.00
O12    O     0.30590   0.75460   0.04260   0.01267  Uiso   1.00
O13    O     0.42910   0.34180   0.38520   0.01267  Uiso   1.00
O14    O     0.20150   0.19300   0.33130   0.01267  Uiso   1.00
O15    O     0.10700   0.75510   0.30420   0.01267  Uiso   1.00
O16    O     0.27240   0.70960   0.39210   0.01267  Uiso   1.00
