data_image0
_cell_length_a       18.1111
_cell_length_b       18.1111
_cell_length_c       11.2507
_cell_angle_alpha    90
_cell_angle_beta     90
_cell_angle_gamma    90

_symmetry_space_group_name_H-M    "P 1"
_symmetry_int_tables_number       1

loop_
  _symmetry_equiv_pos_as_xyz
  'x, y, z'

loop_
  _atom_site_label
  _atom_site_occupancy
  _atom_site_fract_x
  _atom_site_fract_y
  _atom_site_fract_z
  _atom_site_thermal_displace_type
  _atom_site_B_iso_or_equiv
  _atom_site_type_symbol
  Zn1      1.0000 0.21145  0.42349  0.16977  Biso   1.000  Zn
  C1       1.0000 0.28580  0.34670  0.38340  Biso   1.000  C
  C2       1.0000 0.22020  0.36380  0.46100  Biso   1.000  C
  H1       1.0000 0.18710  0.32170  0.45950  Biso   1.000  H
  H2       1.0000 0.23760  0.36930  0.54210  Biso   1.000  H
  C3       1.0000 0.17680  0.43120  0.42950  Biso   1.000  C
  C4       1.0000 0.10820  0.52760  0.44580  Biso   1.000  C
  C5       1.0000 0.06340  0.58680  0.49780  Biso   1.000  C
  C6       1.0000 0.04390  0.58740  0.61690  Biso   1.000  C
  H3       1.0000 0.05790  0.54880  0.66650  Biso   1.000  H
  C7       1.0000 0.00330  0.64610  0.66140  Biso   1.000  C
  H4       1.0000 0.99130  0.64640  0.74180  Biso   1.000  H
  C8       1.0000 0.99780  0.70000  0.47940  Biso   1.000  C
  H5       1.0000 0.98130  0.73820  0.43090  Biso   1.000  H
  C9       1.0000 0.03850  0.64420  0.42790  Biso   1.000  C
  H6       1.0000 0.04890  0.64520  0.34700  Biso   1.000  H
  N1       1.0000 0.16770  0.45990  0.32360  Biso   1.000  N
  N2       1.0000 0.12400  0.52220  0.33320  Biso   1.000  N
  N3       1.0000 0.13990  0.47220  0.50660  Biso   1.000  N
  H7       1.0000 0.13720  0.46500  0.58200  Biso   1.000  H
  N4       1.0000 0.98130  0.70230  0.59420  Biso   1.000  N
  O1       1.0000 0.28962  0.36657  0.27810  Biso   1.000  O
  O2       1.0000 0.33578  0.30831  0.43240  Biso   1.000  O
  Zn2      1.0000 0.28855  0.07651  0.16977  Biso   1.000  Zn
  C10      1.0000 0.21420  0.15330  0.38340  Biso   1.000  C
  C11      1.0000 0.27980  0.13620  0.46100  Biso   1.000  C
  H8       1.0000 0.31290  0.17830  0.45950  Biso   1.000  H
  H9       1.0000 0.26240  0.13070  0.54210  Biso   1.000  H
  C12      1.0000 0.32320  0.06880  0.42950  Biso   1.000  C
  C13      1.0000 0.39180  0.97240  0.44580  Biso   1.000  C
  C14      1.0000 0.43660  0.91320  0.49780  Biso   1.000  C
  C15      1.0000 0.45610  0.91260  0.61690  Biso   1.000  C
  H10      1.0000 0.44210  0.95120  0.66650  Biso   1.000  H
  C16      1.0000 0.49670  0.85390  0.66140  Biso   1.000  C
  H11      1.0000 0.50870  0.85360  0.74180  Biso   1.000  H
  C17      1.0000 0.50220  0.80000  0.47940  Biso   1.000  C
  H12      1.0000 0.51870  0.76180  0.43090  Biso   1.000  H
  C18      1.0000 0.46150  0.85580  0.42790  Biso   1.000  C
  H13      1.0000 0.45110  0.85480  0.34700  Biso   1.000  H
  N5       1.0000 0.33230  0.04010  0.32360  Biso   1.000  N
  N6       1.0000 0.37600  0.97780  0.33320  Biso   1.000  N
  N7       1.0000 0.36010  0.02780  0.50660  Biso   1.000  N
  H14      1.0000 0.36280  0.03500  0.58200  Biso   1.000  H
  N8       1.0000 0.51870  0.79770  0.59420  Biso   1.000  N
  O3       1.0000 0.21038  0.13343  0.27810  Biso   1.000  O
  O4       1.0000 0.16422  0.19169  0.43240  Biso   1.000  O
  Zn3      1.0000 0.57651  0.71145  0.66977  Biso   1.000  Zn
  C19      1.0000 0.65330  0.78580  0.88340  Biso   1.000  C
  C20      1.0000 0.63620  0.72020  0.96100  Biso   1.000  C
  H15      1.0000 0.67830  0.68710  0.95950  Biso   1.000  H
  H16      1.0000 0.63070  0.73760  0.04210  Biso   1.000  H
  C21      1.0000 0.56880  0.67680  0.92950  Biso   1.000  C
  C22      1.0000 0.47240  0.60820  0.94580  Biso   1.000  C
  C23      1.0000 0.41320  0.56340  0.99780  Biso   1.000  C
  C24      1.0000 0.41260  0.54390  0.11690  Biso   1.000  C
  H17      1.0000 0.45120  0.55790  0.16650  Biso   1.000  H
  C25      1.0000 0.35390  0.50330  0.16140  Biso   1.000  C
  H18      1.0000 0.35360  0.49130  0.24180  Biso   1.000  H
  C26      1.0000 0.30000  0.49780  0.97940  Biso   1.000  C
  H19      1.0000 0.26180  0.48130  0.93090  Biso   1.000  H
  C27      1.0000 0.35580  0.53850  0.92790  Biso   1.000  C
  H20      1.0000 0.35480  0.54890  0.84700  Biso   1.000  H
  N9       1.0000 0.54010  0.66770  0.82360  Biso   1.000  N
  N10      1.0000 0.47780  0.62400  0.83320  Biso   1.000  N
  N11      1.0000 0.52780  0.63990  0.00660  Biso   1.000  N
  H21      1.0000 0.53500  0.63720  0.08200  Biso   1.000  H
  N12      1.0000 0.29770  0.48130  0.09420  Biso   1.000  N
  O5       1.0000 0.63343  0.78962  0.77810  Biso   1.000  O
  O6       1.0000 0.69169  0.83578  0.93240  Biso   1.000  O
  Zn4      1.0000 0.92349  0.78855  0.66977  Biso   1.000  Zn
  C28      1.0000 0.84670  0.71420  0.88340  Biso   1.000  C
  C29      1.0000 0.86380  0.77980  0.96100  Biso   1.000  C
  H22      1.0000 0.82170  0.81290  0.95950  Biso   1.000  H
  H23      1.0000 0.86930  0.76240  0.04210  Biso   1.000  H
  C30      1.0000 0.93120  0.82320  0.92950  Biso   1.000  C
  C31      1.0000 0.02760  0.89180  0.94580  Biso   1.000  C
  C32      1.0000 0.08680  0.93660  0.99780  Biso   1.000  C
  C33      1.0000 0.08740  0.95610  0.11690  Biso   1.000  C
  H24      1.0000 0.04880  0.94210  0.16650  Biso   1.000  H
  C34      1.0000 0.14610  0.99670  0.16140  Biso   1.000  C
  H25      1.0000 0.14640  0.00870  0.24180  Biso   1.000  H
  C35      1.0000 0.20000  0.00220  0.97940  Biso   1.000  C
  H26      1.0000 0.23820  0.01870  0.93090  Biso   1.000  H
  C36      1.0000 0.14420  0.96150  0.92790  Biso   1.000  C
  H27      1.0000 0.14520  0.95110  0.84700  Biso   1.000  H
  N13      1.0000 0.95990  0.83230  0.82360  Biso   1.000  N
  N14      1.0000 0.02220  0.87600  0.83320  Biso   1.000  N
  N15      1.0000 0.97220  0.86010  0.00660  Biso   1.000  N
  H28      1.0000 0.96500  0.86280  0.08200  Biso   1.000  H
  N16      1.0000 0.20230  0.01870  0.09420  Biso   1.000  N
  O7       1.0000 0.86657  0.71038  0.77810  Biso   1.000  O
  O8       1.0000 0.80831  0.66422  0.93240  Biso   1.000  O
  Zn5      1.0000 0.78855  0.57651  0.83023  Biso   1.000  Zn
  C37      1.0000 0.71420  0.65330  0.61660  Biso   1.000  C
  C38      1.0000 0.77980  0.63620  0.53900  Biso   1.000  C
  H29      1.0000 0.81290  0.67830  0.54050  Biso   1.000  H
  H30      1.0000 0.76240  0.63070  0.45790  Biso   1.000  H
  C39      1.0000 0.82320  0.56880  0.57050  Biso   1.000  C
  C40      1.0000 0.89180  0.47240  0.55420  Biso   1.000  C
  C41      1.0000 0.93660  0.41320  0.50220  Biso   1.000  C
  C42      1.0000 0.95610  0.41260  0.38310  Biso   1.000  C
  H31      1.0000 0.94210  0.45120  0.33350  Biso   1.000  H
  C43      1.0000 0.99670  0.35390  0.33860  Biso   1.000  C
  H32      1.0000 0.00870  0.35360  0.25820  Biso   1.000  H
  C44      1.0000 0.00220  0.30000  0.52060  Biso   1.000  C
  H33      1.0000 0.01870  0.26180  0.56910  Biso   1.000  H
  C45      1.0000 0.96150  0.35580  0.57210  Biso   1.000  C
  H34      1.0000 0.95110  0.35480  0.65300  Biso   1.000  H
  N17      1.0000 0.83230  0.54010  0.67640  Biso   1.000  N
  N18      1.0000 0.87600  0.47780  0.66680  Biso   1.000  N
  N19      1.0000 0.86010  0.52780  0.49340  Biso   1.000  N
  H35      1.0000 0.86280  0.53500  0.41800  Biso   1.000  H
  N20      1.0000 0.01870  0.29770  0.40580  Biso   1.000  N
  O9       1.0000 0.71038  0.63343  0.72190  Biso   1.000  O
  O10      1.0000 0.66422  0.69169  0.56760  Biso   1.000  O
  Zn6      1.0000 0.71145  0.92349  0.83023  Biso   1.000  Zn
  C46      1.0000 0.78580  0.84670  0.61660  Biso   1.000  C
  C47      1.0000 0.72020  0.86380  0.53900  Biso   1.000  C
  H36      1.0000 0.68710  0.82170  0.54050  Biso   1.000  H
  H37      1.0000 0.73760  0.86930  0.45790  Biso   1.000  H
  C48      1.0000 0.67680  0.93120  0.57050  Biso   1.000  C
  C49      1.0000 0.60820  0.02760  0.55420  Biso   1.000  C
  C50      1.0000 0.56340  0.08680  0.50220  Biso   1.000  C
  C51      1.0000 0.54390  0.08740  0.38310  Biso   1.000  C
  H38      1.0000 0.55790  0.04880  0.33350  Biso   1.000  H
  C52      1.0000 0.50330  0.14610  0.33860  Biso   1.000  C
  H39      1.0000 0.49130  0.14640  0.25820  Biso   1.000  H
  C53      1.0000 0.49780  0.20000  0.52060  Biso   1.000  C
  H40      1.0000 0.48130  0.23820  0.56910  Biso   1.000  H
  C54      1.0000 0.53850  0.14420  0.57210  Biso   1.000  C
  H41      1.0000 0.54890  0.14520  0.65300  Biso   1.000  H
  N21      1.0000 0.66770  0.95990  0.67640  Biso   1.000  N
  N22      1.0000 0.62400  0.02220  0.66680  Biso   1.000  N
  N23      1.0000 0.63990  0.97220  0.49340  Biso   1.000  N
  H42      1.0000 0.63720  0.96500  0.41800  Biso   1.000  H
  N24      1.0000 0.48130  0.20230  0.40580  Biso   1.000  N
  O11      1.0000 0.78962  0.86657  0.72190  Biso   1.000  O
  O12      1.0000 0.83578  0.80831  0.56760  Biso   1.000  O
  Zn7      1.0000 0.42349  0.28855  0.33023  Biso   1.000  Zn
  C55      1.0000 0.34670  0.21420  0.11660  Biso   1.000  C
  C56      1.0000 0.36380  0.27980  0.03900  Biso   1.000  C
  H43      1.0000 0.32170  0.31290  0.04050  Biso   1.000  H
  H44      1.0000 0.36930  0.26240  0.95790  Biso   1.000  H
  C57      1.0000 0.43120  0.32320  0.07050  Biso   1.000  C
  C58      1.0000 0.52760  0.39180  0.05420  Biso   1.000  C
  C59      1.0000 0.58680  0.43660  0.00220  Biso   1.000  C
  C60      1.0000 0.58740  0.45610  0.88310  Biso   1.000  C
  H45      1.0000 0.54880  0.44210  0.83350  Biso   1.000  H
  C61      1.0000 0.64610  0.49670  0.83860  Biso   1.000  C
  H46      1.0000 0.64640  0.50870  0.75820  Biso   1.000  H
  C62      1.0000 0.70000  0.50220  0.02060  Biso   1.000  C
  H47      1.0000 0.73820  0.51870  0.06910  Biso   1.000  H
  C63      1.0000 0.64420  0.46150  0.07210  Biso   1.000  C
  H48      1.0000 0.64520  0.45110  0.15300  Biso   1.000  H
  N25      1.0000 0.45990  0.33230  0.17640  Biso   1.000  N
  N26      1.0000 0.52220  0.37600  0.16680  Biso   1.000  N
  N27      1.0000 0.47220  0.36010  0.99340  Biso   1.000  N
  H49      1.0000 0.46500  0.36280  0.91800  Biso   1.000  H
  N28      1.0000 0.70230  0.51870  0.90580  Biso   1.000  N
  O13      1.0000 0.36657  0.21038  0.22190  Biso   1.000  O
  O14      1.0000 0.30831  0.16422  0.06760  Biso   1.000  O
  Zn8      1.0000 0.07651  0.21145  0.33023  Biso   1.000  Zn
  C64      1.0000 0.15330  0.28580  0.11660  Biso   1.000  C
  C65      1.0000 0.13620  0.22020  0.03900  Biso   1.000  C
  H50      1.0000 0.17830  0.18710  0.04050  Biso   1.000  H
  H51      1.0000 0.13070  0.23760  0.95790  Biso   1.000  H
  C66      1.0000 0.06880  0.17680  0.07050  Biso   1.000  C
  C67      1.0000 0.97240  0.10820  0.05420  Biso   1.000  C
  C68      1.0000 0.91320  0.06340  0.00220  Biso   1.000  C
  C69      1.0000 0.91260  0.04390  0.88310  Biso   1.000  C
  H52      1.0000 0.95120  0.05790  0.83350  Biso   1.000  H
  C70      1.0000 0.85390  0.00330  0.83860  Biso   1.000  C
  H53      1.0000 0.85360  0.99130  0.75820  Biso   1.000  H
  C71      1.0000 0.80000  0.99780  0.02060  Biso   1.000  C
  H54      1.0000 0.76180  0.98130  0.06910  Biso   1.000  H
  C72      1.0000 0.85580  0.03850  0.07210  Biso   1.000  C
  H55      1.0000 0.85480  0.04890  0.15300  Biso   1.000  H
  N29      1.0000 0.04010  0.16770  0.17640  Biso   1.000  N
  N30      1.0000 0.97780  0.12400  0.16680  Biso   1.000  N
  N31      1.0000 0.02780  0.13990  0.99340  Biso   1.000  N
  H56      1.0000 0.03500  0.13720  0.91800  Biso   1.000  H
  N32      1.0000 0.79770  0.98130  0.90580  Biso   1.000  N
  O15      1.0000 0.13343  0.28962  0.22190  Biso   1.000  O
  O16      1.0000 0.19169  0.33578  0.06760  Biso   1.000  O
