data_image0
_cell_length_a       28.691
_cell_length_b       29.061
_cell_length_c       12.4918
_cell_angle_alpha    90
_cell_angle_beta     90
_cell_angle_gamma    90

_symmetry_space_group_name_H-M    "P 1"
_symmetry_int_tables_number       1

loop_
  _symmetry_equiv_pos_as_xyz
  'x, y, z'

loop_
  _atom_site_label
  _atom_site_occupancy
  _atom_site_fract_x
  _atom_site_fract_y
  _atom_site_fract_z
  _atom_site_thermal_displace_type
  _atom_site_B_iso_or_equiv
  _atom_site_type_symbol
  O1       1.0000 0.69617  0.49070  0.81062  Biso   1.000  O
  O2       1.0000 0.74503  0.44708  0.44129  Biso   1.000  O
  O3       1.0000 0.65472  0.44146  0.90130  Biso   1.000  O
  O4       1.0000 0.69651  0.40637  0.34515  Biso   1.000  O
  C1       1.0000 0.66367  0.42836  0.71470  Biso   1.000  C
  C2       1.0000 0.62114  0.36951  0.62046  Biso   1.000  C
  C3       1.0000 0.68921  0.43755  0.62350  Biso   1.000  C
  H1       1.0000 0.71240  0.46090  0.62450  Biso   1.000  H
  C4       1.0000 0.68126  0.41316  0.53169  Biso   1.000  C
  C5       1.0000 0.53792  0.34678  0.61942  Biso   1.000  C
  C6       1.0000 0.59800  0.28754  0.61641  Biso   1.000  C
  C7       1.0000 0.58420  0.33290  0.61844  Biso   1.000  C
  C8       1.0000 0.62989  0.39408  0.71296  Biso   1.000  C
  H2       1.0000 0.61260  0.38750  0.77600  Biso   1.000  H
  C9       1.0000 0.64689  0.37907  0.52918  Biso   1.000  C
  H3       1.0000 0.64120  0.36250  0.46500  Biso   1.000  H
  C10      1.0000 0.64588  0.27310  0.61814  Biso   1.000  C
  H4       1.0000 0.67250  0.29250  0.61910  Biso   1.000  H
  C11      1.0000 0.52343  0.39367  0.62003  Biso   1.000  C
  H5       1.0000 0.54310  0.41990  0.62040  Biso   1.000  H
  C12      1.0000 0.67219  0.45531  0.81713  Biso   1.000  C
  C13      1.0000 0.70940  0.42301  0.43197  Biso   1.000  C
  O5       1.0000 0.19617  0.99070  0.31062  Biso   1.000  O
  O6       1.0000 0.24503  0.94708  0.94129  Biso   1.000  O
  O7       1.0000 0.15472  0.94146  0.40130  Biso   1.000  O
  O8       1.0000 0.19651  0.90637  0.84515  Biso   1.000  O
  C14      1.0000 0.16367  0.92836  0.21470  Biso   1.000  C
  C15      1.0000 0.12114  0.86951  0.12046  Biso   1.000  C
  C16      1.0000 0.18921  0.93755  0.12350  Biso   1.000  C
  H6       1.0000 0.21240  0.96090  0.12450  Biso   1.000  H
  C17      1.0000 0.18126  0.91316  0.03169  Biso   1.000  C
  C18      1.0000 0.03792  0.84678  0.11942  Biso   1.000  C
  C19      1.0000 0.09800  0.78754  0.11641  Biso   1.000  C
  C20      1.0000 0.08420  0.83290  0.11844  Biso   1.000  C
  C21      1.0000 0.12989  0.89408  0.21296  Biso   1.000  C
  H7       1.0000 0.11260  0.88750  0.27600  Biso   1.000  H
  C22      1.0000 0.14689  0.87907  0.02918  Biso   1.000  C
  H8       1.0000 0.14120  0.86250  0.96500  Biso   1.000  H
  C23      1.0000 0.14588  0.77310  0.11814  Biso   1.000  C
  H9       1.0000 0.17250  0.79250  0.11910  Biso   1.000  H
  C24      1.0000 0.02343  0.89367  0.12003  Biso   1.000  C
  H10      1.0000 0.04310  0.91990  0.12040  Biso   1.000  H
  C25      1.0000 0.17219  0.95531  0.31713  Biso   1.000  C
  C26      1.0000 0.20940  0.92301  0.93197  Biso   1.000  C
  O9       1.0000 0.30383  0.00930  0.81062  Biso   1.000  O
  O10      1.0000 0.25497  0.05292  0.44129  Biso   1.000  O
  O11      1.0000 0.34528  0.05854  0.90130  Biso   1.000  O
  O12      1.0000 0.30349  0.09363  0.34515  Biso   1.000  O
  C27      1.0000 0.33633  0.07164  0.71470  Biso   1.000  C
  C28      1.0000 0.37886  0.13049  0.62046  Biso   1.000  C
  C29      1.0000 0.31079  0.06245  0.62350  Biso   1.000  C
  H11      1.0000 0.28760  0.03910  0.62450  Biso   1.000  H
  C30      1.0000 0.31874  0.08684  0.53169  Biso   1.000  C
  C31      1.0000 0.46208  0.15322  0.61942  Biso   1.000  C
  C32      1.0000 0.40200  0.21246  0.61641  Biso   1.000  C
  C33      1.0000 0.41580  0.16710  0.61844  Biso   1.000  C
  C34      1.0000 0.37011  0.10592  0.71296  Biso   1.000  C
  H12      1.0000 0.38740  0.11250  0.77600  Biso   1.000  H
  C35      1.0000 0.35311  0.12093  0.52918  Biso   1.000  C
  H13      1.0000 0.35880  0.13750  0.46500  Biso   1.000  H
  C36      1.0000 0.35412  0.22690  0.61814  Biso   1.000  C
  H14      1.0000 0.32750  0.20750  0.61910  Biso   1.000  H
  C37      1.0000 0.47657  0.10633  0.62003  Biso   1.000  C
  H15      1.0000 0.45690  0.08010  0.62040  Biso   1.000  H
  C38      1.0000 0.32781  0.04469  0.81713  Biso   1.000  C
  C39      1.0000 0.29060  0.07699  0.43197  Biso   1.000  C
  O13      1.0000 0.80383  0.50930  0.31062  Biso   1.000  O
  O14      1.0000 0.75497  0.55292  0.94129  Biso   1.000  O
  O15      1.0000 0.84528  0.55854  0.40130  Biso   1.000  O
  O16      1.0000 0.80349  0.59363  0.84515  Biso   1.000  O
  C40      1.0000 0.83633  0.57164  0.21470  Biso   1.000  C
  C41      1.0000 0.87886  0.63049  0.12046  Biso   1.000  C
  C42      1.0000 0.81079  0.56245  0.12350  Biso   1.000  C
  H16      1.0000 0.78760  0.53910  0.12450  Biso   1.000  H
  C43      1.0000 0.81874  0.58684  0.03169  Biso   1.000  C
  C44      1.0000 0.96208  0.65322  0.11942  Biso   1.000  C
  C45      1.0000 0.90200  0.71246  0.11641  Biso   1.000  C
  C46      1.0000 0.91580  0.66710  0.11844  Biso   1.000  C
  C47      1.0000 0.87011  0.60592  0.21296  Biso   1.000  C
  H17      1.0000 0.88740  0.61250  0.27600  Biso   1.000  H
  C48      1.0000 0.85311  0.62093  0.02918  Biso   1.000  C
  H18      1.0000 0.85880  0.63750  0.96500  Biso   1.000  H
  C49      1.0000 0.85412  0.72690  0.11814  Biso   1.000  C
  H19      1.0000 0.82750  0.70750  0.11910  Biso   1.000  H
  C50      1.0000 0.97657  0.60633  0.12003  Biso   1.000  C
  H20      1.0000 0.95690  0.58010  0.12040  Biso   1.000  H
  C51      1.0000 0.82781  0.54469  0.31713  Biso   1.000  C
  C52      1.0000 0.79060  0.57699  0.93197  Biso   1.000  C
  O17      1.0000 0.30383  0.99070  0.18938  Biso   1.000  O
  O18      1.0000 0.25497  0.94708  0.55871  Biso   1.000  O
  O19      1.0000 0.34528  0.94146  0.09870  Biso   1.000  O
  O20      1.0000 0.30349  0.90637  0.65485  Biso   1.000  O
  C53      1.0000 0.33633  0.92836  0.28530  Biso   1.000  C
  C54      1.0000 0.37886  0.86951  0.37954  Biso   1.000  C
  C55      1.0000 0.31079  0.93755  0.37650  Biso   1.000  C
  H21      1.0000 0.28760  0.96090  0.37550  Biso   1.000  H
  C56      1.0000 0.31874  0.91316  0.46831  Biso   1.000  C
  C57      1.0000 0.46208  0.84678  0.38058  Biso   1.000  C
  C58      1.0000 0.40200  0.78754  0.38359  Biso   1.000  C
  C59      1.0000 0.41580  0.83290  0.38156  Biso   1.000  C
  C60      1.0000 0.37011  0.89408  0.28704  Biso   1.000  C
  H22      1.0000 0.38740  0.88750  0.22400  Biso   1.000  H
  C61      1.0000 0.35311  0.87907  0.47082  Biso   1.000  C
  H23      1.0000 0.35880  0.86250  0.53500  Biso   1.000  H
  C62      1.0000 0.35412  0.77310  0.38186  Biso   1.000  C
  H24      1.0000 0.32750  0.79250  0.38090  Biso   1.000  H
  C63      1.0000 0.47657  0.89367  0.37997  Biso   1.000  C
  H25      1.0000 0.45690  0.91990  0.37960  Biso   1.000  H
  C64      1.0000 0.32781  0.95531  0.18287  Biso   1.000  C
  C65      1.0000 0.29060  0.92301  0.56803  Biso   1.000  C
  O21      1.0000 0.80383  0.49070  0.68938  Biso   1.000  O
  O22      1.0000 0.75497  0.44708  0.05871  Biso   1.000  O
  O23      1.0000 0.84528  0.44146  0.59870  Biso   1.000  O
  O24      1.0000 0.80349  0.40637  0.15485  Biso   1.000  O
  C66      1.0000 0.83633  0.42836  0.78530  Biso   1.000  C
  C67      1.0000 0.87886  0.36951  0.87954  Biso   1.000  C
  C68      1.0000 0.81079  0.43755  0.87650  Biso   1.000  C
  H26      1.0000 0.78760  0.46090  0.87550  Biso   1.000  H
  C69      1.0000 0.81874  0.41316  0.96831  Biso   1.000  C
  C70      1.0000 0.96208  0.34678  0.88058  Biso   1.000  C
  C71      1.0000 0.90200  0.28754  0.88359  Biso   1.000  C
  C72      1.0000 0.91580  0.33290  0.88156  Biso   1.000  C
  C73      1.0000 0.87011  0.39408  0.78704  Biso   1.000  C
  H27      1.0000 0.88740  0.38750  0.72400  Biso   1.000  H
  C74      1.0000 0.85311  0.37907  0.97082  Biso   1.000  C
  H28      1.0000 0.85880  0.36250  0.03500  Biso   1.000  H
  C75      1.0000 0.85412  0.27310  0.88186  Biso   1.000  C
  H29      1.0000 0.82750  0.29250  0.88090  Biso   1.000  H
  C76      1.0000 0.97657  0.39367  0.87997  Biso   1.000  C
  H30      1.0000 0.95690  0.41990  0.87960  Biso   1.000  H
  C77      1.0000 0.82781  0.45531  0.68287  Biso   1.000  C
  C78      1.0000 0.79060  0.42301  0.06803  Biso   1.000  C
  O25      1.0000 0.69617  0.50930  0.18938  Biso   1.000  O
  O26      1.0000 0.74503  0.55292  0.55871  Biso   1.000  O
  O27      1.0000 0.65472  0.55854  0.09870  Biso   1.000  O
  O28      1.0000 0.69651  0.59363  0.65485  Biso   1.000  O
  C79      1.0000 0.66367  0.57164  0.28530  Biso   1.000  C
  C80      1.0000 0.62114  0.63049  0.37954  Biso   1.000  C
  C81      1.0000 0.68921  0.56245  0.37650  Biso   1.000  C
  H31      1.0000 0.71240  0.53910  0.37550  Biso   1.000  H
  C82      1.0000 0.68126  0.58684  0.46831  Biso   1.000  C
  C83      1.0000 0.53792  0.65322  0.38058  Biso   1.000  C
  C84      1.0000 0.59800  0.71246  0.38359  Biso   1.000  C
  C85      1.0000 0.58420  0.66710  0.38156  Biso   1.000  C
  C86      1.0000 0.62989  0.60592  0.28704  Biso   1.000  C
  H32      1.0000 0.61260  0.61250  0.22400  Biso   1.000  H
  C87      1.0000 0.64689  0.62093  0.47082  Biso   1.000  C
  H33      1.0000 0.64120  0.63750  0.53500  Biso   1.000  H
  C88      1.0000 0.64588  0.72690  0.38186  Biso   1.000  C
  H34      1.0000 0.67250  0.70750  0.38090  Biso   1.000  H
  C89      1.0000 0.52343  0.60633  0.37997  Biso   1.000  C
  H35      1.0000 0.54310  0.58010  0.37960  Biso   1.000  H
  C90      1.0000 0.67219  0.54469  0.18287  Biso   1.000  C
  C91      1.0000 0.70940  0.57699  0.56803  Biso   1.000  C
  O29      1.0000 0.19617  0.00930  0.68938  Biso   1.000  O
  O30      1.0000 0.24503  0.05292  0.05871  Biso   1.000  O
  O31      1.0000 0.15472  0.05854  0.59870  Biso   1.000  O
  O32      1.0000 0.19651  0.09363  0.15485  Biso   1.000  O
  C92      1.0000 0.16367  0.07164  0.78530  Biso   1.000  C
  C93      1.0000 0.12114  0.13049  0.87954  Biso   1.000  C
  C94      1.0000 0.18921  0.06245  0.87650  Biso   1.000  C
  H36      1.0000 0.21240  0.03910  0.87550  Biso   1.000  H
  C95      1.0000 0.18126  0.08684  0.96831  Biso   1.000  C
  C96      1.0000 0.03792  0.15322  0.88058  Biso   1.000  C
  C97      1.0000 0.09800  0.21246  0.88359  Biso   1.000  C
  C98      1.0000 0.08420  0.16710  0.88156  Biso   1.000  C
  C99      1.0000 0.12989  0.10592  0.78704  Biso   1.000  C
  H37      1.0000 0.11260  0.11250  0.72400  Biso   1.000  H
  C100     1.0000 0.14689  0.12093  0.97082  Biso   1.000  C
  H38      1.0000 0.14120  0.13750  0.03500  Biso   1.000  H
  C101     1.0000 0.14588  0.22690  0.88186  Biso   1.000  C
  H39      1.0000 0.17250  0.20750  0.88090  Biso   1.000  H
  C102     1.0000 0.02343  0.10633  0.87997  Biso   1.000  C
  H40      1.0000 0.04310  0.08010  0.87960  Biso   1.000  H
  C103     1.0000 0.17219  0.04469  0.68287  Biso   1.000  C
  C104     1.0000 0.20940  0.07699  0.06803  Biso   1.000  C
  O33      1.0000 0.30383  0.50930  0.18938  Biso   1.000  O
  O34      1.0000 0.25497  0.55292  0.55871  Biso   1.000  O
  O35      1.0000 0.34528  0.55854  0.09870  Biso   1.000  O
  O36      1.0000 0.30349  0.59363  0.65485  Biso   1.000  O
  C105     1.0000 0.33633  0.57164  0.28530  Biso   1.000  C
  C106     1.0000 0.37886  0.63049  0.37954  Biso   1.000  C
  C107     1.0000 0.31079  0.56245  0.37650  Biso   1.000  C
  H41      1.0000 0.28760  0.53910  0.37550  Biso   1.000  H
  C108     1.0000 0.31874  0.58684  0.46831  Biso   1.000  C
  C109     1.0000 0.46208  0.65322  0.38058  Biso   1.000  C
  C110     1.0000 0.40200  0.71246  0.38359  Biso   1.000  C
  C111     1.0000 0.41580  0.66710  0.38156  Biso   1.000  C
  C112     1.0000 0.37011  0.60592  0.28704  Biso   1.000  C
  H42      1.0000 0.38740  0.61250  0.22400  Biso   1.000  H
  C113     1.0000 0.35311  0.62093  0.47082  Biso   1.000  C
  H43      1.0000 0.35880  0.63750  0.53500  Biso   1.000  H
  C114     1.0000 0.35412  0.72690  0.38186  Biso   1.000  C
  H44      1.0000 0.32750  0.70750  0.38090  Biso   1.000  H
  C115     1.0000 0.47657  0.60633  0.37997  Biso   1.000  C
  H45      1.0000 0.45690  0.58010  0.37960  Biso   1.000  H
  C116     1.0000 0.32781  0.54469  0.18287  Biso   1.000  C
  C117     1.0000 0.29060  0.57699  0.56803  Biso   1.000  C
  O37      1.0000 0.80383  0.00930  0.68938  Biso   1.000  O
  O38      1.0000 0.75497  0.05292  0.05871  Biso   1.000  O
  O39      1.0000 0.84528  0.05854  0.59870  Biso   1.000  O
  O40      1.0000 0.80349  0.09363  0.15485  Biso   1.000  O
  C118     1.0000 0.83633  0.07164  0.78530  Biso   1.000  C
  C119     1.0000 0.87886  0.13049  0.87954  Biso   1.000  C
  C120     1.0000 0.81079  0.06245  0.87650  Biso   1.000  C
  H46      1.0000 0.78760  0.03910  0.87550  Biso   1.000  H
  C121     1.0000 0.81874  0.08684  0.96831  Biso   1.000  C
  C122     1.0000 0.96208  0.15322  0.88058  Biso   1.000  C
  C123     1.0000 0.90200  0.21246  0.88359  Biso   1.000  C
  C124     1.0000 0.91580  0.16710  0.88156  Biso   1.000  C
  C125     1.0000 0.87011  0.10592  0.78704  Biso   1.000  C
  H47      1.0000 0.88740  0.11250  0.72400  Biso   1.000  H
  C126     1.0000 0.85311  0.12093  0.97082  Biso   1.000  C
  H48      1.0000 0.85880  0.13750  0.03500  Biso   1.000  H
  C127     1.0000 0.85412  0.22690  0.88186  Biso   1.000  C
  H49      1.0000 0.82750  0.20750  0.88090  Biso   1.000  H
  C128     1.0000 0.97657  0.10633  0.87997  Biso   1.000  C
  H50      1.0000 0.95690  0.08010  0.87960  Biso   1.000  H
  C129     1.0000 0.82781  0.04469  0.68287  Biso   1.000  C
  C130     1.0000 0.79060  0.07699  0.06803  Biso   1.000  C
  O41      1.0000 0.69617  0.99070  0.18938  Biso   1.000  O
  O42      1.0000 0.74503  0.94708  0.55871  Biso   1.000  O
  O43      1.0000 0.65472  0.94146  0.09870  Biso   1.000  O
  O44      1.0000 0.69651  0.90637  0.65485  Biso   1.000  O
  C131     1.0000 0.66367  0.92836  0.28530  Biso   1.000  C
  C132     1.0000 0.62114  0.86951  0.37954  Biso   1.000  C
  C133     1.0000 0.68921  0.93755  0.37650  Biso   1.000  C
  H51      1.0000 0.71240  0.96090  0.37550  Biso   1.000  H
  C134     1.0000 0.68126  0.91316  0.46831  Biso   1.000  C
  C135     1.0000 0.53792  0.84678  0.38058  Biso   1.000  C
  C136     1.0000 0.59800  0.78754  0.38359  Biso   1.000  C
  C137     1.0000 0.58420  0.83290  0.38156  Biso   1.000  C
  C138     1.0000 0.62989  0.89408  0.28704  Biso   1.000  C
  H52      1.0000 0.61260  0.88750  0.22400  Biso   1.000  H
  C139     1.0000 0.64689  0.87907  0.47082  Biso   1.000  C
  H53      1.0000 0.64120  0.86250  0.53500  Biso   1.000  H
  C140     1.0000 0.64588  0.77310  0.38186  Biso   1.000  C
  H54      1.0000 0.67250  0.79250  0.38090  Biso   1.000  H
  C141     1.0000 0.52343  0.89367  0.37997  Biso   1.000  C
  H55      1.0000 0.54310  0.91990  0.37960  Biso   1.000  H
  C142     1.0000 0.67219  0.95531  0.18287  Biso   1.000  C
  C143     1.0000 0.70940  0.92301  0.56803  Biso   1.000  C
  O45      1.0000 0.19617  0.49070  0.68938  Biso   1.000  O
  O46      1.0000 0.24503  0.44708  0.05871  Biso   1.000  O
  O47      1.0000 0.15472  0.44146  0.59870  Biso   1.000  O
  O48      1.0000 0.19651  0.40637  0.15485  Biso   1.000  O
  C144     1.0000 0.16367  0.42836  0.78530  Biso   1.000  C
  C145     1.0000 0.12114  0.36951  0.87954  Biso   1.000  C
  C146     1.0000 0.18921  0.43755  0.87650  Biso   1.000  C
  H56      1.0000 0.21240  0.46090  0.87550  Biso   1.000  H
  C147     1.0000 0.18126  0.41316  0.96831  Biso   1.000  C
  C148     1.0000 0.03792  0.34678  0.88058  Biso   1.000  C
  C149     1.0000 0.09800  0.28754  0.88359  Biso   1.000  C
  C150     1.0000 0.08420  0.33290  0.88156  Biso   1.000  C
  C151     1.0000 0.12989  0.39408  0.78704  Biso   1.000  C
  H57      1.0000 0.11260  0.38750  0.72400  Biso   1.000  H
  C152     1.0000 0.14689  0.37907  0.97082  Biso   1.000  C
  H58      1.0000 0.14120  0.36250  0.03500  Biso   1.000  H
  C153     1.0000 0.14588  0.27310  0.88186  Biso   1.000  C
  H59      1.0000 0.17250  0.29250  0.88090  Biso   1.000  H
  C154     1.0000 0.02343  0.39367  0.87997  Biso   1.000  C
  H60      1.0000 0.04310  0.41990  0.87960  Biso   1.000  H
  C155     1.0000 0.17219  0.45531  0.68287  Biso   1.000  C
  C156     1.0000 0.20940  0.42301  0.06803  Biso   1.000  C
  O49      1.0000 0.69617  0.00930  0.81062  Biso   1.000  O
  O50      1.0000 0.74503  0.05292  0.44129  Biso   1.000  O
  O51      1.0000 0.65472  0.05854  0.90130  Biso   1.000  O
  O52      1.0000 0.69651  0.09363  0.34515  Biso   1.000  O
  C157     1.0000 0.66367  0.07164  0.71470  Biso   1.000  C
  C158     1.0000 0.62114  0.13049  0.62046  Biso   1.000  C
  C159     1.0000 0.68921  0.06245  0.62350  Biso   1.000  C
  H61      1.0000 0.71240  0.03910  0.62450  Biso   1.000  H
  C160     1.0000 0.68126  0.08684  0.53169  Biso   1.000  C
  C161     1.0000 0.53792  0.15322  0.61942  Biso   1.000  C
  C162     1.0000 0.59800  0.21246  0.61641  Biso   1.000  C
  C163     1.0000 0.58420  0.16710  0.61844  Biso   1.000  C
  C164     1.0000 0.62989  0.10592  0.71296  Biso   1.000  C
  H62      1.0000 0.61260  0.11250  0.77600  Biso   1.000  H
  C165     1.0000 0.64689  0.12093  0.52918  Biso   1.000  C
  H63      1.0000 0.64120  0.13750  0.46500  Biso   1.000  H
  C166     1.0000 0.64588  0.22690  0.61814  Biso   1.000  C
  H64      1.0000 0.67250  0.20750  0.61910  Biso   1.000  H
  C167     1.0000 0.52343  0.10633  0.62003  Biso   1.000  C
  H65      1.0000 0.54310  0.08010  0.62040  Biso   1.000  H
  C168     1.0000 0.67219  0.04469  0.81713  Biso   1.000  C
  C169     1.0000 0.70940  0.07699  0.43197  Biso   1.000  C
  O53      1.0000 0.19617  0.50930  0.31062  Biso   1.000  O
  O54      1.0000 0.24503  0.55292  0.94129  Biso   1.000  O
  O55      1.0000 0.15472  0.55854  0.40130  Biso   1.000  O
  O56      1.0000 0.19651  0.59363  0.84515  Biso   1.000  O
  C170     1.0000 0.16367  0.57164  0.21470  Biso   1.000  C
  C171     1.0000 0.12114  0.63049  0.12046  Biso   1.000  C
  C172     1.0000 0.18921  0.56245  0.12350  Biso   1.000  C
  H66      1.0000 0.21240  0.53910  0.12450  Biso   1.000  H
  C173     1.0000 0.18126  0.58684  0.03169  Biso   1.000  C
  C174     1.0000 0.03792  0.65322  0.11942  Biso   1.000  C
  C175     1.0000 0.09800  0.71246  0.11641  Biso   1.000  C
  C176     1.0000 0.08420  0.66710  0.11844  Biso   1.000  C
  C177     1.0000 0.12989  0.60592  0.21296  Biso   1.000  C
  H67      1.0000 0.11260  0.61250  0.27600  Biso   1.000  H
  C178     1.0000 0.14689  0.62093  0.02918  Biso   1.000  C
  H68      1.0000 0.14120  0.63750  0.96500  Biso   1.000  H
  C179     1.0000 0.14588  0.72690  0.11814  Biso   1.000  C
  H69      1.0000 0.17250  0.70750  0.11910  Biso   1.000  H
  C180     1.0000 0.02343  0.60633  0.12003  Biso   1.000  C
  H70      1.0000 0.04310  0.58010  0.12040  Biso   1.000  H
  C181     1.0000 0.17219  0.54469  0.31713  Biso   1.000  C
  C182     1.0000 0.20940  0.57699  0.93197  Biso   1.000  C
  O57      1.0000 0.30383  0.49070  0.81062  Biso   1.000  O
  O58      1.0000 0.25497  0.44708  0.44129  Biso   1.000  O
  O59      1.0000 0.34528  0.44146  0.90130  Biso   1.000  O
  O60      1.0000 0.30349  0.40637  0.34515  Biso   1.000  O
  C183     1.0000 0.33633  0.42836  0.71470  Biso   1.000  C
  C184     1.0000 0.37886  0.36951  0.62046  Biso   1.000  C
  C185     1.0000 0.31079  0.43755  0.62350  Biso   1.000  C
  H71      1.0000 0.28760  0.46090  0.62450  Biso   1.000  H
  C186     1.0000 0.31874  0.41316  0.53169  Biso   1.000  C
  C187     1.0000 0.46208  0.34678  0.61942  Biso   1.000  C
  C188     1.0000 0.40200  0.28754  0.61641  Biso   1.000  C
  C189     1.0000 0.41580  0.33290  0.61844  Biso   1.000  C
  C190     1.0000 0.37011  0.39408  0.71296  Biso   1.000  C
  H72      1.0000 0.38740  0.38750  0.77600  Biso   1.000  H
  C191     1.0000 0.35311  0.37907  0.52918  Biso   1.000  C
  H73      1.0000 0.35880  0.36250  0.46500  Biso   1.000  H
  C192     1.0000 0.35412  0.27310  0.61814  Biso   1.000  C
  H74      1.0000 0.32750  0.29250  0.61910  Biso   1.000  H
  C193     1.0000 0.47657  0.39367  0.62003  Biso   1.000  C
  H75      1.0000 0.45690  0.41990  0.62040  Biso   1.000  H
  C194     1.0000 0.32781  0.45531  0.81713  Biso   1.000  C
  C195     1.0000 0.29060  0.42301  0.43197  Biso   1.000  C
  O61      1.0000 0.80383  0.99070  0.31062  Biso   1.000  O
  O62      1.0000 0.75497  0.94708  0.94129  Biso   1.000  O
  O63      1.0000 0.84528  0.94146  0.40130  Biso   1.000  O
  O64      1.0000 0.80349  0.90637  0.84515  Biso   1.000  O
  C196     1.0000 0.83633  0.92836  0.21470  Biso   1.000  C
  C197     1.0000 0.87886  0.86951  0.12046  Biso   1.000  C
  C198     1.0000 0.81079  0.93755  0.12350  Biso   1.000  C
  H76      1.0000 0.78760  0.96090  0.12450  Biso   1.000  H
  C199     1.0000 0.81874  0.91316  0.03169  Biso   1.000  C
  C200     1.0000 0.96208  0.84678  0.11942  Biso   1.000  C
  C201     1.0000 0.90200  0.78754  0.11641  Biso   1.000  C
  C202     1.0000 0.91580  0.83290  0.11844  Biso   1.000  C
  C203     1.0000 0.87011  0.89408  0.21296  Biso   1.000  C
  H77      1.0000 0.88740  0.88750  0.27600  Biso   1.000  H
  C204     1.0000 0.85311  0.87907  0.02918  Biso   1.000  C
  H78      1.0000 0.85880  0.86250  0.96500  Biso   1.000  H
  C205     1.0000 0.85412  0.77310  0.11814  Biso   1.000  C
  H79      1.0000 0.82750  0.79250  0.11910  Biso   1.000  H
  C206     1.0000 0.97657  0.89367  0.12003  Biso   1.000  C
  H80      1.0000 0.95690  0.91990  0.12040  Biso   1.000  H
  C207     1.0000 0.82781  0.95531  0.31713  Biso   1.000  C
  C208     1.0000 0.79060  0.92301  0.93197  Biso   1.000  C
  Co1      1.0000 0.50000  0.25000  0.61796  Biso   1.000  Co
  Co2      1.0000 0.00000  0.75000  0.11796  Biso   1.000  Co
  Co3      1.0000 0.50000  0.75000  0.38204  Biso   1.000  Co
  Co4      1.0000 0.00000  0.25000  0.88204  Biso   1.000  Co
  Na1      1.0000 0.80072  0.50000  0.50000  Biso   1.000  Na
  Na2      1.0000 0.30072  0.00000  0.00000  Biso   1.000  Na
  Na3      1.0000 0.19928  0.00000  0.50000  Biso   1.000  Na
  Na4      1.0000 0.69928  0.50000  0.00000  Biso   1.000  Na
  Na5      1.0000 0.19928  0.50000  0.50000  Biso   1.000  Na
  Na6      1.0000 0.69928  0.00000  0.00000  Biso   1.000  Na
  Na7      1.0000 0.80072  0.00000  0.50000  Biso   1.000  Na
  Na8      1.0000 0.30072  0.50000  0.00000  Biso   1.000  Na
  Na9      1.0000 0.75000  0.54295  0.75000  Biso   1.000  Na
  Na10     1.0000 0.25000  0.95705  0.75000  Biso   1.000  Na
  Na11     1.0000 0.25000  0.04295  0.25000  Biso   1.000  Na
  Na12     1.0000 0.75000  0.45705  0.25000  Biso   1.000  Na
  Na13     1.0000 0.25000  0.45705  0.25000  Biso   1.000  Na
  Na14     1.0000 0.75000  0.04295  0.25000  Biso   1.000  Na
  Na15     1.0000 0.75000  0.95705  0.75000  Biso   1.000  Na
  Na16     1.0000 0.25000  0.54295  0.75000  Biso   1.000  Na
  N1       1.0000 0.50000  0.31795  0.62002  Biso   1.000  N
  N2       1.0000 0.00000  0.81795  0.12002  Biso   1.000  N
  N3       1.0000 0.50000  0.18205  0.62002  Biso   1.000  N
  N4       1.0000 0.00000  0.68205  0.12002  Biso   1.000  N
  N5       1.0000 0.50000  0.81795  0.37998  Biso   1.000  N
  N6       1.0000 0.00000  0.31795  0.87998  Biso   1.000  N
  N7       1.0000 0.50000  0.68205  0.37998  Biso   1.000  N
  N8       1.0000 0.00000  0.18205  0.87998  Biso   1.000  N
  N9       1.0000 0.56891  0.25000  0.61572  Biso   1.000  N
  N10      1.0000 0.06891  0.75000  0.11572  Biso   1.000  N
  N11      1.0000 0.43109  0.25000  0.61572  Biso   1.000  N
  N12      1.0000 0.93109  0.75000  0.11572  Biso   1.000  N
  N13      1.0000 0.43109  0.75000  0.38428  Biso   1.000  N
  N14      1.0000 0.93109  0.25000  0.88428  Biso   1.000  N
  N15      1.0000 0.56891  0.75000  0.38428  Biso   1.000  N
  N16      1.0000 0.06891  0.25000  0.88428  Biso   1.000  N
