data_LADHEF_clean
_audit_creation_date              2014-07-02
_audit_creation_method            'Materials Studio'
_symmetry_space_group_name_H-M    'P1'
_symmetry_Int_Tables_number       1
_symmetry_cell_setting            triclinic
loop_
_symmetry_equiv_pos_as_xyz
  x,y,z
_cell_length_a                    12.8377
_cell_length_b                    12.8377
_cell_length_c                    19.0457
_cell_angle_alpha                 83.7766
_cell_angle_beta                  83.7766
_cell_angle_gamma                 68.7446
loop_
_atom_site_label
_atom_site_type_symbol
_atom_site_fract_x
_atom_site_fract_y
_atom_site_fract_z
_atom_site_U_iso_or_equiv
_atom_site_adp_type
_atom_site_occupancy
Zn1    Zn    0.72382   0.93570   0.77443   0.01267  Uiso   1.00
Zn2    Zn    0.10791   0.71295   0.56022   0.01267  Uiso   1.00
Zn3    Zn    0.06430   0.27618   0.72557   0.01267  Uiso   1.00
Zn4    Zn    0.28705   0.89209   0.93978   0.01267  Uiso   1.00
Zn5    Zn    0.27618   0.06430   0.22557   0.01267  Uiso   1.00
Zn6    Zn    0.89209   0.28705   0.43978   0.01267  Uiso   1.00
Zn7    Zn    0.93570   0.72382   0.27443   0.01267  Uiso   1.00
Zn8    Zn    0.71295   0.10791   0.06022   0.01267  Uiso   1.00
Zn9    Zn    0.89308   0.10692   0.75000   0.01267  Uiso   1.00
Zn10   Zn    0.10692   0.89308   0.25000   0.01267  Uiso   1.00
H1     H     0.64830   0.32030   0.62300   0.01267  Uiso   1.00
H2     H     0.51300   0.46720   0.56700   0.01267  Uiso   1.00
H3     H     0.41340   0.19900   0.71080   0.01267  Uiso   1.00
H4     H     0.85540   0.14780   0.91740   0.01267  Uiso   1.00
H5     H     0.67010   0.96410   0.94530   0.01267  Uiso   1.00
H6     H     0.07780   0.92740   0.64420   0.01267  Uiso   1.00
H7     H     0.88050   0.75650   0.66240   0.01267  Uiso   1.00
H8     H     0.67970   0.35170   0.87700   0.01267  Uiso   1.00
H9     H     0.53280   0.48700   0.93300   0.01267  Uiso   1.00
H10    H     0.80100   0.58660   0.78920   0.01267  Uiso   1.00
H11    H     0.85220   0.14460   0.58260   0.01267  Uiso   1.00
H12    H     0.03590   0.32990   0.55470   0.01267  Uiso   1.00
H13    H     0.07260   0.92220   0.85580   0.01267  Uiso   1.00
H14    H     0.24350   0.11950   0.83760   0.01267  Uiso   1.00
H15    H     0.35170   0.67970   0.37700   0.01267  Uiso   1.00
H16    H     0.48700   0.53280   0.43300   0.01267  Uiso   1.00
H17    H     0.58660   0.80100   0.28920   0.01267  Uiso   1.00
H18    H     0.14460   0.85220   0.08260   0.01267  Uiso   1.00
H19    H     0.32990   0.03590   0.05470   0.01267  Uiso   1.00
H20    H     0.92220   0.07260   0.35580   0.01267  Uiso   1.00
H21    H     0.11950   0.24350   0.33760   0.01267  Uiso   1.00
H22    H     0.32030   0.64830   0.12300   0.01267  Uiso   1.00
H23    H     0.46720   0.51300   0.06700   0.01267  Uiso   1.00
H24    H     0.19900   0.41340   0.21080   0.01267  Uiso   1.00
H25    H     0.14780   0.85540   0.41740   0.01267  Uiso   1.00
H26    H     0.96410   0.67010   0.44530   0.01267  Uiso   1.00
H27    H     0.92740   0.07780   0.14420   0.01267  Uiso   1.00
H28    H     0.75650   0.88050   0.16240   0.01267  Uiso   1.00
C1     C     0.63418   0.14512   0.70530   0.01267  Uiso   1.00
C2     C     0.54502   0.24306   0.67160   0.01267  Uiso   1.00
C3     C     0.57388   0.32508   0.62901   0.01267  Uiso   1.00
C4     C     0.49275   0.41315   0.59572   0.01267  Uiso   1.00
C5     C     0.38072   0.42206   0.60456   0.01267  Uiso   1.00
C6     C     0.35044   0.34246   0.64902   0.01267  Uiso   1.00
C7     C     0.43329   0.25287   0.68176   0.01267  Uiso   1.00
C8     C     0.29551   0.52093   0.56758   0.01267  Uiso   1.00
C9     C     0.23147   0.34641   0.66002   0.01267  Uiso   1.00
C10    C     0.81778   0.10102   0.90937   0.01267  Uiso   1.00
C11    C     0.71730   0.00116   0.92468   0.01267  Uiso   1.00
C12    C     0.01816   0.90316   0.65815   0.01267  Uiso   1.00
C13    C     0.91113   0.81029   0.66788   0.01267  Uiso   1.00
C14    C     0.85488   0.36582   0.79470   0.01267  Uiso   1.00
C15    C     0.75694   0.45498   0.82840   0.01267  Uiso   1.00
C16    C     0.67492   0.42612   0.87099   0.01267  Uiso   1.00
C17    C     0.58685   0.50725   0.90428   0.01267  Uiso   1.00
C18    C     0.57794   0.61928   0.89544   0.01267  Uiso   1.00
C19    C     0.65754   0.64956   0.85098   0.01267  Uiso   1.00
C20    C     0.74713   0.56671   0.81824   0.01267  Uiso   1.00
C21    C     0.47907   0.70449   0.93242   0.01267  Uiso   1.00
C22    C     0.65359   0.76853   0.83998   0.01267  Uiso   1.00
C23    C     0.89898   0.18222   0.59063   0.01267  Uiso   1.00
C24    C     0.99884   0.28270   0.57532   0.01267  Uiso   1.00
C25    C     0.09684   0.98184   0.84185   0.01267  Uiso   1.00
C26    C     0.18971   0.08887   0.83212   0.01267  Uiso   1.00
C27    C     0.36582   0.85488   0.29470   0.01267  Uiso   1.00
C28    C     0.45498   0.75694   0.32840   0.01267  Uiso   1.00
C29    C     0.42612   0.67492   0.37099   0.01267  Uiso   1.00
C30    C     0.50725   0.58685   0.40428   0.01267  Uiso   1.00
C31    C     0.61928   0.57794   0.39544   0.01267  Uiso   1.00
C32    C     0.64956   0.65754   0.35098   0.01267  Uiso   1.00
C33    C     0.56671   0.74713   0.31824   0.01267  Uiso   1.00
C34    C     0.70449   0.47907   0.43242   0.01267  Uiso   1.00
C35    C     0.76853   0.65359   0.33998   0.01267  Uiso   1.00
C36    C     0.18222   0.89898   0.09063   0.01267  Uiso   1.00
C37    C     0.28270   0.99884   0.07532   0.01267  Uiso   1.00
C38    C     0.98184   0.09684   0.34185   0.01267  Uiso   1.00
C39    C     0.08887   0.18971   0.33212   0.01267  Uiso   1.00
C40    C     0.14512   0.63418   0.20530   0.01267  Uiso   1.00
C41    C     0.24306   0.54502   0.17160   0.01267  Uiso   1.00
C42    C     0.32508   0.57388   0.12901   0.01267  Uiso   1.00
C43    C     0.41315   0.49275   0.09572   0.01267  Uiso   1.00
C44    C     0.42206   0.38072   0.10456   0.01267  Uiso   1.00
C45    C     0.34246   0.35044   0.14902   0.01267  Uiso   1.00
C46    C     0.25287   0.43329   0.18176   0.01267  Uiso   1.00
C47    C     0.52093   0.29551   0.06758   0.01267  Uiso   1.00
C48    C     0.34641   0.23147   0.16002   0.01267  Uiso   1.00
C49    C     0.10102   0.81778   0.40937   0.01267  Uiso   1.00
C50    C     0.00116   0.71730   0.42468   0.01267  Uiso   1.00
C51    C     0.90316   0.01816   0.15815   0.01267  Uiso   1.00
C52    C     0.81029   0.91113   0.16788   0.01267  Uiso   1.00
N1     N     0.82058   0.06352   0.84724   0.01267  Uiso   1.00
N2     N     0.75523   0.99787   0.85775   0.01267  Uiso   1.00
N3     N     0.75465   0.06449   0.95999   0.01267  Uiso   1.00
N4     N     0.93579   0.95213   0.70470   0.01267  Uiso   1.00
N5     N     0.86586   0.89172   0.71085   0.01267  Uiso   1.00
N6     N     0.00676   0.81402   0.63287   0.01267  Uiso   1.00
N7     N     0.93648   0.17942   0.65276   0.01267  Uiso   1.00
N8     N     0.00213   0.24477   0.64225   0.01267  Uiso   1.00
N9     N     0.93551   0.24535   0.54001   0.01267  Uiso   1.00
N10    N     0.04787   0.06421   0.79530   0.01267  Uiso   1.00
N11    N     0.10828   0.13414   0.78915   0.01267  Uiso   1.00
N12    N     0.18598   0.99324   0.86713   0.01267  Uiso   1.00
N13    N     0.17942   0.93648   0.15276   0.01267  Uiso   1.00
N14    N     0.24477   0.00213   0.14225   0.01267  Uiso   1.00
N15    N     0.24535   0.93551   0.04001   0.01267  Uiso   1.00
N16    N     0.06421   0.04787   0.29530   0.01267  Uiso   1.00
N17    N     0.13414   0.10828   0.28915   0.01267  Uiso   1.00
N18    N     0.99324   0.18598   0.36713   0.01267  Uiso   1.00
N19    N     0.06352   0.82058   0.34724   0.01267  Uiso   1.00
N20    N     0.99787   0.75523   0.35775   0.01267  Uiso   1.00
N21    N     0.06449   0.75465   0.45999   0.01267  Uiso   1.00
N22    N     0.95213   0.93579   0.20470   0.01267  Uiso   1.00
N23    N     0.89172   0.86586   0.21085   0.01267  Uiso   1.00
N24    N     0.81402   0.00676   0.13287   0.01267  Uiso   1.00
O1     O     0.72740   0.15154   0.70886   0.01267  Uiso   1.00
O2     O     0.60699   0.05997   0.72772   0.01267  Uiso   1.00
O3     O     0.23286   0.59614   0.60641   0.01267  Uiso   1.00
O4     O     0.29329   0.52513   0.50279   0.01267  Uiso   1.00
O5     O     0.16561   0.39267   0.61420   0.01267  Uiso   1.00
O6     O     0.20721   0.29665   0.71722   0.01267  Uiso   1.00
O7     O     0.84846   0.27260   0.79114   0.01267  Uiso   1.00
O8     O     0.94003   0.39301   0.77228   0.01267  Uiso   1.00
O9     O     0.40386   0.76714   0.89359   0.01267  Uiso   1.00
O10    O     0.47487   0.70671   0.99721   0.01267  Uiso   1.00
O11    O     0.60733   0.83439   0.88580   0.01267  Uiso   1.00
O12    O     0.70335   0.79279   0.78278   0.01267  Uiso   1.00
O13    O     0.27260   0.84846   0.29114   0.01267  Uiso   1.00
O14    O     0.39301   0.94003   0.27228   0.01267  Uiso   1.00
O15    O     0.76714   0.40386   0.39359   0.01267  Uiso   1.00
O16    O     0.70671   0.47487   0.49721   0.01267  Uiso   1.00
O17    O     0.83439   0.60733   0.38580   0.01267  Uiso   1.00
O18    O     0.79279   0.70335   0.28278   0.01267  Uiso   1.00
O19    O     0.15154   0.72740   0.20886   0.01267  Uiso   1.00
O20    O     0.05997   0.60699   0.22772   0.01267  Uiso   1.00
O21    O     0.59614   0.23286   0.10641   0.01267  Uiso   1.00
O22    O     0.52513   0.29329   0.00279   0.01267  Uiso   1.00
O23    O     0.39267   0.16561   0.11420   0.01267  Uiso   1.00
O24    O     0.29665   0.20721   0.21722   0.01267  Uiso   1.00
