data_image0
_cell_length_a       14.8858
_cell_length_b       23.055
_cell_length_c       17.7834
_cell_angle_alpha    90
_cell_angle_beta     108.905
_cell_angle_gamma    90

_symmetry_space_group_name_H-M    "P 1"
_symmetry_int_tables_number       1

loop_
  _symmetry_equiv_pos_as_xyz
  'x, y, z'

loop_
  _atom_site_label
  _atom_site_occupancy
  _atom_site_fract_x
  _atom_site_fract_y
  _atom_site_fract_z
  _atom_site_thermal_displace_type
  _atom_site_B_iso_or_equiv
  _atom_site_type_symbol
  C1       1.0000 0.64980  0.08160  0.76220  Biso   1.000  C
  H1       1.0000 0.62580  0.11920  0.75770  Biso   1.000  H
  C2       1.0000 0.85710  0.00540  0.73190  Biso   1.000  C
  C3       1.0000 0.77030  0.01510  0.75490  Biso   1.000  C
  C4       1.0000 0.73240  0.07090  0.74600  Biso   1.000  C
  H2       1.0000 0.76310  0.10090  0.72920  Biso   1.000  H
  C5       1.0000 0.72240  0.97060  0.77790  Biso   1.000  C
  H3       1.0000 0.74750  0.93330  0.78390  Biso   1.000  H
  C6       1.0000 0.60140  0.03690  0.78520  Biso   1.000  C
  Zn1      1.0000 0.55487  0.82018  0.84723  Biso   1.000  Zn
  Zn2      1.0000 0.81050  0.79939  0.19252  Biso   1.000  Zn
  Zn3      1.0000 0.63302  0.60235  0.68819  Biso   1.000  Zn
  Zn4      1.0000 0.00145  0.96277  0.70098  Biso   1.000  Zn
  O1       1.0000 0.41580  0.82035  0.81210  Biso   1.000  O
  O2       1.0000 0.96850  0.83853  0.68820  Biso   1.000  O
  O3       1.0000 0.93810  0.73971  0.78910  Biso   1.000  O
  O4       1.0000 0.94680  0.70281  0.67800  Biso   1.000  O
  O5       1.0000 0.53480  0.94151  0.85580  Biso   1.000  O
  O6       1.0000 0.51020  0.08730  0.85030  Biso   1.000  O
  O7       1.0000 0.60380  0.88142  0.79310  Biso   1.000  O
  N1       1.0000 0.83600  0.88788  0.23210  Biso   1.000  N
  N2       1.0000 0.70860  0.82410  0.08720  Biso   1.000  N
  N3       1.0000 0.64790  0.67503  0.75450  Biso   1.000  N
  N4       1.0000 0.76560  0.92924  0.22520  Biso   1.000  N
  O8       1.0000 0.90080  0.95720  0.75120  Biso   1.000  O
  N5       1.0000 0.62210  0.75494  0.81270  Biso   1.000  N
  O9       1.0000 0.09090  0.89791  0.72960  Biso   1.000  O
  N6       1.0000 0.61150  0.83082  0.96340  Biso   1.000  N
  O10      1.0000 0.88320  0.04309  0.69490  Biso   1.000  O
  N7       1.0000 0.71700  0.71496  0.75420  Biso   1.000  N
  O11      1.0000 0.44090  0.73246  0.86330  Biso   1.000  O
  N8       1.0000 0.63960  0.86449  0.08440  Biso   1.000  N
  O12      1.0000 0.43260  0.03624  0.74700  Biso   1.000  O
  N9       1.0000 0.90250  0.97404  0.26520  Biso   1.000  N
  N10      1.0000 0.93940  0.95810  0.58620  Biso   1.000  N
  C7       1.0000 0.63780  0.98100  0.79210  Biso   1.000  C
  C8       1.0000 0.59430  0.70060  0.79000  Biso   1.000  C
  H4       1.0000 0.54230  0.68290  0.79850  Biso   1.000  H
  C9       1.0000 0.80790  0.97860  0.24440  Biso   1.000  C
  H5       1.0000 0.77620  0.01350  0.24390  Biso   1.000  H
  C10      1.0000 0.91580  0.91700  0.25710  Biso   1.000  C
  H6       1.0000 0.97540  0.90000  0.26790  Biso   1.000  H
  C11      1.0000 0.12070  0.79840  0.75410  Biso   1.000  C
  C12      1.0000 0.21770  0.80750  0.77440  Biso   1.000  C
  H7       1.0000 0.23990  0.84340  0.76440  Biso   1.000  H
  C13      1.0000 0.69880  0.76190  0.78880  Biso   1.000  C
  H8       1.0000 0.73450  0.79570  0.79600  Biso   1.000  H
  C14      1.0000 0.68840  0.80470  0.01400  Biso   1.000  C
  H9       1.0000 0.72340  0.77630  0.99890  Biso   1.000  H
  C15      1.0000 0.05310  0.84770  0.72060  Biso   1.000  C
  C16      1.0000 0.58450  0.86690  0.01090  Biso   1.000  C
  H10      1.0000 0.53200  0.89120  0.99320  Biso   1.000  H
  C17      1.0000 0.58700  0.93180  0.81620  Biso   1.000  C
  C18      1.0000 0.15030  0.70100  0.80360  Biso   1.000  C
  H11      1.0000 0.12780  0.66510  0.81320  Biso   1.000  H
  C19      1.0000 0.28170  0.76440  0.80920  Biso   1.000  C
  C20      1.0000 0.08670  0.74420  0.76650  Biso   1.000  C
  C21      1.0000 0.24710  0.71100  0.82640  Biso   1.000  C
  H12      1.0000 0.28930  0.68230  0.85320  Biso   1.000  H
  C22      1.0000 0.98340  0.72920  0.74290  Biso   1.000  C
  C23      1.0000 0.38650  0.77200  0.83030  Biso   1.000  C
  C24      1.0000 0.50960  0.05250  0.79630  Biso   1.000  C
  C25      1.0000 0.81030  0.93600  0.48580  Biso   1.000  C
  H13      1.0000 0.76920  0.96910  0.47380  Biso   1.000  H
  H14      1.0000 0.77310  0.90120  0.47150  Biso   1.000  H
  H15      1.0000 0.85400  0.93810  0.45630  Biso   1.000  H
  C26      1.0000 0.85690  0.93510  0.56050  Biso   1.000  C
  C27      1.0000 0.35020  0.58160  0.73780  Biso   1.000  C
  H16      1.0000 0.37420  0.61920  0.74230  Biso   1.000  H
  C28      1.0000 0.14290  0.50540  0.76810  Biso   1.000  C
  C29      1.0000 0.22970  0.51510  0.74510  Biso   1.000  C
  C30      1.0000 0.26760  0.57090  0.75400  Biso   1.000  C
  H17      1.0000 0.23690  0.60090  0.77080  Biso   1.000  H
  C31      1.0000 0.27760  0.47060  0.72210  Biso   1.000  C
  H18      1.0000 0.25250  0.43330  0.71610  Biso   1.000  H
  C32      1.0000 0.39860  0.53690  0.71480  Biso   1.000  C
  Zn5      1.0000 0.44513  0.32018  0.65277  Biso   1.000  Zn
  Zn6      1.0000 0.18950  0.29939  0.30748  Biso   1.000  Zn
  Zn7      1.0000 0.36698  0.10235  0.81181  Biso   1.000  Zn
  Zn8      1.0000 0.99855  0.46277  0.79902  Biso   1.000  Zn
  O13      1.0000 0.58420  0.32035  0.68790  Biso   1.000  O
  O14      1.0000 0.03150  0.33853  0.81180  Biso   1.000  O
  O15      1.0000 0.06190  0.23971  0.71090  Biso   1.000  O
  O16      1.0000 0.05320  0.20281  0.82200  Biso   1.000  O
  O17      1.0000 0.46520  0.44151  0.64420  Biso   1.000  O
  O18      1.0000 0.48980  0.58730  0.64970  Biso   1.000  O
  O19      1.0000 0.39620  0.38142  0.70690  Biso   1.000  O
  N11      1.0000 0.16400  0.38788  0.26790  Biso   1.000  N
  N12      1.0000 0.29140  0.32410  0.41280  Biso   1.000  N
  N13      1.0000 0.35210  0.17503  0.74550  Biso   1.000  N
  N14      1.0000 0.23440  0.42924  0.27480  Biso   1.000  N
  O20      1.0000 0.09920  0.45720  0.74880  Biso   1.000  O
  N15      1.0000 0.37790  0.25494  0.68730  Biso   1.000  N
  O21      1.0000 0.90910  0.39791  0.77040  Biso   1.000  O
  N16      1.0000 0.38850  0.33082  0.53660  Biso   1.000  N
  O22      1.0000 0.11680  0.54309  0.80510  Biso   1.000  O
  N17      1.0000 0.28300  0.21496  0.74580  Biso   1.000  N
  O23      1.0000 0.55910  0.23246  0.63670  Biso   1.000  O
  N18      1.0000 0.36040  0.36449  0.41560  Biso   1.000  N
  O24      1.0000 0.56740  0.53624  0.75300  Biso   1.000  O
  N19      1.0000 0.09750  0.47404  0.23480  Biso   1.000  N
  N20      1.0000 0.06060  0.45810  0.91380  Biso   1.000  N
  C33      1.0000 0.36220  0.48100  0.70790  Biso   1.000  C
  C34      1.0000 0.40570  0.20060  0.71000  Biso   1.000  C
  H19      1.0000 0.45770  0.18290  0.70150  Biso   1.000  H
  C35      1.0000 0.19210  0.47860  0.25560  Biso   1.000  C
  H20      1.0000 0.22380  0.51350  0.25610  Biso   1.000  H
  C36      1.0000 0.08420  0.41700  0.24290  Biso   1.000  C
  H21      1.0000 0.02460  0.40000  0.23210  Biso   1.000  H
  C37      1.0000 0.87930  0.29840  0.74590  Biso   1.000  C
  C38      1.0000 0.78230  0.30750  0.72560  Biso   1.000  C
  H22      1.0000 0.76010  0.34340  0.73560  Biso   1.000  H
  C39      1.0000 0.30120  0.26190  0.71120  Biso   1.000  C
  H23      1.0000 0.26550  0.29570  0.70400  Biso   1.000  H
  C40      1.0000 0.31160  0.30470  0.48600  Biso   1.000  C
  H24      1.0000 0.27660  0.27630  0.50110  Biso   1.000  H
  C41      1.0000 0.94690  0.34770  0.77940  Biso   1.000  C
  C42      1.0000 0.41550  0.36690  0.48910  Biso   1.000  C
  H25      1.0000 0.46800  0.39120  0.50680  Biso   1.000  H
  C43      1.0000 0.41300  0.43180  0.68380  Biso   1.000  C
  C44      1.0000 0.84970  0.20100  0.69640  Biso   1.000  C
  H26      1.0000 0.87220  0.16510  0.68680  Biso   1.000  H
  C45      1.0000 0.71830  0.26440  0.69080  Biso   1.000  C
  C46      1.0000 0.91330  0.24420  0.73350  Biso   1.000  C
  C47      1.0000 0.75290  0.21100  0.67360  Biso   1.000  C
  H27      1.0000 0.71070  0.18230  0.64680  Biso   1.000  H
  C48      1.0000 0.01660  0.22920  0.75710  Biso   1.000  C
  C49      1.0000 0.61350  0.27200  0.66970  Biso   1.000  C
  C50      1.0000 0.49040  0.55250  0.70370  Biso   1.000  C
  C51      1.0000 0.18970  0.43600  0.01420  Biso   1.000  C
  H28      1.0000 0.23080  0.46910  0.02620  Biso   1.000  H
  H29      1.0000 0.22690  0.40120  0.02850  Biso   1.000  H
  H30      1.0000 0.14600  0.43810  0.04370  Biso   1.000  H
  C52      1.0000 0.14310  0.43510  0.93950  Biso   1.000  C
  C53      1.0000 0.35020  0.91840  0.23780  Biso   1.000  C
  H31      1.0000 0.37420  0.88080  0.24230  Biso   1.000  H
  C54      1.0000 0.14290  0.99460  0.26810  Biso   1.000  C
  C55      1.0000 0.22970  0.98490  0.24510  Biso   1.000  C
  C56      1.0000 0.26760  0.92910  0.25400  Biso   1.000  C
  H32      1.0000 0.23690  0.89910  0.27080  Biso   1.000  H
  C57      1.0000 0.27760  0.02940  0.22210  Biso   1.000  C
  H33      1.0000 0.25250  0.06670  0.21610  Biso   1.000  H
  C58      1.0000 0.39860  0.96310  0.21480  Biso   1.000  C
  Zn9      1.0000 0.44513  0.17982  0.15277  Biso   1.000  Zn
  Zn10     1.0000 0.18950  0.20061  0.80748  Biso   1.000  Zn
  Zn11     1.0000 0.36698  0.39765  0.31181  Biso   1.000  Zn
  Zn12     1.0000 0.99855  0.03723  0.29902  Biso   1.000  Zn
  O25      1.0000 0.58420  0.17965  0.18790  Biso   1.000  O
  O26      1.0000 0.03150  0.16147  0.31180  Biso   1.000  O
  O27      1.0000 0.06190  0.26029  0.21090  Biso   1.000  O
  O28      1.0000 0.05320  0.29719  0.32200  Biso   1.000  O
  O29      1.0000 0.46520  0.05849  0.14420  Biso   1.000  O
  O30      1.0000 0.48980  0.91270  0.14970  Biso   1.000  O
  O31      1.0000 0.39620  0.11858  0.20690  Biso   1.000  O
  N21      1.0000 0.16400  0.11212  0.76790  Biso   1.000  N
  N22      1.0000 0.29140  0.17590  0.91280  Biso   1.000  N
  N23      1.0000 0.35210  0.32497  0.24550  Biso   1.000  N
  N24      1.0000 0.23440  0.07076  0.77480  Biso   1.000  N
  O32      1.0000 0.09920  0.04280  0.24880  Biso   1.000  O
  N25      1.0000 0.37790  0.24506  0.18730  Biso   1.000  N
  O33      1.0000 0.90910  0.10209  0.27040  Biso   1.000  O
  N26      1.0000 0.38850  0.16918  0.03660  Biso   1.000  N
  O34      1.0000 0.11680  0.95691  0.30510  Biso   1.000  O
  N27      1.0000 0.28300  0.28504  0.24580  Biso   1.000  N
  O35      1.0000 0.55910  0.26754  0.13670  Biso   1.000  O
  N28      1.0000 0.36040  0.13551  0.91560  Biso   1.000  N
  O36      1.0000 0.56740  0.96376  0.25300  Biso   1.000  O
  N29      1.0000 0.09750  0.02596  0.73480  Biso   1.000  N
  N30      1.0000 0.06060  0.04190  0.41380  Biso   1.000  N
  C59      1.0000 0.36220  0.01900  0.20790  Biso   1.000  C
  C60      1.0000 0.40570  0.29940  0.21000  Biso   1.000  C
  H34      1.0000 0.45770  0.31710  0.20150  Biso   1.000  H
  C61      1.0000 0.19210  0.02140  0.75560  Biso   1.000  C
  H35      1.0000 0.22380  0.98650  0.75610  Biso   1.000  H
  C62      1.0000 0.08420  0.08300  0.74290  Biso   1.000  C
  H36      1.0000 0.02460  0.10000  0.73210  Biso   1.000  H
  C63      1.0000 0.87930  0.20160  0.24590  Biso   1.000  C
  C64      1.0000 0.78230  0.19250  0.22560  Biso   1.000  C
  H37      1.0000 0.76010  0.15660  0.23560  Biso   1.000  H
  C65      1.0000 0.30120  0.23810  0.21120  Biso   1.000  C
  H38      1.0000 0.26550  0.20430  0.20400  Biso   1.000  H
  C66      1.0000 0.31160  0.19530  0.98600  Biso   1.000  C
  H39      1.0000 0.27660  0.22370  0.00110  Biso   1.000  H
  C67      1.0000 0.94690  0.15230  0.27940  Biso   1.000  C
  C68      1.0000 0.41550  0.13310  0.98910  Biso   1.000  C
  H40      1.0000 0.46800  0.10880  0.00680  Biso   1.000  H
  C69      1.0000 0.41300  0.06820  0.18380  Biso   1.000  C
  C70      1.0000 0.84970  0.29900  0.19640  Biso   1.000  C
  H41      1.0000 0.87220  0.33490  0.18680  Biso   1.000  H
  C71      1.0000 0.71830  0.23560  0.19080  Biso   1.000  C
  C72      1.0000 0.91330  0.25580  0.23350  Biso   1.000  C
  C73      1.0000 0.75290  0.28900  0.17360  Biso   1.000  C
  H42      1.0000 0.71070  0.31770  0.14680  Biso   1.000  H
  C74      1.0000 0.01660  0.27080  0.25710  Biso   1.000  C
  C75      1.0000 0.61350  0.22800  0.16970  Biso   1.000  C
  C76      1.0000 0.49040  0.94750  0.20370  Biso   1.000  C
  C77      1.0000 0.18970  0.06400  0.51420  Biso   1.000  C
  H43      1.0000 0.23080  0.03090  0.52620  Biso   1.000  H
  H44      1.0000 0.22690  0.09880  0.52850  Biso   1.000  H
  H45      1.0000 0.14600  0.06190  0.54370  Biso   1.000  H
  C78      1.0000 0.14310  0.06490  0.43950  Biso   1.000  C
  C79      1.0000 0.64980  0.41840  0.26220  Biso   1.000  C
  H46      1.0000 0.62580  0.38080  0.25770  Biso   1.000  H
  C80      1.0000 0.85710  0.49460  0.23190  Biso   1.000  C
  C81      1.0000 0.77030  0.48490  0.25490  Biso   1.000  C
  C82      1.0000 0.73240  0.42910  0.24600  Biso   1.000  C
  H47      1.0000 0.76310  0.39910  0.22920  Biso   1.000  H
  C83      1.0000 0.72240  0.52940  0.27790  Biso   1.000  C
  H48      1.0000 0.74750  0.56670  0.28390  Biso   1.000  H
  C84      1.0000 0.60140  0.46310  0.28520  Biso   1.000  C
  Zn13     1.0000 0.55487  0.67982  0.34723  Biso   1.000  Zn
  Zn14     1.0000 0.81050  0.70061  0.69252  Biso   1.000  Zn
  Zn15     1.0000 0.63302  0.89765  0.18819  Biso   1.000  Zn
  Zn16     1.0000 0.00145  0.53723  0.20098  Biso   1.000  Zn
  O37      1.0000 0.41580  0.67965  0.31210  Biso   1.000  O
  O38      1.0000 0.96850  0.66147  0.18820  Biso   1.000  O
  O39      1.0000 0.93810  0.76029  0.28910  Biso   1.000  O
  O40      1.0000 0.94680  0.79719  0.17800  Biso   1.000  O
  O41      1.0000 0.53480  0.55849  0.35580  Biso   1.000  O
  O42      1.0000 0.51020  0.41270  0.35030  Biso   1.000  O
  O43      1.0000 0.60380  0.61858  0.29310  Biso   1.000  O
  N31      1.0000 0.83600  0.61212  0.73210  Biso   1.000  N
  N32      1.0000 0.70860  0.67590  0.58720  Biso   1.000  N
  N33      1.0000 0.64790  0.82497  0.25450  Biso   1.000  N
  N34      1.0000 0.76560  0.57076  0.72520  Biso   1.000  N
  O44      1.0000 0.90080  0.54280  0.25120  Biso   1.000  O
  N35      1.0000 0.62210  0.74506  0.31270  Biso   1.000  N
  O45      1.0000 0.09090  0.60209  0.22960  Biso   1.000  O
  N36      1.0000 0.61150  0.66918  0.46340  Biso   1.000  N
  O46      1.0000 0.88320  0.45691  0.19490  Biso   1.000  O
  N37      1.0000 0.71700  0.78504  0.25420  Biso   1.000  N
  O47      1.0000 0.44090  0.76754  0.36330  Biso   1.000  O
  N38      1.0000 0.63960  0.63551  0.58440  Biso   1.000  N
  O48      1.0000 0.43260  0.46376  0.24700  Biso   1.000  O
  N39      1.0000 0.90250  0.52596  0.76520  Biso   1.000  N
  N40      1.0000 0.93940  0.54190  0.08620  Biso   1.000  N
  C85      1.0000 0.63780  0.51900  0.29210  Biso   1.000  C
  C86      1.0000 0.59430  0.79940  0.29000  Biso   1.000  C
  H49      1.0000 0.54230  0.81710  0.29850  Biso   1.000  H
  C87      1.0000 0.80790  0.52140  0.74440  Biso   1.000  C
  H50      1.0000 0.77620  0.48650  0.74390  Biso   1.000  H
  C88      1.0000 0.91580  0.58300  0.75710  Biso   1.000  C
  H51      1.0000 0.97540  0.60000  0.76790  Biso   1.000  H
  C89      1.0000 0.12070  0.70160  0.25410  Biso   1.000  C
  C90      1.0000 0.21770  0.69250  0.27440  Biso   1.000  C
  H52      1.0000 0.23990  0.65660  0.26440  Biso   1.000  H
  C91      1.0000 0.69880  0.73810  0.28880  Biso   1.000  C
  H53      1.0000 0.73450  0.70430  0.29600  Biso   1.000  H
  C92      1.0000 0.68840  0.69530  0.51400  Biso   1.000  C
  H54      1.0000 0.72340  0.72370  0.49890  Biso   1.000  H
  C93      1.0000 0.05310  0.65230  0.22060  Biso   1.000  C
  C94      1.0000 0.58450  0.63310  0.51090  Biso   1.000  C
  H55      1.0000 0.53200  0.60880  0.49320  Biso   1.000  H
  C95      1.0000 0.58700  0.56820  0.31620  Biso   1.000  C
  C96      1.0000 0.15030  0.79900  0.30360  Biso   1.000  C
  H56      1.0000 0.12780  0.83490  0.31320  Biso   1.000  H
  C97      1.0000 0.28170  0.73560  0.30920  Biso   1.000  C
  C98      1.0000 0.08670  0.75580  0.26650  Biso   1.000  C
  C99      1.0000 0.24710  0.78900  0.32640  Biso   1.000  C
  H57      1.0000 0.28930  0.81770  0.35320  Biso   1.000  H
  C100     1.0000 0.98340  0.77080  0.24290  Biso   1.000  C
  C101     1.0000 0.38650  0.72800  0.33030  Biso   1.000  C
  C102     1.0000 0.50960  0.44750  0.29630  Biso   1.000  C
  C103     1.0000 0.81030  0.56400  0.98580  Biso   1.000  C
  H58      1.0000 0.76920  0.53090  0.97380  Biso   1.000  H
  H59      1.0000 0.77310  0.59880  0.97150  Biso   1.000  H
  H60      1.0000 0.85400  0.56190  0.95630  Biso   1.000  H
  C104     1.0000 0.85690  0.56490  0.06050  Biso   1.000  C
