data_image0
_cell_length_a       11.4422
_cell_length_b       13.6499
_cell_length_c       23.9769
_cell_angle_alpha    92.915
_cell_angle_beta     103.671
_cell_angle_gamma    112.821

_symmetry_space_group_name_H-M    "P 1"
_symmetry_int_tables_number       1

loop_
  _symmetry_equiv_pos_as_xyz
  'x, y, z'

loop_
  _atom_site_label
  _atom_site_occupancy
  _atom_site_fract_x
  _atom_site_fract_y
  _atom_site_fract_z
  _atom_site_thermal_displace_type
  _atom_site_B_iso_or_equiv
  _atom_site_type_symbol
  Eu1      1.0000 0.37634  0.29865  0.51752  Biso   1.000  Eu
  Eu2      1.0000 0.64560  0.59734  0.96192  Biso   1.000  Eu
  C1       1.0000 0.70800  0.50100  0.07630  Biso   1.000  C
  C2       1.0000 0.78280  0.47360  0.12870  Biso   1.000  C
  C3       1.0000 0.72100  0.38170  0.15140  Biso   1.000  C
  H1       1.0000 0.63170  0.33930  0.13550  Biso   1.000  H
  C4       1.0000 0.79200  0.35320  0.19690  Biso   1.000  C
  H2       1.0000 0.75060  0.28970  0.21060  Biso   1.000  H
  C5       1.0000 0.92430  0.41850  0.22290  Biso   1.000  C
  C6       1.0000 0.01950  0.41320  0.27280  Biso   1.000  C
  C7       1.0000 0.00900  0.33840  0.31110  Biso   1.000  C
  H3       1.0000 0.93200  0.27630  0.30440  Biso   1.000  H
  C8       1.0000 0.11400  0.35670  0.35850  Biso   1.000  C
  H4       1.0000 0.10700  0.30660  0.38380  Biso   1.000  H
  C9       1.0000 0.23040  0.44930  0.36920  Biso   1.000  C
  C10      1.0000 0.34260  0.47220  0.42120  Biso   1.000  C
  C11      1.0000 0.24280  0.52220  0.33090  Biso   1.000  C
  H5       1.0000 0.32140  0.58300  0.33720  Biso   1.000  H
  C12      1.0000 0.13810  0.50440  0.28340  Biso   1.000  C
  C13      1.0000 0.12620  0.57610  0.23700  Biso   1.000  C
  C14      1.0000 0.22700  0.58400  0.20140  Biso   1.000  C
  H6       1.0000 0.21950  0.51400  0.18630  Biso   1.000  H
  H7       1.0000 0.31440  0.62370  0.22670  Biso   1.000  H
  H8       1.0000 0.21160  0.62150  0.16950  Biso   1.000  H
  C15      1.0000 0.14700  0.68600  0.26340  Biso   1.000  C
  H9       1.0000 0.13070  0.72560  0.23260  Biso   1.000  H
  H10      1.0000 0.23590  0.72370  0.28760  Biso   1.000  H
  H11      1.0000 0.08730  0.67870  0.28670  Biso   1.000  H
  C16      1.0000 0.98390  0.51210  0.20070  Biso   1.000  C
  C17      1.0000 0.91450  0.53960  0.15360  Biso   1.000  C
  H12      1.0000 0.95560  0.60160  0.13880  Biso   1.000  H
  C18      1.0000 0.54800  0.66380  0.07500  Biso   1.000  C
  C19      1.0000 0.61690  0.72000  0.13560  Biso   1.000  C
  C20      1.0000 0.56800  0.69440  0.18070  Biso   1.000  C
  H13      1.0000 0.48520  0.63760  0.17390  Biso   1.000  H
  C21      1.0000 0.63200  0.74720  0.23590  Biso   1.000  C
  H14      1.0000 0.59400  0.72670  0.26610  Biso   1.000  H
  C22      1.0000 0.75600  0.83310  0.24670  Biso   1.000  C
  C23      1.0000 0.84800  0.90380  0.30000  Biso   1.000  C
  C24      1.0000 0.84300  0.90290  0.35760  Biso   1.000  C
  H15      1.0000 0.77220  0.85120  0.36690  Biso   1.000  H
  C25      1.0000 0.94650  0.98040  0.40100  Biso   1.000  C
  H16      1.0000 0.94270  0.98230  0.43930  Biso   1.000  H
  C26      1.0000 0.05300  0.05350  0.38790  Biso   1.000  C
  C27      1.0000 0.16890  0.13820  0.43530  Biso   1.000  C
  C28      1.0000 0.06070  0.05460  0.33000  Biso   1.000  C
  H17      1.0000 0.13270  0.10530  0.32080  Biso   1.000  H
  C29      1.0000 0.95860  0.97860  0.28840  Biso   1.000  C
  C30      1.0000 0.94330  0.96310  0.22240  Biso   1.000  C
  C31      1.0000 0.05200  0.93200  0.21070  Biso   1.000  C
  H18      1.0000 0.05630  0.87400  0.23070  Biso   1.000  H
  H19      1.0000 0.13400  0.99380  0.22440  Biso   1.000  H
  H20      1.0000 0.03360  0.91130  0.16940  Biso   1.000  H
  C32      1.0000 0.94800  0.06100  0.19580  Biso   1.000  C
  H21      1.0000 0.92630  0.04460  0.15400  Biso   1.000  H
  H22      1.0000 0.03280  0.11950  0.21010  Biso   1.000  H
  H23      1.0000 0.88320  0.08230  0.20600  Biso   1.000  H
  C33      1.0000 0.80840  0.86700  0.20060  Biso   1.000  C
  C34      1.0000 0.74670  0.81240  0.14670  Biso   1.000  C
  H24      1.0000 0.78490  0.83220  0.11660  Biso   1.000  H
  C35      1.0000 0.46200  0.16050  0.58140  Biso   1.000  C
  C36      1.0000 0.49660  0.08120  0.61440  Biso   1.000  C
  C37      1.0000 0.53100  0.00660  0.58840  Biso   1.000  C
  H25      1.0000 0.53220  0.00700  0.54970  Biso   1.000  H
  C38      1.0000 0.56300  0.93240  0.61770  Biso   1.000  C
  H26      1.0000 0.58740  0.88420  0.59970  Biso   1.000  H
  C39      1.0000 0.55770  0.93200  0.67610  Biso   1.000  C
  C40      1.0000 0.57900  0.86100  0.71630  Biso   1.000  C
  C41      1.0000 0.61800  0.77450  0.71320  Biso   1.000  C
  H27      1.0000 0.63480  0.75270  0.67970  Biso   1.000  H
  C42      1.0000 0.63100  0.72480  0.75990  Biso   1.000  C
  H28      1.0000 0.65470  0.66730  0.75710  Biso   1.000  H
  C43      1.0000 0.61100  0.75320  0.81080  Biso   1.000  C
  C44      1.0000 0.62700  0.70170  0.86210  Biso   1.000  C
  C45      1.0000 0.57500  0.84310  0.81530  Biso   1.000  C
  H29      1.0000 0.56450  0.86660  0.85020  Biso   1.000  H
  C46      1.0000 0.55640  0.89380  0.76850  Biso   1.000  C
  C47      1.0000 0.51730  0.98610  0.76330  Biso   1.000  C
  C48      1.0000 0.61100  0.08190  0.80940  Biso   1.000  C
  H30      1.0000 0.61650  0.06300  0.84790  Biso   1.000  H
  H31      1.0000 0.57990  0.13820  0.80610  Biso   1.000  H
  H32      1.0000 0.69590  0.10630  0.80250  Biso   1.000  H
  C49      1.0000 0.37300  0.95120  0.76810  Biso   1.000  C
  H33      1.0000 0.31510  0.88670  0.74110  Biso   1.000  H
  H34      1.0000 0.34440  0.00770  0.75940  Biso   1.000  H
  H35      1.0000 0.37170  0.93840  0.80730  Biso   1.000  H
  C50      1.0000 0.52100  0.00450  0.70180  Biso   1.000  C
  C51      1.0000 0.49130  0.07910  0.67220  Biso   1.000  C
  H36      1.0000 0.46780  0.12780  0.69020  Biso   1.000  H
  O1       1.0000 0.76960  0.56070  0.04650  Biso   1.000  O
  O2       1.0000 0.58320  0.46300  0.06480  Biso   1.000  O
  O3       1.0000 0.45360  0.54380  0.42350  Biso   1.000  O
  O4       1.0000 0.31800  0.42030  0.46310  Biso   1.000  O
  O5       1.0000 0.60640  0.69130  0.03540  Biso   1.000  O
  O6       1.0000 0.43550  0.58760  0.06650  Biso   1.000  O
  O7       1.0000 0.26840  0.19610  0.42130  Biso   1.000  O
  O8       1.0000 0.15960  0.14630  0.48580  Biso   1.000  O
  O9       1.0000 0.45700  0.15630  0.52840  Biso   1.000  O
  O10      1.0000 0.43530  0.23040  0.60690  Biso   1.000  O
  O11      1.0000 0.63670  0.61080  0.85790  Biso   1.000  O
  O12      1.0000 0.62780  0.74160  0.91200  Biso   1.000  O
  Eu3      1.0000 0.62366  0.70135  0.48248  Biso   1.000  Eu
  Eu4      1.0000 0.35440  0.40266  0.03808  Biso   1.000  Eu
  C52      1.0000 0.29200  0.49900  0.92370  Biso   1.000  C
  C53      1.0000 0.21720  0.52640  0.87130  Biso   1.000  C
  C54      1.0000 0.27900  0.61830  0.84860  Biso   1.000  C
  H37      1.0000 0.36830  0.66070  0.86450  Biso   1.000  H
  C55      1.0000 0.20800  0.64680  0.80310  Biso   1.000  C
  H38      1.0000 0.24940  0.71030  0.78940  Biso   1.000  H
  C56      1.0000 0.07570  0.58150  0.77710  Biso   1.000  C
  C57      1.0000 0.98050  0.58680  0.72720  Biso   1.000  C
  C58      1.0000 0.99100  0.66160  0.68890  Biso   1.000  C
  H39      1.0000 0.06800  0.72370  0.69560  Biso   1.000  H
  C59      1.0000 0.88600  0.64330  0.64150  Biso   1.000  C
  H40      1.0000 0.89300  0.69340  0.61620  Biso   1.000  H
  C60      1.0000 0.76960  0.55070  0.63080  Biso   1.000  C
  C61      1.0000 0.65740  0.52780  0.57880  Biso   1.000  C
  C62      1.0000 0.75720  0.47780  0.66910  Biso   1.000  C
  H41      1.0000 0.67860  0.41700  0.66280  Biso   1.000  H
  C63      1.0000 0.86190  0.49560  0.71660  Biso   1.000  C
  C64      1.0000 0.87380  0.42390  0.76300  Biso   1.000  C
  C65      1.0000 0.77300  0.41600  0.79860  Biso   1.000  C
  H42      1.0000 0.78050  0.48600  0.81370  Biso   1.000  H
  H43      1.0000 0.68560  0.37630  0.77330  Biso   1.000  H
  H44      1.0000 0.78840  0.37850  0.83050  Biso   1.000  H
  C66      1.0000 0.85300  0.31400  0.73660  Biso   1.000  C
  H45      1.0000 0.86930  0.27440  0.76740  Biso   1.000  H
  H46      1.0000 0.76410  0.27630  0.71240  Biso   1.000  H
  H47      1.0000 0.91270  0.32130  0.71330  Biso   1.000  H
  C67      1.0000 0.01610  0.48790  0.79930  Biso   1.000  C
  C68      1.0000 0.08550  0.46040  0.84640  Biso   1.000  C
  H48      1.0000 0.04440  0.39840  0.86120  Biso   1.000  H
  C69      1.0000 0.45200  0.33620  0.92500  Biso   1.000  C
  C70      1.0000 0.38310  0.28000  0.86440  Biso   1.000  C
  C71      1.0000 0.43200  0.30560  0.81930  Biso   1.000  C
  H49      1.0000 0.51480  0.36240  0.82610  Biso   1.000  H
  C72      1.0000 0.36800  0.25280  0.76410  Biso   1.000  C
  H50      1.0000 0.40600  0.27330  0.73390  Biso   1.000  H
  C73      1.0000 0.24400  0.16690  0.75330  Biso   1.000  C
  C74      1.0000 0.15200  0.09620  0.70000  Biso   1.000  C
  C75      1.0000 0.15700  0.09710  0.64240  Biso   1.000  C
  H51      1.0000 0.22780  0.14880  0.63310  Biso   1.000  H
  C76      1.0000 0.05350  0.01960  0.59900  Biso   1.000  C
  H52      1.0000 0.05730  0.01770  0.56070  Biso   1.000  H
  C77      1.0000 0.94700  0.94650  0.61210  Biso   1.000  C
  C78      1.0000 0.83110  0.86180  0.56470  Biso   1.000  C
  C79      1.0000 0.93930  0.94540  0.67000  Biso   1.000  C
  H53      1.0000 0.86730  0.89470  0.67920  Biso   1.000  H
  C80      1.0000 0.04140  0.02140  0.71160  Biso   1.000  C
  C81      1.0000 0.05670  0.03690  0.77760  Biso   1.000  C
  C82      1.0000 0.94800  0.06800  0.78930  Biso   1.000  C
  H54      1.0000 0.94370  0.12600  0.76930  Biso   1.000  H
  H55      1.0000 0.86600  0.00620  0.77560  Biso   1.000  H
  H56      1.0000 0.96640  0.08870  0.83060  Biso   1.000  H
  C83      1.0000 0.05200  0.93900  0.80420  Biso   1.000  C
  H57      1.0000 0.07370  0.95540  0.84600  Biso   1.000  H
  H58      1.0000 0.96720  0.88050  0.78990  Biso   1.000  H
  H59      1.0000 0.11680  0.91770  0.79400  Biso   1.000  H
  C84      1.0000 0.19160  0.13300  0.79940  Biso   1.000  C
  C85      1.0000 0.25330  0.18760  0.85330  Biso   1.000  C
  H60      1.0000 0.21510  0.16780  0.88340  Biso   1.000  H
  C86      1.0000 0.53800  0.83950  0.41860  Biso   1.000  C
  C87      1.0000 0.50340  0.91880  0.38560  Biso   1.000  C
  C88      1.0000 0.46900  0.99340  0.41160  Biso   1.000  C
  H61      1.0000 0.46780  0.99300  0.45030  Biso   1.000  H
  C89      1.0000 0.43700  0.06760  0.38230  Biso   1.000  C
  H62      1.0000 0.41260  0.11580  0.40030  Biso   1.000  H
  C90      1.0000 0.44230  0.06800  0.32390  Biso   1.000  C
  C91      1.0000 0.42100  0.13900  0.28370  Biso   1.000  C
  C92      1.0000 0.38200  0.22550  0.28680  Biso   1.000  C
  H63      1.0000 0.36520  0.24730  0.32030  Biso   1.000  H
  C93      1.0000 0.36900  0.27520  0.24010  Biso   1.000  C
  H64      1.0000 0.34530  0.33270  0.24290  Biso   1.000  H
  C94      1.0000 0.38900  0.24680  0.18920  Biso   1.000  C
  C95      1.0000 0.37300  0.29830  0.13790  Biso   1.000  C
  C96      1.0000 0.42500  0.15690  0.18470  Biso   1.000  C
  H65      1.0000 0.43550  0.13340  0.14980  Biso   1.000  H
  C97      1.0000 0.44360  0.10620  0.23150  Biso   1.000  C
  C98      1.0000 0.48270  0.01390  0.23670  Biso   1.000  C
  C99      1.0000 0.38900  0.91810  0.19060  Biso   1.000  C
  H66      1.0000 0.38350  0.93700  0.15210  Biso   1.000  H
  H67      1.0000 0.42010  0.86180  0.19390  Biso   1.000  H
  H68      1.0000 0.30410  0.89370  0.19750  Biso   1.000  H
  C100     1.0000 0.62700  0.04880  0.23190  Biso   1.000  C
  H69      1.0000 0.68490  0.11330  0.25890  Biso   1.000  H
  H70      1.0000 0.65560  0.99230  0.24060  Biso   1.000  H
  H71      1.0000 0.62830  0.06160  0.19270  Biso   1.000  H
  C101     1.0000 0.47900  0.99550  0.29820  Biso   1.000  C
  C102     1.0000 0.50870  0.92090  0.32780  Biso   1.000  C
  H72      1.0000 0.53220  0.87220  0.30980  Biso   1.000  H
  O13      1.0000 0.23040  0.43930  0.95350  Biso   1.000  O
  O14      1.0000 0.41680  0.53700  0.93520  Biso   1.000  O
  O15      1.0000 0.54640  0.45620  0.57650  Biso   1.000  O
  O16      1.0000 0.68200  0.57970  0.53690  Biso   1.000  O
  O17      1.0000 0.39360  0.30870  0.96460  Biso   1.000  O
  O18      1.0000 0.56450  0.41240  0.93350  Biso   1.000  O
  O19      1.0000 0.73160  0.80390  0.57870  Biso   1.000  O
  O20      1.0000 0.84040  0.85370  0.51420  Biso   1.000  O
  O21      1.0000 0.54300  0.84370  0.47160  Biso   1.000  O
  O22      1.0000 0.56470  0.76960  0.39310  Biso   1.000  O
  O23      1.0000 0.36330  0.38920  0.14210  Biso   1.000  O
  O24      1.0000 0.37220  0.25840  0.08800  Biso   1.000  O
