data_image0
_cell_length_a       11.4646
_cell_length_b       13.6288
_cell_length_c       23.7978
_cell_angle_alpha    92.929
_cell_angle_beta     103.548
_cell_angle_gamma    112.494

_symmetry_space_group_name_H-M    "P 1"
_symmetry_int_tables_number       1

loop_
  _symmetry_equiv_pos_as_xyz
  'x, y, z'

loop_
  _atom_site_label
  _atom_site_occupancy
  _atom_site_fract_x
  _atom_site_fract_y
  _atom_site_fract_z
  _atom_site_thermal_displace_type
  _atom_site_B_iso_or_equiv
  _atom_site_type_symbol
  Tb1      1.0000 0.37832  0.30086  0.51767  Biso   1.000  Tb
  Tb2      1.0000 0.64148  0.59472  0.96163  Biso   1.000  Tb
  C1       1.0000 0.70400  0.49410  0.07300  Biso   1.000  C
  C2       1.0000 0.78200  0.46520  0.12570  Biso   1.000  C
  C3       1.0000 0.72120  0.37470  0.14870  Biso   1.000  C
  H1       1.0000 0.63240  0.33160  0.13240  Biso   1.000  H
  C4       1.0000 0.79300  0.34800  0.19650  Biso   1.000  C
  H2       1.0000 0.75340  0.28610  0.21180  Biso   1.000  H
  C5       1.0000 0.92450  0.41480  0.22110  Biso   1.000  C
  C6       1.0000 0.01990  0.41020  0.27280  Biso   1.000  C
  C7       1.0000 0.01020  0.33610  0.31130  Biso   1.000  C
  H3       1.0000 0.93400  0.27370  0.30480  Biso   1.000  H
  C8       1.0000 0.11530  0.35650  0.35920  Biso   1.000  C
  H4       1.0000 0.10910  0.30800  0.38570  Biso   1.000  H
  C9       1.0000 0.23100  0.44890  0.36870  Biso   1.000  C
  C10      1.0000 0.34250  0.47190  0.42160  Biso   1.000  C
  C11      1.0000 0.24300  0.52080  0.32900  Biso   1.000  C
  H5       1.0000 0.32120  0.58080  0.33420  Biso   1.000  H
  C12      1.0000 0.13640  0.50140  0.28160  Biso   1.000  C
  C13      1.0000 0.12420  0.57100  0.23410  Biso   1.000  C
  C14      1.0000 0.22430  0.58250  0.19940  Biso   1.000  C
  H6       1.0000 0.21630  0.51280  0.18430  Biso   1.000  H
  H7       1.0000 0.31120  0.62240  0.22460  Biso   1.000  H
  H8       1.0000 0.20850  0.62030  0.16750  Biso   1.000  H
  C15      1.0000 0.14230  0.68250  0.26050  Biso   1.000  C
  H9       1.0000 0.12560  0.72210  0.22970  Biso   1.000  H
  H10      1.0000 0.23080  0.72020  0.28470  Biso   1.000  H
  H11      1.0000 0.08230  0.67520  0.28380  Biso   1.000  H
  C16      1.0000 0.98350  0.50760  0.19820  Biso   1.000  C
  C17      1.0000 0.91220  0.53120  0.14950  Biso   1.000  C
  H12      1.0000 0.95210  0.59130  0.13310  Biso   1.000  H
  C18      1.0000 0.55590  0.66160  0.07710  Biso   1.000  C
  C19      1.0000 0.62480  0.72440  0.13750  Biso   1.000  C
  C20      1.0000 0.57360  0.69620  0.18320  Biso   1.000  C
  H13      1.0000 0.49200  0.63920  0.17630  Biso   1.000  H
  C21      1.0000 0.63950  0.74990  0.23970  Biso   1.000  C
  H14      1.0000 0.60370  0.72910  0.27060  Biso   1.000  H
  C22      1.0000 0.76100  0.83610  0.24900  Biso   1.000  C
  C23      1.0000 0.85220  0.90730  0.30270  Biso   1.000  C
  C24      1.0000 0.84690  0.90650  0.36060  Biso   1.000  C
  H15      1.0000 0.77620  0.85580  0.37040  Biso   1.000  H
  C25      1.0000 0.94980  0.98330  0.40260  Biso   1.000  C
  H16      1.0000 0.94710  0.98530  0.44140  Biso   1.000  H
  C26      1.0000 0.05770  0.05800  0.38910  Biso   1.000  C
  C27      1.0000 0.17130  0.14030  0.43630  Biso   1.000  C
  C28      1.0000 0.06330  0.05710  0.33170  Biso   1.000  C
  H17      1.0000 0.13540  0.10680  0.32240  Biso   1.000  H
  C29      1.0000 0.96090  0.98170  0.28870  Biso   1.000  C
  C30      1.0000 0.94550  0.96460  0.22300  Biso   1.000  C
  C31      1.0000 0.05530  0.93620  0.21070  Biso   1.000  C
  H18      1.0000 0.05990  0.87790  0.23070  Biso   1.000  H
  H19      1.0000 0.13760  0.99770  0.22440  Biso   1.000  H
  H20      1.0000 0.03720  0.91510  0.16940  Biso   1.000  H
  C32      1.0000 0.94600  0.06330  0.19530  Biso   1.000  C
  H21      1.0000 0.92470  0.04640  0.15350  Biso   1.000  H
  H22      1.0000 0.03120  0.12130  0.20960  Biso   1.000  H
  H23      1.0000 0.88160  0.08410  0.20550  Biso   1.000  H
  C33      1.0000 0.81230  0.86880  0.20250  Biso   1.000  C
  C34      1.0000 0.74560  0.81350  0.14620  Biso   1.000  C
  H24      1.0000 0.77980  0.83480  0.11490  Biso   1.000  H
  C35      1.0000 0.46320  0.16400  0.58190  Biso   1.000  C
  C36      1.0000 0.49840  0.08340  0.61520  Biso   1.000  C
  C37      1.0000 0.53450  0.00990  0.58870  Biso   1.000  C
  H25      1.0000 0.53820  0.01160  0.55010  Biso   1.000  H
  C38      1.0000 0.56470  0.93520  0.61850  Biso   1.000  C
  H26      1.0000 0.58930  0.88690  0.60050  Biso   1.000  H
  C39      1.0000 0.55790  0.93280  0.67610  Biso   1.000  C
  C40      1.0000 0.58130  0.86270  0.71780  Biso   1.000  C
  C41      1.0000 0.61660  0.77640  0.71270  Biso   1.000  C
  H27      1.0000 0.62900  0.75350  0.67790  Biso   1.000  H
  C42      1.0000 0.63280  0.72570  0.76090  Biso   1.000  C
  H28      1.0000 0.65850  0.66910  0.75800  Biso   1.000  H
  C43      1.0000 0.61310  0.75410  0.81220  Biso   1.000  C
  C44      1.0000 0.62740  0.69930  0.86440  Biso   1.000  C
  C45      1.0000 0.57710  0.84270  0.81710  Biso   1.000  C
  H29      1.0000 0.56530  0.86520  0.85210  Biso   1.000  H
  C46      1.0000 0.55980  0.89490  0.76980  Biso   1.000  C
  C47      1.0000 0.51820  0.98740  0.76450  Biso   1.000  C
  C48      1.0000 0.61430  0.08590  0.81010  Biso   1.000  C
  H30      1.0000 0.62010  0.06700  0.84870  Biso   1.000  H
  H31      1.0000 0.58340  0.14220  0.80680  Biso   1.000  H
  H32      1.0000 0.69940  0.11030  0.80330  Biso   1.000  H
  C49      1.0000 0.37760  0.95380  0.77050  Biso   1.000  C
  H33      1.0000 0.31980  0.88930  0.74340  Biso   1.000  H
  H34      1.0000 0.34910  0.01030  0.76180  Biso   1.000  H
  H35      1.0000 0.37640  0.94100  0.80970  Biso   1.000  H
  C50      1.0000 0.52270  0.00640  0.70290  Biso   1.000  C
  C51      1.0000 0.49320  0.08200  0.67260  Biso   1.000  C
  H36      1.0000 0.47020  0.13120  0.69070  Biso   1.000  H
  O1       1.0000 0.76590  0.55140  0.04220  Biso   1.000  O
  O2       1.0000 0.58170  0.45750  0.06300  Biso   1.000  O
  O3       1.0000 0.45140  0.54490  0.42340  Biso   1.000  O
  O4       1.0000 0.32070  0.42110  0.46360  Biso   1.000  O
  O5       1.0000 0.61420  0.68690  0.03760  Biso   1.000  O
  O6       1.0000 0.44300  0.58650  0.07000  Biso   1.000  O
  O7       1.0000 0.27170  0.19860  0.42230  Biso   1.000  O
  O8       1.0000 0.16340  0.15090  0.48820  Biso   1.000  O
  O9       1.0000 0.46010  0.16100  0.52840  Biso   1.000  O
  O10      1.0000 0.43430  0.23140  0.60720  Biso   1.000  O
  O11      1.0000 0.63180  0.60890  0.85880  Biso   1.000  O
  O12      1.0000 0.63200  0.74270  0.91380  Biso   1.000  O
  Tb3      1.0000 0.62168  0.69914  0.48233  Biso   1.000  Tb
  Tb4      1.0000 0.35852  0.40528  0.03837  Biso   1.000  Tb
  C52      1.0000 0.29600  0.50590  0.92700  Biso   1.000  C
  C53      1.0000 0.21800  0.53480  0.87430  Biso   1.000  C
  C54      1.0000 0.27880  0.62530  0.85130  Biso   1.000  C
  H37      1.0000 0.36760  0.66840  0.86760  Biso   1.000  H
  C55      1.0000 0.20700  0.65200  0.80350  Biso   1.000  C
  H38      1.0000 0.24660  0.71390  0.78820  Biso   1.000  H
  C56      1.0000 0.07550  0.58520  0.77890  Biso   1.000  C
  C57      1.0000 0.98010  0.58980  0.72720  Biso   1.000  C
  C58      1.0000 0.98980  0.66390  0.68870  Biso   1.000  C
  H39      1.0000 0.06600  0.72630  0.69520  Biso   1.000  H
  C59      1.0000 0.88470  0.64350  0.64080  Biso   1.000  C
  H40      1.0000 0.89090  0.69200  0.61430  Biso   1.000  H
  C60      1.0000 0.76900  0.55110  0.63130  Biso   1.000  C
  C61      1.0000 0.65750  0.52810  0.57840  Biso   1.000  C
  C62      1.0000 0.75700  0.47920  0.67100  Biso   1.000  C
  H41      1.0000 0.67880  0.41920  0.66580  Biso   1.000  H
  C63      1.0000 0.86360  0.49860  0.71840  Biso   1.000  C
  C64      1.0000 0.87580  0.42900  0.76590  Biso   1.000  C
  C65      1.0000 0.77570  0.41750  0.80060  Biso   1.000  C
  H42      1.0000 0.78370  0.48720  0.81570  Biso   1.000  H
  H43      1.0000 0.68880  0.37760  0.77540  Biso   1.000  H
  H44      1.0000 0.79150  0.37970  0.83250  Biso   1.000  H
  C66      1.0000 0.85770  0.31750  0.73950  Biso   1.000  C
  H45      1.0000 0.87440  0.27790  0.77030  Biso   1.000  H
  H46      1.0000 0.76920  0.27980  0.71530  Biso   1.000  H
  H47      1.0000 0.91770  0.32480  0.71620  Biso   1.000  H
  C67      1.0000 0.01650  0.49240  0.80180  Biso   1.000  C
  C68      1.0000 0.08780  0.46880  0.85050  Biso   1.000  C
  H48      1.0000 0.04790  0.40870  0.86690  Biso   1.000  H
  C69      1.0000 0.44410  0.33840  0.92290  Biso   1.000  C
  C70      1.0000 0.37520  0.27560  0.86250  Biso   1.000  C
  C71      1.0000 0.42640  0.30380  0.81680  Biso   1.000  C
  H49      1.0000 0.50800  0.36080  0.82370  Biso   1.000  H
  C72      1.0000 0.36050  0.25010  0.76030  Biso   1.000  C
  H50      1.0000 0.39630  0.27090  0.72940  Biso   1.000  H
  C73      1.0000 0.23900  0.16390  0.75100  Biso   1.000  C
  C74      1.0000 0.14780  0.09270  0.69730  Biso   1.000  C
  C75      1.0000 0.15310  0.09350  0.63940  Biso   1.000  C
  H51      1.0000 0.22380  0.14420  0.62960  Biso   1.000  H
  C76      1.0000 0.05020  0.01670  0.59740  Biso   1.000  C
  H52      1.0000 0.05290  0.01470  0.55860  Biso   1.000  H
  C77      1.0000 0.94230  0.94200  0.61090  Biso   1.000  C
  C78      1.0000 0.82870  0.85970  0.56370  Biso   1.000  C
  C79      1.0000 0.93670  0.94290  0.66830  Biso   1.000  C
  H53      1.0000 0.86460  0.89320  0.67760  Biso   1.000  H
  C80      1.0000 0.03910  0.01830  0.71130  Biso   1.000  C
  C81      1.0000 0.05450  0.03540  0.77700  Biso   1.000  C
  C82      1.0000 0.94470  0.06380  0.78930  Biso   1.000  C
  H54      1.0000 0.94010  0.12210  0.76930  Biso   1.000  H
  H55      1.0000 0.86240  0.00230  0.77560  Biso   1.000  H
  H56      1.0000 0.96280  0.08490  0.83060  Biso   1.000  H
  C83      1.0000 0.05400  0.93670  0.80470  Biso   1.000  C
  H57      1.0000 0.07530  0.95360  0.84650  Biso   1.000  H
  H58      1.0000 0.96880  0.87870  0.79040  Biso   1.000  H
  H59      1.0000 0.11840  0.91590  0.79450  Biso   1.000  H
  C84      1.0000 0.18770  0.13120  0.79750  Biso   1.000  C
  C85      1.0000 0.25440  0.18650  0.85380  Biso   1.000  C
  H60      1.0000 0.22020  0.16520  0.88510  Biso   1.000  H
  C86      1.0000 0.53680  0.83600  0.41810  Biso   1.000  C
  C87      1.0000 0.50160  0.91660  0.38480  Biso   1.000  C
  C88      1.0000 0.46550  0.99010  0.41130  Biso   1.000  C
  H61      1.0000 0.46180  0.98840  0.44990  Biso   1.000  H
  C89      1.0000 0.43530  0.06480  0.38150  Biso   1.000  C
  H62      1.0000 0.41070  0.11310  0.39950  Biso   1.000  H
  C90      1.0000 0.44210  0.06720  0.32390  Biso   1.000  C
  C91      1.0000 0.41870  0.13730  0.28220  Biso   1.000  C
  C92      1.0000 0.38340  0.22360  0.28730  Biso   1.000  C
  H63      1.0000 0.37100  0.24650  0.32210  Biso   1.000  H
  C93      1.0000 0.36720  0.27430  0.23910  Biso   1.000  C
  H64      1.0000 0.34150  0.33090  0.24200  Biso   1.000  H
  C94      1.0000 0.38690  0.24590  0.18780  Biso   1.000  C
  C95      1.0000 0.37260  0.30070  0.13560  Biso   1.000  C
  C96      1.0000 0.42290  0.15730  0.18290  Biso   1.000  C
  H65      1.0000 0.43470  0.13480  0.14790  Biso   1.000  H
  C97      1.0000 0.44020  0.10510  0.23020  Biso   1.000  C
  C98      1.0000 0.48180  0.01260  0.23550  Biso   1.000  C
  C99      1.0000 0.38570  0.91410  0.18990  Biso   1.000  C
  H66      1.0000 0.37990  0.93300  0.15130  Biso   1.000  H
  H67      1.0000 0.41660  0.85780  0.19320  Biso   1.000  H
  H68      1.0000 0.30060  0.88970  0.19670  Biso   1.000  H
  C100     1.0000 0.62240  0.04620  0.22950  Biso   1.000  C
  H69      1.0000 0.68020  0.11070  0.25660  Biso   1.000  H
  H70      1.0000 0.65090  0.98970  0.23820  Biso   1.000  H
  H71      1.0000 0.62360  0.05900  0.19030  Biso   1.000  H
  C101     1.0000 0.47730  0.99360  0.29710  Biso   1.000  C
  C102     1.0000 0.50680  0.91800  0.32740  Biso   1.000  C
  H72      1.0000 0.52980  0.86880  0.30930  Biso   1.000  H
  O13      1.0000 0.23410  0.44860  0.95780  Biso   1.000  O
  O14      1.0000 0.41830  0.54250  0.93700  Biso   1.000  O
  O15      1.0000 0.54860  0.45510  0.57660  Biso   1.000  O
  O16      1.0000 0.67930  0.57890  0.53640  Biso   1.000  O
  O17      1.0000 0.38580  0.31310  0.96240  Biso   1.000  O
  O18      1.0000 0.55700  0.41350  0.93000  Biso   1.000  O
  O19      1.0000 0.72830  0.80140  0.57770  Biso   1.000  O
  O20      1.0000 0.83660  0.84910  0.51180  Biso   1.000  O
  O21      1.0000 0.53990  0.83900  0.47160  Biso   1.000  O
  O22      1.0000 0.56570  0.76860  0.39280  Biso   1.000  O
  O23      1.0000 0.36820  0.39110  0.14120  Biso   1.000  O
  O24      1.0000 0.36800  0.25730  0.08620  Biso   1.000  O
