data_image0
_cell_length_a       11.4087
_cell_length_b       13.6584
_cell_length_c       24.023
_cell_angle_alpha    93.171
_cell_angle_beta     103.627
_cell_angle_gamma    112.671

_symmetry_space_group_name_H-M    "P 1"
_symmetry_int_tables_number       1

loop_
  _symmetry_equiv_pos_as_xyz
  'x, y, z'

loop_
  _atom_site_label
  _atom_site_occupancy
  _atom_site_fract_x
  _atom_site_fract_y
  _atom_site_fract_z
  _atom_site_thermal_displace_type
  _atom_site_B_iso_or_equiv
  _atom_site_type_symbol
  Sm1      1.0000 0.64698  0.59774  0.96206  Biso   1.000  Sm
  O1       1.0000 0.63700  0.61070  0.85760  Biso   1.000  O
  O2       1.0000 0.60410  0.68960  0.03500  Biso   1.000  O
  O3       1.0000 0.62680  0.74180  0.91180  Biso   1.000  O
  O4       1.0000 0.43350  0.59000  0.06590  Biso   1.000  O
  C1       1.0000 0.62560  0.69970  0.86310  Biso   1.000  C
  C2       1.0000 0.61340  0.75560  0.81150  Biso   1.000  C
  C3       1.0000 0.57670  0.84260  0.81550  Biso   1.000  C
  C4       1.0000 0.63090  0.72390  0.76070  Biso   1.000  C
  H1       1.0000 0.56500  0.86560  0.85010  Biso   1.000  H
  C5       1.0000 0.55830  0.89310  0.76910  Biso   1.000  C
  C6       1.0000 0.61650  0.77530  0.71260  Biso   1.000  C
  H2       1.0000 0.65330  0.66550  0.75780  Biso   1.000  H
  C7       1.0000 0.57990  0.86080  0.71750  Biso   1.000  C
  C8       1.0000 0.51600  0.98630  0.76310  Biso   1.000  C
  H3       1.0000 0.63090  0.75320  0.67850  Biso   1.000  H
  C9       1.0000 0.55920  0.93150  0.67560  Biso   1.000  C
  C10      1.0000 0.37650  0.95130  0.76860  Biso   1.000  C
  C11      1.0000 0.51990  0.00310  0.70220  Biso   1.000  C
  C12      1.0000 0.61100  0.08430  0.80880  Biso   1.000  C
  C13      1.0000 0.56360  0.93280  0.61900  Biso   1.000  C
  H4       1.0000 0.34800  0.00780  0.75990  Biso   1.000  H
  H5       1.0000 0.37520  0.93850  0.80780  Biso   1.000  H
  H6       1.0000 0.31860  0.88680  0.74150  Biso   1.000  H
  C14      1.0000 0.49220  0.07960  0.67210  Biso   1.000  C
  H7       1.0000 0.58010  0.14060  0.80550  Biso   1.000  H
  H8       1.0000 0.61680  0.06540  0.84730  Biso   1.000  H
  H9       1.0000 0.69610  0.10870  0.80190  Biso   1.000  H
  C15      1.0000 0.53250  0.00610  0.58870  Biso   1.000  C
  H10      1.0000 0.58750  0.88410  0.60120  Biso   1.000  H
  C16      1.0000 0.49680  0.07950  0.61550  Biso   1.000  C
  H11      1.0000 0.47090  0.12990  0.69010  Biso   1.000  H
  H12      1.0000 0.53530  0.00690  0.55040  Biso   1.000  H
  C17      1.0000 0.46360  0.16210  0.58190  Biso   1.000  C
  O5       1.0000 0.45610  0.15500  0.52890  Biso   1.000  O
  O6       1.0000 0.43960  0.23050  0.60780  Biso   1.000  O
  Sm2      1.0000 0.37573  0.29807  0.51771  Biso   1.000  Sm
  O7       1.0000 0.15790  0.14800  0.48510  Biso   1.000  O
  O8       1.0000 0.26820  0.19510  0.42120  Biso   1.000  O
  C18      1.0000 0.16410  0.13650  0.43410  Biso   1.000  C
  C19      1.0000 0.05220  0.05240  0.38740  Biso   1.000  C
  C20      1.0000 0.06190  0.05370  0.33010  Biso   1.000  C
  C21      1.0000 0.94500  0.97930  0.40080  Biso   1.000  C
  C22      1.0000 0.95610  0.97720  0.28720  Biso   1.000  C
  H13      1.0000 0.13530  0.10310  0.32130  Biso   1.000  H
  C23      1.0000 0.84140  0.90280  0.35660  Biso   1.000  C
  H14      1.0000 0.94130  0.98060  0.43910  Biso   1.000  H
  C24      1.0000 0.94270  0.96060  0.22180  Biso   1.000  C
  C25      1.0000 0.84780  0.90250  0.30030  Biso   1.000  C
  H15      1.0000 0.76860  0.85230  0.36530  Biso   1.000  H
  C26      1.0000 0.94600  0.06150  0.19530  Biso   1.000  C
  C27      1.0000 0.80750  0.86630  0.19990  Biso   1.000  C
  C28      1.0000 0.05160  0.93140  0.20960  Biso   1.000  C
  C29      1.0000 0.75580  0.83330  0.24620  Biso   1.000  C
  H16      1.0000 0.92480  0.04470  0.15350  Biso   1.000  H
  H17      1.0000 0.88170  0.08240  0.20560  Biso   1.000  H
  H18      1.0000 0.03120  0.11960  0.20960  Biso   1.000  H
  C30      1.0000 0.74180  0.81270  0.14420  Biso   1.000  C
  H19      1.0000 0.05620  0.87310  0.22970  Biso   1.000  H
  H20      1.0000 0.03350  0.91030  0.16830  Biso   1.000  H
  H21      1.0000 0.13390  0.99290  0.22330  Biso   1.000  H
  C31      1.0000 0.63170  0.74840  0.23600  Biso   1.000  C
  H22      1.0000 0.77860  0.83370  0.11390  Biso   1.000  H
  C32      1.0000 0.61790  0.72550  0.13380  Biso   1.000  C
  C33      1.0000 0.56460  0.69480  0.17920  Biso   1.000  C
  H23      1.0000 0.59450  0.72810  0.26640  Biso   1.000  H
  C34      1.0000 0.54810  0.66480  0.07350  Biso   1.000  C
  H24      1.0000 0.48250  0.63740  0.17180  Biso   1.000  H
  O9       1.0000 0.77260  0.56470  0.04810  Biso   1.000  O
  O10      1.0000 0.58430  0.46830  0.06540  Biso   1.000  O
  O11      1.0000 0.45280  0.54190  0.42360  Biso   1.000  O
  O12      1.0000 0.31730  0.41800  0.46270  Biso   1.000  O
  C35      1.0000 0.34140  0.47070  0.42160  Biso   1.000  C
  C36      1.0000 0.22970  0.44770  0.36900  Biso   1.000  C
  C37      1.0000 0.11330  0.35580  0.35800  Biso   1.000  C
  C38      1.0000 0.24260  0.52130  0.33010  Biso   1.000  C
  C39      1.0000 0.00810  0.33770  0.31050  Biso   1.000  C
  H25      1.0000 0.10610  0.30560  0.38310  Biso   1.000  H
  C40      1.0000 0.14000  0.50580  0.28390  Biso   1.000  C
  H26      1.0000 0.32220  0.58110  0.33620  Biso   1.000  H
  C41      1.0000 0.02070  0.41420  0.27340  Biso   1.000  C
  H27      1.0000 0.93030  0.27580  0.30330  Biso   1.000  H
  C42      1.0000 0.12610  0.57620  0.23830  Biso   1.000  C
  C43      1.0000 0.92380  0.42080  0.22260  Biso   1.000  C
  C44      1.0000 0.22770  0.58830  0.20300  Biso   1.000  C
  C45      1.0000 0.14620  0.68730  0.26560  Biso   1.000  C
  C46      1.0000 0.98570  0.51410  0.20160  Biso   1.000  C
  C47      1.0000 0.78900  0.35260  0.19710  Biso   1.000  C
  H28      1.0000 0.21980  0.51870  0.18790  Biso   1.000  H
  H29      1.0000 0.31470  0.62830  0.22830  Biso   1.000  H
  H30      1.0000 0.21190  0.62610  0.17110  Biso   1.000  H
  H31      1.0000 0.08620  0.68000  0.28880  Biso   1.000  H
  H32      1.0000 0.23470  0.72500  0.28980  Biso   1.000  H
  H33      1.0000 0.12960  0.72690  0.23470  Biso   1.000  H
  C48      1.0000 0.91460  0.54090  0.15410  Biso   1.000  C
  C49      1.0000 0.72150  0.38220  0.15050  Biso   1.000  C
  H34      1.0000 0.74750  0.29020  0.21130  Biso   1.000  H
  C50      1.0000 0.78350  0.47490  0.12950  Biso   1.000  C
  H35      1.0000 0.95530  0.60270  0.13920  Biso   1.000  H
  H36      1.0000 0.63260  0.33910  0.13280  Biso   1.000  H
  C51      1.0000 0.70700  0.50440  0.07710  Biso   1.000  C
  Sm3      1.0000 0.35302  0.40226  0.03794  Biso   1.000  Sm
  O13      1.0000 0.36300  0.38930  0.14240  Biso   1.000  O
  O14      1.0000 0.39590  0.31040  0.96500  Biso   1.000  O
  O15      1.0000 0.37320  0.25820  0.08820  Biso   1.000  O
  O16      1.0000 0.56650  0.41000  0.93410  Biso   1.000  O
  C52      1.0000 0.37440  0.30030  0.13690  Biso   1.000  C
  C53      1.0000 0.38660  0.24440  0.18850  Biso   1.000  C
  C54      1.0000 0.42330  0.15740  0.18450  Biso   1.000  C
  C55      1.0000 0.36910  0.27610  0.23930  Biso   1.000  C
  H37      1.0000 0.43500  0.13440  0.14990  Biso   1.000  H
  C56      1.0000 0.44170  0.10690  0.23090  Biso   1.000  C
  C57      1.0000 0.38350  0.22470  0.28740  Biso   1.000  C
  H38      1.0000 0.34670  0.33450  0.24220  Biso   1.000  H
  C58      1.0000 0.42010  0.13920  0.28250  Biso   1.000  C
  C59      1.0000 0.48400  0.01370  0.23690  Biso   1.000  C
  H39      1.0000 0.36910  0.24680  0.32150  Biso   1.000  H
  C60      1.0000 0.44080  0.06850  0.32440  Biso   1.000  C
  C61      1.0000 0.62350  0.04870  0.23140  Biso   1.000  C
  C62      1.0000 0.48010  0.99690  0.29780  Biso   1.000  C
  C63      1.0000 0.38900  0.91570  0.19120  Biso   1.000  C
  C64      1.0000 0.43640  0.06720  0.38100  Biso   1.000  C
  H40      1.0000 0.65200  0.99220  0.24010  Biso   1.000  H
  H41      1.0000 0.62480  0.06150  0.19220  Biso   1.000  H
  H42      1.0000 0.68140  0.11320  0.25850  Biso   1.000  H
  C65      1.0000 0.50780  0.92040  0.32790  Biso   1.000  C
  H43      1.0000 0.41990  0.85940  0.19450  Biso   1.000  H
  H44      1.0000 0.38320  0.93460  0.15270  Biso   1.000  H
  H45      1.0000 0.30390  0.89130  0.19810  Biso   1.000  H
  C66      1.0000 0.46750  0.99390  0.41130  Biso   1.000  C
  H46      1.0000 0.41250  0.11590  0.39880  Biso   1.000  H
  C67      1.0000 0.50320  0.92050  0.38450  Biso   1.000  C
  H47      1.0000 0.52910  0.87010  0.30990  Biso   1.000  H
  H48      1.0000 0.46470  0.99310  0.44960  Biso   1.000  H
  C68      1.0000 0.53640  0.83790  0.41810  Biso   1.000  C
  O17      1.0000 0.54390  0.84500  0.47110  Biso   1.000  O
  O18      1.0000 0.56040  0.76950  0.39220  Biso   1.000  O
  Sm4      1.0000 0.62427  0.70193  0.48229  Biso   1.000  Sm
  O19      1.0000 0.84210  0.85200  0.51490  Biso   1.000  O
  O20      1.0000 0.73180  0.80490  0.57880  Biso   1.000  O
  C69      1.0000 0.83590  0.86350  0.56590  Biso   1.000  C
  C70      1.0000 0.94780  0.94760  0.61260  Biso   1.000  C
  C71      1.0000 0.93810  0.94630  0.66990  Biso   1.000  C
  C72      1.0000 0.05500  0.02070  0.59920  Biso   1.000  C
  C73      1.0000 0.04390  0.02280  0.71280  Biso   1.000  C
  H49      1.0000 0.86470  0.89690  0.67870  Biso   1.000  H
  C74      1.0000 0.15860  0.09720  0.64340  Biso   1.000  C
  H50      1.0000 0.05870  0.01940  0.56090  Biso   1.000  H
  C75      1.0000 0.05730  0.03940  0.77820  Biso   1.000  C
  C76      1.0000 0.15220  0.09750  0.69970  Biso   1.000  C
  H51      1.0000 0.23140  0.14770  0.63470  Biso   1.000  H
  C77      1.0000 0.05400  0.93850  0.80470  Biso   1.000  C
  C78      1.0000 0.19250  0.13370  0.80010  Biso   1.000  C
  C79      1.0000 0.94840  0.06860  0.79040  Biso   1.000  C
  C80      1.0000 0.24420  0.16670  0.75380  Biso   1.000  C
  H52      1.0000 0.07520  0.95530  0.84650  Biso   1.000  H
  H53      1.0000 0.11830  0.91760  0.79440  Biso   1.000  H
  H54      1.0000 0.96880  0.88040  0.79040  Biso   1.000  H
  C81      1.0000 0.25820  0.18730  0.85580  Biso   1.000  C
  H55      1.0000 0.94380  0.12690  0.77030  Biso   1.000  H
  H56      1.0000 0.96650  0.08970  0.83170  Biso   1.000  H
  H57      1.0000 0.86610  0.00710  0.77670  Biso   1.000  H
  C82      1.0000 0.36830  0.25160  0.76400  Biso   1.000  C
  H58      1.0000 0.22140  0.16630  0.88610  Biso   1.000  H
  C83      1.0000 0.38210  0.27450  0.86620  Biso   1.000  C
  C84      1.0000 0.43540  0.30520  0.82080  Biso   1.000  C
  H59      1.0000 0.40550  0.27190  0.73360  Biso   1.000  H
  C85      1.0000 0.45190  0.33520  0.92650  Biso   1.000  C
  H60      1.0000 0.51750  0.36260  0.82820  Biso   1.000  H
  O21      1.0000 0.22740  0.43530  0.95190  Biso   1.000  O
  O22      1.0000 0.41570  0.53170  0.93460  Biso   1.000  O
  O23      1.0000 0.54720  0.45810  0.57640  Biso   1.000  O
  O24      1.0000 0.68270  0.58200  0.53730  Biso   1.000  O
  C86      1.0000 0.65860  0.52930  0.57840  Biso   1.000  C
  C87      1.0000 0.77030  0.55230  0.63100  Biso   1.000  C
  C88      1.0000 0.88670  0.64420  0.64200  Biso   1.000  C
  C89      1.0000 0.75740  0.47870  0.66990  Biso   1.000  C
  C90      1.0000 0.99190  0.66230  0.68950  Biso   1.000  C
  H61      1.0000 0.89390  0.69440  0.61690  Biso   1.000  H
  C91      1.0000 0.86000  0.49420  0.71610  Biso   1.000  C
  H62      1.0000 0.67780  0.41890  0.66380  Biso   1.000  H
  C92      1.0000 0.97930  0.58580  0.72660  Biso   1.000  C
  H63      1.0000 0.06970  0.72420  0.69670  Biso   1.000  H
  C93      1.0000 0.87390  0.42380  0.76170  Biso   1.000  C
  C94      1.0000 0.07620  0.57920  0.77740  Biso   1.000  C
  C95      1.0000 0.77230  0.41170  0.79700  Biso   1.000  C
  C96      1.0000 0.85380  0.31270  0.73440  Biso   1.000  C
  C97      1.0000 0.01430  0.48590  0.79840  Biso   1.000  C
  C98      1.0000 0.21100  0.64740  0.80290  Biso   1.000  C
  H64      1.0000 0.78020  0.48130  0.81210  Biso   1.000  H
  H65      1.0000 0.68530  0.37170  0.77170  Biso   1.000  H
  H66      1.0000 0.78810  0.37390  0.82890  Biso   1.000  H
  H67      1.0000 0.91380  0.32000  0.71120  Biso   1.000  H
  H68      1.0000 0.76530  0.27500  0.71020  Biso   1.000  H
  H69      1.0000 0.87040  0.27310  0.76530  Biso   1.000  H
  C99      1.0000 0.08540  0.45910  0.84590  Biso   1.000  C
  C100     1.0000 0.27850  0.61780  0.84950  Biso   1.000  C
  H70      1.0000 0.25250  0.70980  0.78870  Biso   1.000  H
  C101     1.0000 0.21650  0.52510  0.87050  Biso   1.000  C
  H71      1.0000 0.04470  0.39730  0.86080  Biso   1.000  H
  H72      1.0000 0.36740  0.66090  0.86720  Biso   1.000  H
  C102     1.0000 0.29300  0.49560  0.92290  Biso   1.000  C
