data_image0
_cell_length_a       11.4957
_cell_length_b       13.6804
_cell_length_c       23.9693
_cell_angle_alpha    76.328
_cell_angle_beta     76.214
_cell_angle_gamma    66.917

_symmetry_space_group_name_H-M    "P 1"
_symmetry_int_tables_number       1

loop_
  _symmetry_equiv_pos_as_xyz
  'x, y, z'

loop_
  _atom_site_label
  _atom_site_occupancy
  _atom_site_fract_x
  _atom_site_fract_y
  _atom_site_fract_z
  _atom_site_thermal_displace_type
  _atom_site_B_iso_or_equiv
  _atom_site_type_symbol
  Gd1      1.0000 0.64066  0.29881  0.48270  Biso   1.000  Gd
  Gd2      1.0000 0.81596  0.59810  0.03827  Biso   1.000  Gd
  C1       1.0000 0.87440  0.50060  0.92300  Biso   1.000  C
  C2       1.0000 0.84870  0.47300  0.87130  Biso   1.000  C
  C3       1.0000 0.92990  0.38160  0.84950  Biso   1.000  C
  H1       1.0000 0.00170  0.33770  0.86650  Biso   1.000  H
  C4       1.0000 0.90670  0.35350  0.80240  Biso   1.000  C
  H2       1.0000 0.96220  0.29080  0.78810  Biso   1.000  H
  C5       1.0000 0.80030  0.41930  0.77700  Biso   1.000  C
  C6       1.0000 0.75420  0.41320  0.72630  Biso   1.000  C
  C7       1.0000 0.80320  0.33830  0.68860  Biso   1.000  C
  H3       1.0000 0.87460  0.27670  0.69510  Biso   1.000  H
  C8       1.0000 0.74370  0.35710  0.64120  Biso   1.000  C
  H4       1.0000 0.77570  0.30730  0.61570  Biso   1.000  H
  C9       1.0000 0.63820  0.44790  0.63090  Biso   1.000  C
  C10      1.0000 0.57970  0.47090  0.57800  Biso   1.000  C
  C11      1.0000 0.58670  0.52190  0.67010  Biso   1.000  C
  H5       1.0000 0.51350  0.58210  0.66440  Biso   1.000  H
  C12      1.0000 0.64500  0.50470  0.71700  Biso   1.000  C
  C13      1.0000 0.61110  0.57570  0.76260  Biso   1.000  C
  C14      1.0000 0.47810  0.58820  0.79750  Biso   1.000  C
  H6       1.0000 0.41570  0.62540  0.77210  Biso   1.000  H
  H7       1.0000 0.46140  0.62900  0.82790  Biso   1.000  H
  H8       1.0000 0.47320  0.51860  0.81430  Biso   1.000  H
  C15      1.0000 0.61810  0.68810  0.73470  Biso   1.000  C
  H9       1.0000 0.69920  0.67980  0.70980  Biso   1.000  H
  H10      1.0000 0.60930  0.72720  0.76480  Biso   1.000  H
  H11      1.0000 0.55010  0.72700  0.71230  Biso   1.000  H
  C16      1.0000 0.71680  0.51280  0.79950  Biso   1.000  C
  C17      1.0000 0.74120  0.53900  0.84610  Biso   1.000  C
  H12      1.0000 0.68580  0.60110  0.86100  Biso   1.000  H
  C18      1.0000 0.02620  0.66180  0.92580  Biso   1.000  C
  C19      1.0000 0.01550  0.72470  0.86570  Biso   1.000  C
  C20      1.0000 0.11530  0.69410  0.82010  Biso   1.000  C
  H13      1.0000 0.19000  0.63630  0.82730  Biso   1.000  H
  C21      1.0000 0.10480  0.74890  0.76350  Biso   1.000  C
  H14      1.0000 0.17210  0.72830  0.73310  Biso   1.000  H
  C22      1.0000 0.99370  0.83390  0.75300  Biso   1.000  C
  C23      1.0000 0.95380  0.90380  0.69900  Biso   1.000  C
  C24      1.0000 0.01640  0.90330  0.64250  Biso   1.000  C
  H15      1.0000 0.09710  0.85200  0.63350  Biso   1.000  H
  C25      1.0000 0.95780  0.97950  0.59960  Biso   1.000  C
  H16      1.0000 0.00080  0.98130  0.56140  Biso   1.000  H
  C26      1.0000 0.83310  0.05580  0.61210  Biso   1.000  C
  C27      1.0000 0.76790  0.13690  0.56590  Biso   1.000  C
  C28      1.0000 0.77090  0.05480  0.66900  Biso   1.000  C
  H17      1.0000 0.68910  0.10440  0.67810  Biso   1.000  H
  C29      1.0000 0.83140  0.97960  0.71190  Biso   1.000  C
  C30      1.0000 0.77940  0.96250  0.77790  Biso   1.000  C
  C31      1.0000 0.65950  0.93300  0.78850  Biso   1.000  C
  H18      1.0000 0.67480  0.87790  0.76630  Biso   1.000  H
  H19      1.0000 0.58890  0.99560  0.77680  Biso   1.000  H
  H20      1.0000 0.63950  0.90710  0.82910  Biso   1.000  H
  C32      1.0000 0.75120  0.06290  0.80420  Biso   1.000  C
  H21      1.0000 0.73550  0.04600  0.84590  Biso   1.000  H
  H22      1.0000 0.67710  0.11970  0.79110  Biso   1.000  H
  H23      1.0000 0.82360  0.08580  0.79220  Biso   1.000  H
  C33      1.0000 0.89410  0.86670  0.79900  Biso   1.000  C
  C34      1.0000 0.90450  0.81120  0.85530  Biso   1.000  C
  H24      1.0000 0.83750  0.83200  0.88570  Biso   1.000  H
  C35      1.0000 0.61900  0.16150  0.41850  Biso   1.000  C
  C36      1.0000 0.61670  0.08260  0.38500  Biso   1.000  C
  C37      1.0000 0.55380  0.01010  0.41120  Biso   1.000  C
  H25      1.0000 0.51040  0.01340  0.44910  Biso   1.000  H
  C38      1.0000 0.55420  0.93380  0.38220  Biso   1.000  C
  H26      1.0000 0.51300  0.88540  0.40040  Biso   1.000  H
  C39      1.0000 0.61780  0.93160  0.32520  Biso   1.000  C
  C40      1.0000 0.63660  0.86120  0.28340  Biso   1.000  C
  C41      1.0000 0.59550  0.77690  0.28800  Biso   1.000  C
  H27      1.0000 0.54710  0.75550  0.32230  Biso   1.000  H
  C42      1.0000 0.62810  0.72460  0.24020  Biso   1.000  C
  H28      1.0000 0.60090  0.66780  0.24270  Biso   1.000  H
  C43      1.0000 0.70040  0.75520  0.18880  Biso   1.000  C
  C44      1.0000 0.73620  0.69820  0.13700  Biso   1.000  C
  C45      1.0000 0.73920  0.83980  0.18510  Biso   1.000  C
  H29      1.0000 0.78610  0.86190  0.15050  Biso   1.000  H
  C46      1.0000 0.70900  0.89290  0.23230  Biso   1.000  C
  C47      1.0000 0.74610  0.98510  0.23730  Biso   1.000  C
  C48      1.0000 0.69630  0.08490  0.19220  Biso   1.000  C
  H30      1.0000 0.72850  0.06640  0.15380  Biso   1.000  H
  H31      1.0000 0.72480  0.13990  0.19590  Biso   1.000  H
  H32      1.0000 0.60430  0.11100  0.19860  Biso   1.000  H
  C49      1.0000 0.89150  0.95040  0.23320  Biso   1.000  C
  H33      1.0000 0.92330  0.88440  0.25920  Biso   1.000  H
  H34      1.0000 0.91040  0.00570  0.24340  Biso   1.000  H
  H35      1.0000 0.93200  0.94000  0.19400  Biso   1.000  H
  C50      1.0000 0.68070  0.00500  0.29890  Biso   1.000  C
  C51      1.0000 0.67890  0.07960  0.32840  Biso   1.000  C
  H36      1.0000 0.71970  0.12830  0.31030  Biso   1.000  H
  O1       1.0000 0.77940  0.56190  0.95280  Biso   1.000  O
  O2       1.0000 0.98490  0.46340  0.93460  Biso   1.000  O
  O3       1.0000 0.46890  0.54270  0.57593  Biso   1.000  O
  O4       1.0000 0.64320  0.41900  0.53689  Biso   1.000  O
  O5       1.0000 0.92890  0.68780  0.96450  Biso   1.000  O
  O6       1.0000 0.13090  0.58640  0.93340  Biso   1.000  O
  O7       1.0000 0.65330  0.19540  0.57847  Biso   1.000  O
  O8       1.0000 0.82640  0.14760  0.51390  Biso   1.000  O
  O9       1.0000 0.56980  0.15920  0.47175  Biso   1.000  O
  O10      1.0000 0.66970  0.23070  0.39330  Biso   1.000  O
  O11      1.0000 0.72160  0.61090  0.14200  Biso   1.000  O
  O12      1.0000 0.78410  0.74170  0.08880  Biso   1.000  O
  Gd3      1.0000 0.35934  0.70119  0.51730  Biso   1.000  Gd
  Gd4      1.0000 0.18404  0.40190  0.96173  Biso   1.000  Gd
  C52      1.0000 0.12560  0.49940  0.07700  Biso   1.000  C
  C53      1.0000 0.15130  0.52700  0.12870  Biso   1.000  C
  C54      1.0000 0.07010  0.61840  0.15050  Biso   1.000  C
  H37      1.0000 0.99830  0.66230  0.13350  Biso   1.000  H
  C55      1.0000 0.09330  0.64650  0.19760  Biso   1.000  C
  H38      1.0000 0.03780  0.70920  0.21190  Biso   1.000  H
  C56      1.0000 0.19970  0.58070  0.22300  Biso   1.000  C
  C57      1.0000 0.24580  0.58680  0.27370  Biso   1.000  C
  C58      1.0000 0.19680  0.66170  0.31140  Biso   1.000  C
  H39      1.0000 0.12540  0.72330  0.30490  Biso   1.000  H
  C59      1.0000 0.25630  0.64290  0.35880  Biso   1.000  C
  H40      1.0000 0.22430  0.69270  0.38430  Biso   1.000  H
  C60      1.0000 0.36180  0.55210  0.36910  Biso   1.000  C
  C61      1.0000 0.42030  0.52910  0.42200  Biso   1.000  C
  C62      1.0000 0.41330  0.47810  0.32990  Biso   1.000  C
  H41      1.0000 0.48650  0.41790  0.33560  Biso   1.000  H
  C63      1.0000 0.35500  0.49530  0.28300  Biso   1.000  C
  C64      1.0000 0.38890  0.42430  0.23740  Biso   1.000  C
  C65      1.0000 0.52190  0.41180  0.20250  Biso   1.000  C
  H42      1.0000 0.58430  0.37460  0.22790  Biso   1.000  H
  H43      1.0000 0.53860  0.37100  0.17210  Biso   1.000  H
  H44      1.0000 0.52680  0.48140  0.18570  Biso   1.000  H
  C66      1.0000 0.38190  0.31190  0.26530  Biso   1.000  C
  H45      1.0000 0.30080  0.32020  0.29020  Biso   1.000  H
  H46      1.0000 0.39070  0.27280  0.23520  Biso   1.000  H
  H47      1.0000 0.44990  0.27300  0.28770  Biso   1.000  H
  C67      1.0000 0.28320  0.48720  0.20050  Biso   1.000  C
  C68      1.0000 0.25880  0.46100  0.15390  Biso   1.000  C
  H48      1.0000 0.31420  0.39890  0.13900  Biso   1.000  H
  C69      1.0000 0.97380  0.33820  0.07420  Biso   1.000  C
  C70      1.0000 0.98450  0.27530  0.13430  Biso   1.000  C
  C71      1.0000 0.88470  0.30590  0.17990  Biso   1.000  C
  H49      1.0000 0.81000  0.36370  0.17270  Biso   1.000  H
  C72      1.0000 0.89520  0.25110  0.23650  Biso   1.000  C
  H50      1.0000 0.82790  0.27170  0.26690  Biso   1.000  H
  C73      1.0000 0.00630  0.16610  0.24700  Biso   1.000  C
  C74      1.0000 0.04620  0.09620  0.30100  Biso   1.000  C
  C75      1.0000 0.98360  0.09670  0.35750  Biso   1.000  C
  H51      1.0000 0.90290  0.14800  0.36650  Biso   1.000  H
  C76      1.0000 0.04220  0.02050  0.40040  Biso   1.000  C
  H52      1.0000 0.99920  0.01870  0.43860  Biso   1.000  H
  C77      1.0000 0.16690  0.94420  0.38790  Biso   1.000  C
  C78      1.0000 0.23210  0.86310  0.43410  Biso   1.000  C
  C79      1.0000 0.22910  0.94520  0.33100  Biso   1.000  C
  H53      1.0000 0.31090  0.89560  0.32190  Biso   1.000  H
  C80      1.0000 0.16860  0.02040  0.28810  Biso   1.000  C
  C81      1.0000 0.22060  0.03750  0.22210  Biso   1.000  C
  C82      1.0000 0.34050  0.06700  0.21150  Biso   1.000  C
  H54      1.0000 0.32520  0.12210  0.23370  Biso   1.000  H
  H55      1.0000 0.41110  0.00440  0.22320  Biso   1.000  H
  H56      1.0000 0.36050  0.09290  0.17090  Biso   1.000  H
  C83      1.0000 0.24880  0.93710  0.19580  Biso   1.000  C
  H57      1.0000 0.26450  0.95400  0.15410  Biso   1.000  H
  H58      1.0000 0.32290  0.88030  0.20890  Biso   1.000  H
  H59      1.0000 0.17640  0.91420  0.20780  Biso   1.000  H
  C84      1.0000 0.10590  0.13330  0.20100  Biso   1.000  C
  C85      1.0000 0.09550  0.18880  0.14470  Biso   1.000  C
  H60      1.0000 0.16250  0.16800  0.11430  Biso   1.000  H
  C86      1.0000 0.38100  0.83850  0.58150  Biso   1.000  C
  C87      1.0000 0.38330  0.91740  0.61500  Biso   1.000  C
  C88      1.0000 0.44620  0.98990  0.58880  Biso   1.000  C
  H61      1.0000 0.48960  0.98660  0.55090  Biso   1.000  H
  C89      1.0000 0.44580  0.06620  0.61780  Biso   1.000  C
  H62      1.0000 0.48700  0.11460  0.59960  Biso   1.000  H
  C90      1.0000 0.38220  0.06840  0.67480  Biso   1.000  C
  C91      1.0000 0.36340  0.13880  0.71660  Biso   1.000  C
  C92      1.0000 0.40450  0.22310  0.71200  Biso   1.000  C
  H63      1.0000 0.45290  0.24450  0.67770  Biso   1.000  H
  C93      1.0000 0.37190  0.27540  0.75980  Biso   1.000  C
  H64      1.0000 0.39910  0.33220  0.75730  Biso   1.000  H
  C94      1.0000 0.29960  0.24480  0.81120  Biso   1.000  C
  C95      1.0000 0.26380  0.30180  0.86300  Biso   1.000  C
  C96      1.0000 0.26080  0.16020  0.81490  Biso   1.000  C
  H65      1.0000 0.21390  0.13810  0.84950  Biso   1.000  H
  C97      1.0000 0.29100  0.10710  0.76770  Biso   1.000  C
  C98      1.0000 0.25390  0.01490  0.76270  Biso   1.000  C
  C99      1.0000 0.30370  0.91510  0.80780  Biso   1.000  C
  H66      1.0000 0.27150  0.93360  0.84620  Biso   1.000  H
  H67      1.0000 0.27520  0.86010  0.80410  Biso   1.000  H
  H68      1.0000 0.39570  0.88900  0.80140  Biso   1.000  H
  C100     1.0000 0.10850  0.04960  0.76680  Biso   1.000  C
  H69      1.0000 0.07670  0.11560  0.74080  Biso   1.000  H
  H70      1.0000 0.08960  0.99430  0.75660  Biso   1.000  H
  H71      1.0000 0.06800  0.06000  0.80600  Biso   1.000  H
  C101     1.0000 0.31930  0.99500  0.70110  Biso   1.000  C
  C102     1.0000 0.32110  0.92040  0.67160  Biso   1.000  C
  H72      1.0000 0.28030  0.87170  0.68970  Biso   1.000  H
  O13      1.0000 0.22060  0.43810  0.04720  Biso   1.000  O
  O14      1.0000 0.01510  0.53660  0.06540  Biso   1.000  O
  O15      1.0000 0.53110  0.45730  0.42407  Biso   1.000  O
  O16      1.0000 0.35680  0.58100  0.46311  Biso   1.000  O
  O17      1.0000 0.07110  0.31220  0.03550  Biso   1.000  O
  O18      1.0000 0.86910  0.41360  0.06660  Biso   1.000  O
  O19      1.0000 0.34670  0.80460  0.42153  Biso   1.000  O
  O20      1.0000 0.17360  0.85240  0.48610  Biso   1.000  O
  O21      1.0000 0.43020  0.84080  0.52825  Biso   1.000  O
  O22      1.0000 0.33030  0.76930  0.60670  Biso   1.000  O
  O23      1.0000 0.27840  0.38910  0.85800  Biso   1.000  O
  O24      1.0000 0.21590  0.25830  0.91120  Biso   1.000  O
