data_image0
_cell_length_a       8.7167
_cell_length_b       9.752
_cell_length_c       13.8642
_cell_angle_alpha    84.03
_cell_angle_beta     79.446
_cell_angle_gamma    73.029

_symmetry_space_group_name_H-M    "P 1"
_symmetry_int_tables_number       1

loop_
  _symmetry_equiv_pos_as_xyz
  'x, y, z'

loop_
  _atom_site_label
  _atom_site_occupancy
  _atom_site_fract_x
  _atom_site_fract_y
  _atom_site_fract_z
  _atom_site_thermal_displace_type
  _atom_site_B_iso_or_equiv
  _atom_site_type_symbol
  C1       1.0000 0.00780  0.63110  0.92020  Biso   1.000  C
  H1       1.0000 0.99410  0.69730  0.96880  Biso   1.000  H
  C2       1.0000 0.86910  0.61990  0.88870  Biso   1.000  C
  C3       1.0000 0.89210  0.52730  0.81400  Biso   1.000  C
  H2       1.0000 0.80160  0.52020  0.78780  Biso   1.000  H
  C4       1.0000 0.04730  0.44560  0.77800  Biso   1.000  C
  C5       1.0000 0.17730  0.46080  0.81710  Biso   1.000  C
  H3       1.0000 0.28350  0.40280  0.79410  Biso   1.000  H
  C6       1.0000 0.07500  0.34620  0.69620  Biso   1.000  C
  C7       1.0000 0.92980  0.93510  0.10770  Biso   1.000  C
  H4       1.0000 0.94790  0.86960  0.05800  Biso   1.000  H
  C8       1.0000 0.06340  0.94250  0.14620  Biso   1.000  C
  C9       1.0000 0.03320  0.03730  0.22110  Biso   1.000  C
  H5       1.0000 0.11970  0.04390  0.25160  Biso   1.000  H
  C10      1.0000 0.87550  0.12190  0.25060  Biso   1.000  C
  C11      1.0000 0.75210  0.10750  0.20560  Biso   1.000  C
  H6       1.0000 0.64500  0.16650  0.22510  Biso   1.000  H
  C12      1.0000 0.83060  0.21950  0.33500  Biso   1.000  C
  Co1      1.0000 0.36193  0.58415  0.93975  Biso   1.000  Co
  Co2      1.0000 0.57720  0.97889  0.08848  Biso   1.000  Co
  Co3      1.0000 0.93989  0.27548  0.52239  Biso   1.000  Co
  N1       1.0000 0.15910  0.55410  0.88600  Biso   1.000  N
  N2       1.0000 0.77620  0.01470  0.13630  Biso   1.000  N
  O1       1.0000 0.58310  0.82210  0.87347  Biso   1.000  O
  O2       1.0000 0.70430  0.78500  0.03276  Biso   1.000  O
  O3       1.0000 0.57930  0.60230  0.98241  Biso   1.000  O
  O4       1.0000 0.96370  0.37550  0.64387  Biso   1.000  O
  O5       1.0000 0.20270  0.24410  0.68421  Biso   1.000  O
  O6       1.0000 0.33030  0.74200  0.19089  Biso   1.000  O
  O7       1.0000 0.23360  0.73620  0.02807  Biso   1.000  O
  O8       1.0000 0.36800  0.92650  0.05397  Biso   1.000  O
  O9       1.0000 0.71240  0.32870  0.33533  Biso   1.000  O
  O10      1.0000 0.91610  0.17600  0.40300  Biso   1.000  O
  P1       1.0000 0.67010  0.71806  0.94862  Biso   1.000  P
  P2       1.0000 0.26487  0.82752  0.10086  Biso   1.000  P
  C13      1.0000 0.99220  0.36890  0.07980  Biso   1.000  C
  H7       1.0000 0.00590  0.30270  0.03120  Biso   1.000  H
  C14      1.0000 0.13090  0.38010  0.11130  Biso   1.000  C
  C15      1.0000 0.10790  0.47270  0.18600  Biso   1.000  C
  H8       1.0000 0.19840  0.47980  0.21220  Biso   1.000  H
  C16      1.0000 0.95270  0.55440  0.22200  Biso   1.000  C
  C17      1.0000 0.82270  0.53920  0.18290  Biso   1.000  C
  H9       1.0000 0.71650  0.59720  0.20590  Biso   1.000  H
  C18      1.0000 0.92500  0.65380  0.30380  Biso   1.000  C
  C19      1.0000 0.07020  0.06490  0.89230  Biso   1.000  C
  H10      1.0000 0.05210  0.13040  0.94200  Biso   1.000  H
  C20      1.0000 0.93660  0.05750  0.85380  Biso   1.000  C
  C21      1.0000 0.96680  0.96270  0.77890  Biso   1.000  C
  H11      1.0000 0.88030  0.95610  0.74840  Biso   1.000  H
  C22      1.0000 0.12450  0.87810  0.74940  Biso   1.000  C
  C23      1.0000 0.24790  0.89250  0.79440  Biso   1.000  C
  H12      1.0000 0.35500  0.83350  0.77490  Biso   1.000  H
  C24      1.0000 0.16940  0.78050  0.66500  Biso   1.000  C
  Co4      1.0000 0.63807  0.41585  0.06025  Biso   1.000  Co
  Co5      1.0000 0.42280  0.02111  0.91152  Biso   1.000  Co
  Co6      1.0000 0.06011  0.72452  0.47761  Biso   1.000  Co
  N3       1.0000 0.84090  0.44590  0.11400  Biso   1.000  N
  N4       1.0000 0.22380  0.98530  0.86370  Biso   1.000  N
  O11      1.0000 0.41690  0.17790  0.12653  Biso   1.000  O
  O12      1.0000 0.29570  0.21500  0.96724  Biso   1.000  O
  O13      1.0000 0.42070  0.39770  0.01759  Biso   1.000  O
  O14      1.0000 0.03630  0.62450  0.35613  Biso   1.000  O
  O15      1.0000 0.79730  0.75590  0.31579  Biso   1.000  O
  O16      1.0000 0.66970  0.25800  0.80911  Biso   1.000  O
  O17      1.0000 0.76640  0.26380  0.97193  Biso   1.000  O
  O18      1.0000 0.63200  0.07350  0.94603  Biso   1.000  O
  O19      1.0000 0.28760  0.67130  0.66467  Biso   1.000  O
  O20      1.0000 0.08390  0.82400  0.59700  Biso   1.000  O
  P3       1.0000 0.32990  0.28194  0.05138  Biso   1.000  P
  P4       1.0000 0.73513  0.17248  0.89914  Biso   1.000  P
