data_LAGDII_ion_b
_audit_creation_date              2014-07-02
_audit_creation_method            'Materials Studio'
_symmetry_space_group_name_H-M    'P1'
_symmetry_Int_Tables_number       1
_symmetry_cell_setting            triclinic
loop_
_symmetry_equiv_pos_as_xyz
  x,y,z
_cell_length_a                    15.8084
_cell_length_b                    15.8084
_cell_length_c                    16.5823
_cell_angle_alpha                 90.0000
_cell_angle_beta                  90.0000
_cell_angle_gamma                 120.0000
loop_
_atom_site_label
_atom_site_type_symbol
_atom_site_fract_x
_atom_site_fract_y
_atom_site_fract_z
_atom_site_U_iso_or_equiv
_atom_site_adp_type
_atom_site_occupancy
C1     C     0.87070   0.40680   0.24020   0.00000  Uiso   1.00
C2     C     0.91910   0.48520   0.29900   0.00000  Uiso   1.00
H3     H     0.97910   0.53850   0.28510   0.00000  Uiso   1.00
C4     C     0.88090   0.48540   0.37520   0.00000  Uiso   1.00
C5     C     0.94750   0.56000   0.43630   0.00000  Uiso   1.00
C6     C     0.91100   0.55280   0.51380   0.00000  Uiso   1.00
H7     H     0.84810   0.50250   0.52490   0.00000  Uiso   1.00
C8     C     0.04100   0.62900   0.42230   0.00000  Uiso   1.00
H9     H     0.06750   0.63150   0.37170   0.00000  Uiso   1.00
C10    C     0.96290   0.61570   0.57410   0.00000  Uiso   1.00
H11    H     0.93580   0.60910   0.62510   0.00000  Uiso   1.00
C12    C     0.09910   0.69600   0.47960   0.00000  Uiso   1.00
H13    H     0.16310   0.74360   0.46800   0.00000  Uiso   1.00
C14    C     0.05760   0.69010   0.55790   0.00000  Uiso   1.00
C15    C     0.11700   0.75740   0.62110   0.00000  Uiso   1.00
C16    C     0.92790   0.40720   0.16670   0.00000  Uiso   1.00
C17    C     0.87490   0.35270   0.10310   0.00000  Uiso   1.00
H18    H     0.80710   0.31670   0.10630   0.00000  Uiso   1.00
C19    C     0.02330   0.45520   0.16010   0.00000  Uiso   1.00
H20    H     0.06080   0.49310   0.20310   0.00000  Uiso   1.00
C21    C     0.92300   0.35100   0.03220   0.00000  Uiso   1.00
H22    H     0.88710   0.31600   0.98750   0.00000  Uiso   1.00
C23    C     0.07110   0.45070   0.08860   0.00000  Uiso   1.00
H24    H     0.13890   0.48480   0.08550   0.00000  Uiso   1.00
C25    C     0.02120   0.40020   0.02950   0.00000  Uiso   1.00
C26    C     0.07110   0.40260   0.95720   0.00000  Uiso   1.00
N27    N     0.10580   0.39820   0.89550   0.00000  Uiso   1.00
N28    N     0.16130   0.80670   0.66910   0.00000  Uiso   1.00
O29    O     0.78570   0.34060   0.24470   0.00000  Uiso   1.00
O30    O     0.79760   0.42730   0.39880   0.00000  Uiso   1.00
Ag31   Ag    0.87169   0.59798   0.23505   0.00000  Uiso   1.00
O32    O     0.03670   0.73430   0.25020   0.00000  Uiso   1.00
O33    O     0.23770   0.87210   0.26380   0.00000  Uiso   1.00
O34    O     0.14770   0.82240   0.11160   0.00000  Uiso   1.00
Re35   Re    0.15067   0.78370   0.20512   0.00000  Uiso   1.00
O36    O     0.17660   0.68870   0.20060   0.00000  Uiso   1.00
C37    C     0.59320   0.46390   0.24020   0.00000  Uiso   1.00
C38    C     0.51480   0.43390   0.29900   0.00000  Uiso   1.00
H39    H     0.46150   0.44060   0.28510   0.00000  Uiso   1.00
C40    C     0.51460   0.39550   0.37520   0.00000  Uiso   1.00
C41    C     0.44000   0.38750   0.43630   0.00000  Uiso   1.00
C42    C     0.44720   0.35820   0.51380   0.00000  Uiso   1.00
H43    H     0.49750   0.34560   0.52490   0.00000  Uiso   1.00
C44    C     0.37100   0.41200   0.42230   0.00000  Uiso   1.00
H45    H     0.36850   0.43600   0.37170   0.00000  Uiso   1.00
C46    C     0.38430   0.34720   0.57410   0.00000  Uiso   1.00
H47    H     0.39090   0.32670   0.62510   0.00000  Uiso   1.00
C48    C     0.30400   0.40310   0.47960   0.00000  Uiso   1.00
H49    H     0.25640   0.41950   0.46800   0.00000  Uiso   1.00
C50    C     0.30990   0.36750   0.55790   0.00000  Uiso   1.00
C51    C     0.24260   0.35960   0.62110   0.00000  Uiso   1.00
C52    C     0.59280   0.52070   0.16670   0.00000  Uiso   1.00
C53    C     0.64730   0.52220   0.10310   0.00000  Uiso   1.00
H54    H     0.68330   0.49040   0.10630   0.00000  Uiso   1.00
C55    C     0.54480   0.56810   0.16010   0.00000  Uiso   1.00
H56    H     0.50690   0.56770   0.20310   0.00000  Uiso   1.00
C57    C     0.64900   0.57200   0.03220   0.00000  Uiso   1.00
H58    H     0.68400   0.57110   0.98750   0.00000  Uiso   1.00
C59    C     0.54930   0.62040   0.08860   0.00000  Uiso   1.00
H60    H     0.51520   0.65410   0.08550   0.00000  Uiso   1.00
C61    C     0.59980   0.62100   0.02950   0.00000  Uiso   1.00
C62    C     0.59740   0.66850   0.95720   0.00000  Uiso   1.00
N63    N     0.60180   0.70760   0.89550   0.00000  Uiso   1.00
N64    N     0.19330   0.35460   0.66910   0.00000  Uiso   1.00
O65    O     0.65940   0.44510   0.24470   0.00000  Uiso   1.00
O66    O     0.57270   0.37030   0.39880   0.00000  Uiso   1.00
Ag67   Ag    0.40202   0.27371   0.23505   0.00000  Uiso   1.00
O68    O     0.26570   0.30240   0.25020   0.00000  Uiso   1.00
O69    O     0.12790   0.36560   0.26380   0.00000  Uiso   1.00
O70    O     0.17760   0.32530   0.11160   0.00000  Uiso   1.00
Re71   Re    0.21630   0.36697   0.20512   0.00000  Uiso   1.00
O72    O     0.31130   0.48790   0.20060   0.00000  Uiso   1.00
C73    C     0.53610   0.12930   0.24020   0.00000  Uiso   1.00
C74    C     0.56610   0.08090   0.29900   0.00000  Uiso   1.00
H75    H     0.55940   0.02090   0.28510   0.00000  Uiso   1.00
C76    C     0.60450   0.11910   0.37520   0.00000  Uiso   1.00
C77    C     0.61250   0.05250   0.43630   0.00000  Uiso   1.00
C78    C     0.64180   0.08900   0.51380   0.00000  Uiso   1.00
H79    H     0.65440   0.15190   0.52490   0.00000  Uiso   1.00
C80    C     0.58800   0.95900   0.42230   0.00000  Uiso   1.00
H81    H     0.56400   0.93250   0.37170   0.00000  Uiso   1.00
C82    C     0.65280   0.03710   0.57410   0.00000  Uiso   1.00
H83    H     0.67330   0.06420   0.62510   0.00000  Uiso   1.00
C84    C     0.59690   0.90090   0.47960   0.00000  Uiso   1.00
H85    H     0.58050   0.83690   0.46800   0.00000  Uiso   1.00
C86    C     0.63250   0.94240   0.55790   0.00000  Uiso   1.00
C87    C     0.64040   0.88300   0.62110   0.00000  Uiso   1.00
C88    C     0.47930   0.07210   0.16670   0.00000  Uiso   1.00
C89    C     0.47780   0.12510   0.10310   0.00000  Uiso   1.00
H90    H     0.50960   0.19290   0.10630   0.00000  Uiso   1.00
C91    C     0.43190   0.97670   0.16010   0.00000  Uiso   1.00
H92    H     0.43230   0.93920   0.20310   0.00000  Uiso   1.00
C93    C     0.42800   0.07700   0.03220   0.00000  Uiso   1.00
H94    H     0.42890   0.11290   0.98750   0.00000  Uiso   1.00
C95    C     0.37960   0.92890   0.08860   0.00000  Uiso   1.00
H96    H     0.34590   0.86110   0.08550   0.00000  Uiso   1.00
C97    C     0.37900   0.97880   0.02950   0.00000  Uiso   1.00
C98    C     0.33150   0.92890   0.95720   0.00000  Uiso   1.00
N99    N     0.29240   0.89420   0.89550   0.00000  Uiso   1.00
N100   N     0.64540   0.83870   0.66910   0.00000  Uiso   1.00
O101   O     0.55490   0.21430   0.24470   0.00000  Uiso   1.00
O102   O     0.62970   0.20240   0.39880   0.00000  Uiso   1.00
Ag103  Ag    0.72629   0.12831   0.23505   0.00000  Uiso   1.00
O104   O     0.69760   0.96330   0.25020   0.00000  Uiso   1.00
O105   O     0.63440   0.76230   0.26380   0.00000  Uiso   1.00
O106   O     0.67470   0.85230   0.11160   0.00000  Uiso   1.00
Re107  Re    0.63303   0.84933   0.20512   0.00000  Uiso   1.00
O108   O     0.51210   0.82340   0.20060   0.00000  Uiso   1.00
C109   C     0.12930   0.59320   0.75980   0.00000  Uiso   1.00
C110   C     0.08090   0.51480   0.70100   0.00000  Uiso   1.00
H111   H     0.02090   0.46150   0.71490   0.00000  Uiso   1.00
C112   C     0.11910   0.51460   0.62480   0.00000  Uiso   1.00
C113   C     0.05250   0.44000   0.56370   0.00000  Uiso   1.00
C114   C     0.08900   0.44720   0.48620   0.00000  Uiso   1.00
H115   H     0.15190   0.49750   0.47510   0.00000  Uiso   1.00
C116   C     0.95900   0.37100   0.57770   0.00000  Uiso   1.00
H117   H     0.93250   0.36850   0.62830   0.00000  Uiso   1.00
C118   C     0.03710   0.38430   0.42590   0.00000  Uiso   1.00
H119   H     0.06420   0.39090   0.37490   0.00000  Uiso   1.00
C120   C     0.90090   0.30400   0.52040   0.00000  Uiso   1.00
H121   H     0.83690   0.25640   0.53200   0.00000  Uiso   1.00
C122   C     0.94240   0.30990   0.44210   0.00000  Uiso   1.00
C123   C     0.88300   0.24260   0.37890   0.00000  Uiso   1.00
C124   C     0.07210   0.59280   0.83330   0.00000  Uiso   1.00
C125   C     0.12510   0.64730   0.89690   0.00000  Uiso   1.00
H126   H     0.19290   0.68330   0.89370   0.00000  Uiso   1.00
C127   C     0.97670   0.54480   0.83990   0.00000  Uiso   1.00
H128   H     0.93920   0.50690   0.79690   0.00000  Uiso   1.00
C129   C     0.07700   0.64900   0.96780   0.00000  Uiso   1.00
H130   H     0.11290   0.68400   0.01250   0.00000  Uiso   1.00
C131   C     0.92890   0.54930   0.91140   0.00000  Uiso   1.00
H132   H     0.86110   0.51520   0.91450   0.00000  Uiso   1.00
C133   C     0.97880   0.59980   0.97050   0.00000  Uiso   1.00
C134   C     0.92890   0.59740   0.04280   0.00000  Uiso   1.00
N135   N     0.89420   0.60180   0.10450   0.00000  Uiso   1.00
N136   N     0.83870   0.19330   0.33090   0.00000  Uiso   1.00
O137   O     0.21430   0.65940   0.75530   0.00000  Uiso   1.00
O138   O     0.20240   0.57270   0.60120   0.00000  Uiso   1.00
Ag139  Ag    0.12831   0.40202   0.76495   0.00000  Uiso   1.00
O140   O     0.96330   0.26570   0.74980   0.00000  Uiso   1.00
O141   O     0.76230   0.12790   0.73620   0.00000  Uiso   1.00
O142   O     0.85230   0.17760   0.88840   0.00000  Uiso   1.00
Re143  Re    0.84933   0.21630   0.79488   0.00000  Uiso   1.00
O144   O     0.82340   0.31130   0.79940   0.00000  Uiso   1.00
C145   C     0.40680   0.53610   0.75980   0.00000  Uiso   1.00
C146   C     0.48520   0.56610   0.70100   0.00000  Uiso   1.00
H147   H     0.53850   0.55940   0.71490   0.00000  Uiso   1.00
C148   C     0.48540   0.60450   0.62480   0.00000  Uiso   1.00
C149   C     0.56000   0.61250   0.56370   0.00000  Uiso   1.00
C150   C     0.55280   0.64180   0.48620   0.00000  Uiso   1.00
H151   H     0.50250   0.65440   0.47510   0.00000  Uiso   1.00
C152   C     0.62900   0.58800   0.57770   0.00000  Uiso   1.00
H153   H     0.63150   0.56400   0.62830   0.00000  Uiso   1.00
C154   C     0.61570   0.65280   0.42590   0.00000  Uiso   1.00
H155   H     0.60910   0.67330   0.37490   0.00000  Uiso   1.00
C156   C     0.69600   0.59690   0.52040   0.00000  Uiso   1.00
H157   H     0.74360   0.58050   0.53200   0.00000  Uiso   1.00
C158   C     0.69010   0.63250   0.44210   0.00000  Uiso   1.00
C159   C     0.75740   0.64040   0.37890   0.00000  Uiso   1.00
C160   C     0.40720   0.47930   0.83330   0.00000  Uiso   1.00
C161   C     0.35270   0.47780   0.89690   0.00000  Uiso   1.00
H162   H     0.31670   0.50960   0.89370   0.00000  Uiso   1.00
C163   C     0.45520   0.43190   0.83990   0.00000  Uiso   1.00
H164   H     0.49310   0.43230   0.79690   0.00000  Uiso   1.00
C165   C     0.35100   0.42800   0.96780   0.00000  Uiso   1.00
H166   H     0.31600   0.42890   0.01250   0.00000  Uiso   1.00
C167   C     0.45070   0.37960   0.91140   0.00000  Uiso   1.00
H168   H     0.48480   0.34590   0.91450   0.00000  Uiso   1.00
C169   C     0.40020   0.37900   0.97050   0.00000  Uiso   1.00
C170   C     0.40260   0.33150   0.04280   0.00000  Uiso   1.00
N171   N     0.39820   0.29240   0.10450   0.00000  Uiso   1.00
N172   N     0.80670   0.64540   0.33090   0.00000  Uiso   1.00
O173   O     0.34060   0.55490   0.75530   0.00000  Uiso   1.00
O174   O     0.42730   0.62970   0.60120   0.00000  Uiso   1.00
Ag175  Ag    0.59798   0.72629   0.76495   0.00000  Uiso   1.00
O176   O     0.73430   0.69760   0.74980   0.00000  Uiso   1.00
O177   O     0.87210   0.63440   0.73620   0.00000  Uiso   1.00
O178   O     0.82240   0.67470   0.88840   0.00000  Uiso   1.00
Re179  Re    0.78370   0.63303   0.79488   0.00000  Uiso   1.00
O180   O     0.68870   0.51210   0.79940   0.00000  Uiso   1.00
C181   C     0.46390   0.87070   0.75980   0.00000  Uiso   1.00
C182   C     0.43390   0.91910   0.70100   0.00000  Uiso   1.00
H183   H     0.44060   0.97910   0.71490   0.00000  Uiso   1.00
C184   C     0.39550   0.88090   0.62480   0.00000  Uiso   1.00
C185   C     0.38750   0.94750   0.56370   0.00000  Uiso   1.00
C186   C     0.35820   0.91100   0.48620   0.00000  Uiso   1.00
H187   H     0.34560   0.84810   0.47510   0.00000  Uiso   1.00
C188   C     0.41200   0.04100   0.57770   0.00000  Uiso   1.00
H189   H     0.43600   0.06750   0.62830   0.00000  Uiso   1.00
C190   C     0.34720   0.96290   0.42590   0.00000  Uiso   1.00
H191   H     0.32670   0.93580   0.37490   0.00000  Uiso   1.00
C192   C     0.40310   0.09910   0.52040   0.00000  Uiso   1.00
H193   H     0.41950   0.16310   0.53200   0.00000  Uiso   1.00
C194   C     0.36750   0.05760   0.44210   0.00000  Uiso   1.00
C195   C     0.35960   0.11700   0.37890   0.00000  Uiso   1.00
C196   C     0.52070   0.92790   0.83330   0.00000  Uiso   1.00
C197   C     0.52220   0.87490   0.89690   0.00000  Uiso   1.00
H198   H     0.49040   0.80710   0.89370   0.00000  Uiso   1.00
C199   C     0.56810   0.02330   0.83990   0.00000  Uiso   1.00
H200   H     0.56770   0.06080   0.79690   0.00000  Uiso   1.00
C201   C     0.57200   0.92300   0.96780   0.00000  Uiso   1.00
H202   H     0.57110   0.88710   0.01250   0.00000  Uiso   1.00
C203   C     0.62040   0.07110   0.91140   0.00000  Uiso   1.00
H204   H     0.65410   0.13890   0.91450   0.00000  Uiso   1.00
C205   C     0.62100   0.02120   0.97050   0.00000  Uiso   1.00
C206   C     0.66850   0.07110   0.04280   0.00000  Uiso   1.00
N207   N     0.70760   0.10580   0.10450   0.00000  Uiso   1.00
N208   N     0.35460   0.16130   0.33090   0.00000  Uiso   1.00
O209   O     0.44510   0.78570   0.75530   0.00000  Uiso   1.00
O210   O     0.37030   0.79760   0.60120   0.00000  Uiso   1.00
Ag211  Ag    0.27371   0.87169   0.76495   0.00000  Uiso   1.00
O212   O     0.30240   0.03670   0.74980   0.00000  Uiso   1.00
O213   O     0.36560   0.23770   0.73620   0.00000  Uiso   1.00
O214   O     0.32530   0.14770   0.88840   0.00000  Uiso   1.00
Re215  Re    0.36697   0.15067   0.79488   0.00000  Uiso   1.00
O216   O     0.48790   0.17660   0.79940   0.00000  Uiso   1.00
Cd217  Cd    0.66667   0.33333   0.32406   0.00000  Uiso   1.00
Cd218  Cd    0.33333   0.66667   0.67594   0.00000  Uiso   1.00
loop_
_geom_bond_atom_site_label_1
_geom_bond_atom_site_label_2
_geom_bond_distance
_geom_bond_site_symmetry_2
_ccdc_geom_bond_type
C1     C2      1.457   .     S
C1     C16     1.516   .     S
C1     O29     1.225   .     D
C2     H3      0.929   .     S
C2     C4      1.401   .     S
C2     Ag31    2.490   .     S
C4     C5      1.511   .     S
C4     O30     1.233   .     D
C5     C6      1.390   .     D
C5     C8      1.348   1_655 S
C6     H7      0.930   .     S
C6     C10     1.359   .     S
C8     H9      0.930   .     S
C8     C12     1.377   .     D
C8     C5      1.348   1_455 S
C10    H11     0.930   .     S
C10    C14     1.391   1_655 D
C12    H13     0.930   .     S
C12    C14     1.437   .     S
C14    C15     1.454   .     S
C14    C10     1.391   1_455 D
C15    N28     1.089   .     T
C16    C17     1.354   .     D
C16    C19     1.311   1_655 S
C17    H18     0.930   .     S
C17    C21     1.408   .     S
C19    H20     0.929   .     S
C19    C23     1.427   .     D
C19    C16     1.311   1_455 S
C21    H22     0.929   1_554 S
C21    C25     1.345   1_655 D
H22    C21     0.929   1_556 S
C23    H24     0.930   .     S
C23    C25     1.261   .     S
C25    C21     1.345   1_455 D
C25    C26     1.425   1_554 S
C26    N27     1.179   .     T
C26    C25     1.425   1_556 S
N27    Ag139   2.190   .     S
N28    Ag211   2.217   .     S
O29    Cd217   2.252   .     S
O30    Cd217   2.225   .     S
Ag31   N135    2.190   .     S
Ag31   N172    2.217   .     S
O32    Re35    1.734   .     S
O33    Re35    1.694   .     S
O34    Re35    1.676   .     S
Re35   O36     1.745   .     S
C37    C38     1.457   .     S
C37    C52     1.516   .     S
C37    O65     1.225   .     D
C38    H39     0.929   .     S
C38    C40     1.401   .     S
C38    Ag67    2.490   .     S
C40    C41     1.511   .     S
C40    O66     1.233   .     D
C41    C42     1.390   .     D
C41    C44     1.348   .     S
C42    H43     0.930   .     S
C42    C46     1.359   .     S
C44    H45     0.930   .     S
C44    C48     1.377   .     D
C46    H47     0.930   .     S
C46    C50     1.391   .     D
C48    H49     0.930   .     S
C48    C50     1.437   .     S
C50    C51     1.454   .     S
C51    N64     1.089   .     T
C52    C53     1.354   .     D
C52    C55     1.311   .     S
C53    H54     0.930   .     S
C53    C57     1.408   .     S
C55    H56     0.929   .     S
C55    C59     1.427   .     D
C57    C61     1.345   .     D
C57    H58     0.929   1_554 D
H58    C57     0.929   1_556 D
C59    H60     0.930   .     S
C59    C61     1.261   .     S
C61    C62     1.425   1_554 S
C62    N63     1.179   .     T
C62    C61     1.425   1_556 S
N63    Ag175   2.190   .     S
N64    Ag139   2.217   .     S
O65    Cd217   2.252   .     S
O66    Cd217   2.225   .     S
Ag67   O68     2.427   .     S
Ag67   N171    2.190   .     S
Ag67   N208    2.217   .     S
O68    Re71    1.734   .     S
O69    Re71    1.694   .     S
O70    Re71    1.676   .     S
Re71   O72     1.745   .     S
C73    C74     1.457   .     S
C73    C88     1.516   .     S
C73    O101    1.225   .     D
C74    H75     0.929   .     S
C74    C76     1.401   .     S
C74    Ag103   2.490   .     S
C76    C77     1.511   .     S
C76    O102    1.233   .     D
C77    C78     1.390   .     D
C77    C80     1.348   1_545 S
C78    H79     0.930   .     S
C78    C82     1.359   .     S
C80    H81     0.930   .     S
C80    C84     1.377   .     D
C80    C77     1.348   1_565 S
C82    H83     0.930   .     S
C82    C86     1.391   1_545 D
C84    H85     0.930   .     S
C84    C86     1.437   .     S
C86    C87     1.454   .     S
C86    C82     1.391   1_565 D
C87    N100    1.089   .     T
C88    C89     1.354   .     D
C88    C91     1.311   1_545 S
C89    H90     0.930   .     S
C89    C93     1.408   .     S
C91    H92     0.929   .     S
C91    C95     1.427   .     D
C91    C88     1.311   1_565 S
C93    H94     0.929   1_554 D
C93    C97     1.345   1_545 S
H94    C93     0.929   1_556 D
C95    H96     0.930   .     S
C95    C97     1.261   .     S
C97    C93     1.345   1_565 S
C97    C98     1.425   1_554 S
C98    N99     1.179   .     T
C98    C97     1.425   1_556 S
N99    Ag211   2.190   .     S
N100   Ag175   2.217   .     S
O101   Cd217   2.252   .     S
O102   Cd217   2.225   .     S
Ag103  N136    2.217   .     S
Ag103  N207    2.190   .     S
O104   Re107   1.734   .     S
O105   Re107   1.694   .     S
O106   Re107   1.676   .     S
Re107  O108    1.745   .     S
C109   C110    1.457   .     S
C109   C124    1.516   .     S
C109   O137    1.225   .     D
C110   H111    0.929   .     S
C110   C112    1.401   .     S
C110   Ag139   2.490   .     S
C112   C113    1.511   .     S
C112   O138    1.233   .     D
C113   C114    1.390   .     D
C113   C116    1.348   1_455 S
C114   H115    0.930   .     S
C114   C118    1.359   .     S
C116   H117    0.930   .     S
C116   C120    1.377   .     D
C116   C113    1.348   1_655 S
C118   H119    0.930   .     S
C118   C122    1.391   1_455 S
C120   H121    0.930   .     S
C120   C122    1.437   .     S
C122   C123    1.454   .     S
C122   C118    1.391   1_655 S
C123   N136    1.089   .     T
C124   C125    1.354   .     D
C124   C127    1.311   1_455 S
C125   H126    0.930   .     S
C125   C129    1.408   .     S
C127   H128    0.929   .     S
C127   C131    1.427   .     D
C127   C124    1.311   1_655 S
C129   H130    0.929   1_556 S
C129   C133    1.345   1_455 S
H130   C129    0.929   1_554 S
C131   H132    0.930   .     S
C131   C133    1.261   .     S
C133   C129    1.345   1_655 S
C133   C134    1.425   1_556 D
C134   N135    1.179   .     T
C134   C133    1.425   1_554 D
O137   Cd218   2.252   .     S
O138   Cd218   2.225   .     S
Ag139  O140    2.427   1_455 S
O140   Re143   1.734   .     S
O140   Ag139   2.427   1_655 S
O141   Re143   1.694   .     S
O142   Re143   1.676   .     S
Re143  O144    1.745   .     S
C145   C146    1.457   .     S
C145   C160    1.516   .     S
C145   O173    1.225   .     D
C146   H147    0.929   .     S
C146   C148    1.401   .     S
C146   Ag175   2.490   .     S
C148   C149    1.511   .     S
C148   O174    1.233   .     D
C149   C150    1.390   .     D
C149   C152    1.348   .     S
C150   H151    0.930   .     S
C150   C154    1.359   .     S
C152   H153    0.930   .     S
C152   C156    1.377   .     D
C154   H155    0.930   .     S
C154   C158    1.391   .     D
C156   H157    0.930   .     S
C156   C158    1.437   .     S
C158   C159    1.454   .     S
C159   N172    1.089   .     T
C160   C161    1.354   .     D
C160   C163    1.311   .     S
C161   H162    0.930   .     S
C161   C165    1.408   .     S
C163   H164    0.929   .     S
C163   C167    1.427   .     D
C165   C169    1.345   .     D
C165   H166    0.929   1_556 S
H166   C165    0.929   1_554 S
C167   H168    0.930   .     S
C167   C169    1.261   .     S
C169   C170    1.425   1_556 D
C170   N171    1.179   .     T
C170   C169    1.425   1_554 D
O173   Cd218   2.252   .     S
O174   Cd218   2.225   .     S
O176   Re179   1.734   .     S
O177   Re179   1.694   .     S
O178   Re179   1.676   .     S
Re179  O180    1.745   .     S
C181   C182    1.457   .     S
C181   C196    1.516   .     S
C181   O209    1.225   .     D
C182   H183    0.929   .     S
C182   C184    1.401   .     S
C182   Ag211   2.490   .     S
C184   C185    1.511   .     S
C184   O210    1.233   .     D
C185   C186    1.390   .     D
C185   C188    1.348   1_565 S
C186   H187    0.930   .     S
C186   C190    1.359   .     S
C188   H189    0.930   .     S
C188   C192    1.377   .     D
C188   C185    1.348   1_545 S
C190   H191    0.930   .     S
C190   C194    1.391   1_565 S
C192   H193    0.930   .     S
C192   C194    1.437   .     S
C194   C195    1.454   .     S
C194   C190    1.391   1_545 S
C195   N208    1.089   .     T
C196   C197    1.354   .     D
C196   C199    1.311   1_565 S
C197   H198    0.930   .     S
C197   C201    1.408   .     S
C199   H200    0.929   .     S
C199   C203    1.427   .     D
C199   C196    1.311   1_545 S
C201   H202    0.929   1_556 S
C201   C205    1.345   1_565 S
H202   C201    0.929   1_554 S
C203   H204    0.930   .     S
C203   C205    1.261   .     S
C205   C201    1.345   1_545 S
C205   C206    1.425   1_556 D
C206   N207    1.179   .     T
C206   C205    1.425   1_554 D
O209   Cd218   2.252   .     S
O210   Cd218   2.225   .     S
O212   Re215   1.734   .     S
O213   Re215   1.694   .     S
O214   Re215   1.676   .     S
Re215  O216    1.745   .     S
