data_LAGHIL_clean
_audit_creation_date              2014-07-02
_audit_creation_method            'Materials Studio'
_symmetry_space_group_name_H-M    'P1'
_symmetry_Int_Tables_number       1
_symmetry_cell_setting            triclinic
loop_
_symmetry_equiv_pos_as_xyz
  x,y,z
_cell_length_a                    9.0718
_cell_length_b                    9.0718
_cell_length_c                    16.8910
_cell_angle_alpha                 90.0000
_cell_angle_beta                  90.0000
_cell_angle_gamma                 120.0000
loop_
_atom_site_label
_atom_site_type_symbol
_atom_site_fract_x
_atom_site_fract_y
_atom_site_fract_z
_atom_site_U_iso_or_equiv
_atom_site_adp_type
_atom_site_occupancy
Cu1    Cu    0.54223   1.00000   0.00000   0.01267  Uiso   1.00
Cu2    Cu    0.45777   0.45777   0.33333   0.01267  Uiso   1.00
Cu3    Cu    0.00000   0.54223   0.66667   0.01267  Uiso   1.00
H1     H     0.08170   0.77540   0.22820   0.01267  Uiso   1.00
H2     H     0.98790   0.58560   0.33500   0.01267  Uiso   1.00
H3     H     0.15070   0.47000   0.37570   0.01267  Uiso   1.00
H4     H     0.47870   0.70430   0.20710   0.01267  Uiso   1.00
H5     H     0.69370   0.91830   0.56153   0.01267  Uiso   1.00
H6     H     0.59770   0.01210   0.66833   0.01267  Uiso   1.00
H7     H     0.31930   0.84930   0.70903   0.01267  Uiso   1.00
H8     H     0.22560   0.52130   0.54043   0.01267  Uiso   1.00
H9     H     0.22460   0.30630   0.89487   0.01267  Uiso   1.00
H10    H     0.41440   0.40230   0.00167   0.01267  Uiso   1.00
H11    H     0.53000   0.68070   0.04237   0.01267  Uiso   1.00
H12    H     0.29570   0.77440   0.87377   0.01267  Uiso   1.00
H13    H     0.30630   0.22460   0.77180   0.01267  Uiso   1.00
H14    H     0.40230   0.41440   0.66500   0.01267  Uiso   1.00
H15    H     0.68070   0.53000   0.62430   0.01267  Uiso   1.00
H16    H     0.77440   0.29570   0.79290   0.01267  Uiso   1.00
H17    H     0.77540   0.08170   0.43847   0.01267  Uiso   1.00
H18    H     0.58560   0.98790   0.33167   0.01267  Uiso   1.00
H19    H     0.47000   0.15070   0.29097   0.01267  Uiso   1.00
H20    H     0.70430   0.47870   0.45957   0.01267  Uiso   1.00
H21    H     0.91830   0.69370   0.10513   0.01267  Uiso   1.00
H22    H     0.01210   0.59770   0.99833   0.01267  Uiso   1.00
H23    H     0.84930   0.31930   0.95763   0.01267  Uiso   1.00
H24    H     0.52130   0.22560   0.12623   0.01267  Uiso   1.00
C1     C     0.34770   0.87060   0.13380   0.01267  Uiso   1.00
C2     C     0.28810   0.75810   0.20640   0.01267  Uiso   1.00
C3     C     0.14360   0.72450   0.24460   0.01267  Uiso   1.00
C4     C     0.08840   0.61260   0.30870   0.01267  Uiso   1.00
C5     C     0.18620   0.54300   0.33240   0.01267  Uiso   1.00
C6     C     0.37950   0.68090   0.23360   0.01267  Uiso   1.00
C7     C     0.52290   0.65230   0.46713   0.01267  Uiso   1.00
C8     C     0.47000   0.71190   0.53973   0.01267  Uiso   1.00
C9     C     0.58090   0.85640   0.57793   0.01267  Uiso   1.00
C10    C     0.52420   0.91160   0.64203   0.01267  Uiso   1.00
C11    C     0.35680   0.81380   0.66573   0.01267  Uiso   1.00
C12    C     0.30140   0.62050   0.56693   0.01267  Uiso   1.00
C13    C     0.12940   0.47710   0.80047   0.01267  Uiso   1.00
C14    C     0.24190   0.53000   0.87307   0.01267  Uiso   1.00
C15    C     0.27550   0.41910   0.91127   0.01267  Uiso   1.00
C16    C     0.38740   0.47580   0.97537   0.01267  Uiso   1.00
C17    C     0.45700   0.64320   0.99907   0.01267  Uiso   1.00
C18    C     0.31910   0.69860   0.90027   0.01267  Uiso   1.00
C19    C     0.47710   0.12940   0.86620   0.01267  Uiso   1.00
C20    C     0.53000   0.24190   0.79360   0.01267  Uiso   1.00
C21    C     0.41910   0.27550   0.75540   0.01267  Uiso   1.00
C22    C     0.47580   0.38740   0.69130   0.01267  Uiso   1.00
C23    C     0.64320   0.45700   0.66760   0.01267  Uiso   1.00
C24    C     0.69860   0.31910   0.76640   0.01267  Uiso   1.00
C25    C     0.87060   0.34770   0.53287   0.01267  Uiso   1.00
C26    C     0.75810   0.28810   0.46027   0.01267  Uiso   1.00
C27    C     0.72450   0.14360   0.42207   0.01267  Uiso   1.00
C28    C     0.61260   0.08840   0.35797   0.01267  Uiso   1.00
C29    C     0.54300   0.18620   0.33427   0.01267  Uiso   1.00
C30    C     0.68090   0.37950   0.43307   0.01267  Uiso   1.00
C31    C     0.65230   0.52290   0.19953   0.01267  Uiso   1.00
C32    C     0.71190   0.47000   0.12693   0.01267  Uiso   1.00
C33    C     0.85640   0.58090   0.08873   0.01267  Uiso   1.00
C34    C     0.91160   0.52420   0.02463   0.01267  Uiso   1.00
C35    C     0.81380   0.35680   0.00093   0.01267  Uiso   1.00
C36    C     0.62050   0.30140   0.09973   0.01267  Uiso   1.00
N1     N     0.33140   0.57660   0.29500   0.01267  Uiso   1.00
N2     N     0.24520   0.66860   0.62833   0.01267  Uiso   1.00
N3     N     0.42340   0.75480   0.96167   0.01267  Uiso   1.00
N4     N     0.75480   0.42340   0.70500   0.01267  Uiso   1.00
N5     N     0.57660   0.33140   0.37167   0.01267  Uiso   1.00
N6     N     0.66860   0.24520   0.03833   0.01267  Uiso   1.00
O1     O     0.24740   0.91000   0.10250   0.01267  Uiso   1.00
O2     O     0.49250   0.91220   0.10880   0.01267  Uiso   1.00
O3     O     0.66260   0.75260   0.43583   0.01267  Uiso   1.00
O4     O     0.41970   0.50750   0.44213   0.01267  Uiso   1.00
O5     O     0.09000   0.33740   0.76917   0.01267  Uiso   1.00
O6     O     0.08780   0.58030   0.77547   0.01267  Uiso   1.00
O7     O     0.33740   0.09000   0.89750   0.01267  Uiso   1.00
O8     O     0.58030   0.08780   0.89120   0.01267  Uiso   1.00
O9     O     0.91000   0.24740   0.56417   0.01267  Uiso   1.00
O10    O     0.91220   0.49250   0.55787   0.01267  Uiso   1.00
O11    O     0.75260   0.66260   0.23083   0.01267  Uiso   1.00
O12    O     0.50750   0.41970   0.22453   0.01267  Uiso   1.00
