data_LAGMUD_clean
_audit_creation_date              2014-07-02
_audit_creation_method            'Materials Studio'
_symmetry_space_group_name_H-M    'P1'
_symmetry_Int_Tables_number       1
_symmetry_cell_setting            triclinic
loop_
_symmetry_equiv_pos_as_xyz
  x,y,z
_cell_length_a                    9.8196
_cell_length_b                    10.3421
_cell_length_c                    11.0133
_cell_angle_alpha                 77.2780
_cell_angle_beta                  76.3980
_cell_angle_gamma                 65.7930
loop_
_atom_site_label
_atom_site_type_symbol
_atom_site_fract_x
_atom_site_fract_y
_atom_site_fract_z
_atom_site_U_iso_or_equiv
_atom_site_adp_type
_atom_site_occupancy
Y1     Y     0.94387   0.22767   0.82406   0.01267  Uiso   1.00
Y2     Y     0.05613   0.77233   0.17594   0.01267  Uiso   1.00
H1     H     0.64970   0.85970   0.15160   0.01267  Uiso   1.00
H2     H     0.59930   0.11780   0.81930   0.01267  Uiso   1.00
H3     H     0.43450   0.41630   0.70950   0.01267  Uiso   1.00
H4     H     0.74170   0.50010   0.42350   0.01267  Uiso   1.00
H5     H     0.30910   0.92120   0.50390   0.01267  Uiso   1.00
H6     H     0.45310   0.18700   0.60740   0.01267  Uiso   1.00
H7     H     0.35030   0.14030   0.84840   0.01267  Uiso   1.00
H8     H     0.40070   0.88220   0.18070   0.01267  Uiso   1.00
H9     H     0.56550   0.58370   0.29050   0.01267  Uiso   1.00
H10    H     0.25830   0.49990   0.57650   0.01267  Uiso   1.00
H11    H     0.69090   0.07880   0.49610   0.01267  Uiso   1.00
H12    H     0.54690   0.81300   0.39260   0.01267  Uiso   1.00
C1     C     0.64950   0.98660   0.98220   0.01267  Uiso   1.00
C2     C     0.58950   0.91580   0.09110   0.01267  Uiso   1.00
C3     C     0.55920   0.07070   0.89160   0.01267  Uiso   1.00
C4     C     0.80890   0.97700   0.96670   0.01267  Uiso   1.00
C5     C     0.60760   0.44850   0.58060   0.01267  Uiso   1.00
C6     C     0.46060   0.44980   0.62530   0.01267  Uiso   1.00
C7     C     0.64500   0.49990   0.45420   0.01267  Uiso   1.00
C8     C     0.72280   0.38940   0.66660   0.01267  Uiso   1.00
C9     C     0.35580   0.06600   0.56720   0.01267  Uiso   1.00
C10    C     0.38550   0.95290   0.50230   0.01267  Uiso   1.00
C11    C     0.47190   0.11210   0.56420   0.01267  Uiso   1.00
C12    C     0.20390   0.13260   0.64600   0.01267  Uiso   1.00
C13    C     0.35050   0.01340   0.01780   0.01267  Uiso   1.00
C14    C     0.41050   0.08420   0.90890   0.01267  Uiso   1.00
C15    C     0.44080   0.92930   0.10840   0.01267  Uiso   1.00
C16    C     0.19110   0.02300   0.03330   0.01267  Uiso   1.00
C17    C     0.39240   0.55150   0.41940   0.01267  Uiso   1.00
C18    C     0.53940   0.55020   0.37470   0.01267  Uiso   1.00
C19    C     0.35500   0.50010   0.54580   0.01267  Uiso   1.00
C20    C     0.27720   0.61060   0.33340   0.01267  Uiso   1.00
C21    C     0.64420   0.93400   0.43280   0.01267  Uiso   1.00
C22    C     0.61450   0.04710   0.49770   0.01267  Uiso   1.00
C23    C     0.52810   0.88790   0.43580   0.01267  Uiso   1.00
C24    C     0.79610   0.86740   0.35400   0.01267  Uiso   1.00
O1     O     0.85790   0.04640   0.87040   0.01267  Uiso   1.00
O2     O     0.88430   0.89970   0.05200   0.01267  Uiso   1.00
O3     O     0.85850   0.37510   0.62490   0.01267  Uiso   1.00
O4     O     0.68410   0.34980   0.78210   0.01267  Uiso   1.00
O5     O     0.16990   0.24970   0.68400   0.01267  Uiso   1.00
O6     O     0.11530   0.06470   0.67750   0.01267  Uiso   1.00
O7     O     0.14210   0.95360   0.12960   0.01267  Uiso   1.00
O8     O     0.11570   0.10030   0.94800   0.01267  Uiso   1.00
O9     O     0.14150   0.62490   0.37510   0.01267  Uiso   1.00
O10    O     0.31590   0.65020   0.21790   0.01267  Uiso   1.00
O11    O     0.83010   0.75030   0.31600   0.01267  Uiso   1.00
O12    O     0.88470   0.93530   0.32250   0.01267  Uiso   1.00
