data_LAGNAK_clean
_audit_creation_date              2014-07-02
_audit_creation_method            'Materials Studio'
_symmetry_space_group_name_H-M    'P1'
_symmetry_Int_Tables_number       1
_symmetry_cell_setting            triclinic
loop_
_symmetry_equiv_pos_as_xyz
  x,y,z
_cell_length_a                    9.8488
_cell_length_b                    10.6130
_cell_length_c                    12.6336
_cell_angle_alpha                 69.6580
_cell_angle_beta                  73.7720
_cell_angle_gamma                 62.5370
loop_
_atom_site_label
_atom_site_type_symbol
_atom_site_fract_x
_atom_site_fract_y
_atom_site_fract_z
_atom_site_U_iso_or_equiv
_atom_site_adp_type
_atom_site_occupancy
Y1     Y     0.04889   0.78007   0.69120   0.01267  Uiso   1.00
Y2     Y     0.95111   0.21993   0.30880   0.01267  Uiso   1.00
H1     H     0.24460   0.62680   0.06130   0.01267  Uiso   1.00
H2     H     0.57820   0.48560   0.81370   0.01267  Uiso   1.00
H3     H     0.38530   0.88970   0.67060   0.01267  Uiso   1.00
H4     H     0.36350   0.13400   0.34570   0.01267  Uiso   1.00
H5     H     0.65640   0.12810   0.92760   0.01267  Uiso   1.00
H6     H     0.55720   0.79650   0.93850   0.01267  Uiso   1.00
H7     H     0.75540   0.37320   0.93870   0.01267  Uiso   1.00
H8     H     0.42180   0.51440   0.18630   0.01267  Uiso   1.00
H9     H     0.61470   0.11030   0.32940   0.01267  Uiso   1.00
H10    H     0.63650   0.86600   0.65430   0.01267  Uiso   1.00
H11    H     0.34360   0.87190   0.07240   0.01267  Uiso   1.00
H12    H     0.44280   0.20350   0.06150   0.01267  Uiso   1.00
C1     C     0.39160   0.57040   0.92330   0.01267  Uiso   1.00
C2     C     0.34800   0.57590   0.03560   0.01267  Uiso   1.00
C3     C     0.54550   0.49240   0.88880   0.01267  Uiso   1.00
C4     C     0.27540   0.64510   0.84090   0.01267  Uiso   1.00
C5     C     0.35080   0.01360   0.50980   0.01267  Uiso   1.00
C6     C     0.43150   0.93370   0.60240   0.01267  Uiso   1.00
C7     C     0.41840   0.08040   0.40730   0.01267  Uiso   1.00
C8     C     0.18990   0.02560   0.51910   0.01267  Uiso   1.00
C9     C     0.63090   0.95440   0.91860   0.01267  Uiso   1.00
C10    C     0.59380   0.07620   0.95660   0.01267  Uiso   1.00
C11    C     0.53490   0.87810   0.96290   0.01267  Uiso   1.00
C12    C     0.77440   0.90120   0.83600   0.01267  Uiso   1.00
C13    C     0.60840   0.42960   0.07670   0.01267  Uiso   1.00
C14    C     0.65200   0.42410   0.96440   0.01267  Uiso   1.00
C15    C     0.45450   0.50760   0.11120   0.01267  Uiso   1.00
C16    C     0.72460   0.35490   0.15910   0.01267  Uiso   1.00
C17    C     0.64920   0.98640   0.49020   0.01267  Uiso   1.00
C18    C     0.56850   0.06630   0.39760   0.01267  Uiso   1.00
C19    C     0.58160   0.91960   0.59270   0.01267  Uiso   1.00
C20    C     0.81010   0.97440   0.48090   0.01267  Uiso   1.00
C21    C     0.36910   0.04560   0.08140   0.01267  Uiso   1.00
C22    C     0.40620   0.92380   0.04340   0.01267  Uiso   1.00
C23    C     0.46510   0.12190   0.03710   0.01267  Uiso   1.00
C24    C     0.22560   0.09880   0.16400   0.01267  Uiso   1.00
O1     O     0.13670   0.72390   0.87249   0.01267  Uiso   1.00
O2     O     0.31630   0.62680   0.74137   0.01267  Uiso   1.00
O3     O     0.13420   0.96010   0.61183   0.01267  Uiso   1.00
O4     O     0.12190   0.10160   0.43328   0.01267  Uiso   1.00
O5     O     0.81840   0.77600   0.82051   0.01267  Uiso   1.00
O6     O     0.84980   0.97960   0.78368   0.01267  Uiso   1.00
O7     O     0.86330   0.27610   0.12751   0.01267  Uiso   1.00
O8     O     0.68370   0.37320   0.25863   0.01267  Uiso   1.00
O9     O     0.86580   0.03990   0.38817   0.01267  Uiso   1.00
O10    O     0.87810   0.89840   0.56672   0.01267  Uiso   1.00
O11    O     0.18160   0.22400   0.17949   0.01267  Uiso   1.00
O12    O     0.15020   0.02040   0.21632   0.01267  Uiso   1.00
