data_LAGNIS_clean
_audit_creation_date              2014-07-02
_audit_creation_method            'Materials Studio'
_symmetry_space_group_name_H-M    'P1'
_symmetry_Int_Tables_number       1
_symmetry_cell_setting            triclinic
loop_
_symmetry_equiv_pos_as_xyz
  x,y,z
_cell_length_a                    10.0149
_cell_length_b                    10.1872
_cell_length_c                    11.8347
_cell_angle_alpha                 67.7700
_cell_angle_beta                  72.8950
_cell_angle_gamma                 64.3280
loop_
_atom_site_label
_atom_site_type_symbol
_atom_site_fract_x
_atom_site_fract_y
_atom_site_fract_z
_atom_site_U_iso_or_equiv
_atom_site_adp_type
_atom_site_occupancy
Y1     Y     0.95287   0.23054   0.80247   0.01267  Uiso   1.00
Y2     Y     0.04713   0.76946   0.19753   0.01267  Uiso   1.00
H1     H     0.44060   0.49410   0.70430   0.01267  Uiso   1.00
H2     H     0.74610   0.40810   0.41110   0.01267  Uiso   1.00
H3     H     0.32100   0.89350   0.54720   0.01267  Uiso   1.00
H4     H     0.44790   0.21010   0.56130   0.01267  Uiso   1.00
H5     H     0.62490   0.85720   0.16910   0.01267  Uiso   1.00
H6     H     0.62390   0.10770   0.81440   0.01267  Uiso   1.00
H7     H     0.55940   0.50590   0.29570   0.01267  Uiso   1.00
H8     H     0.25390   0.59190   0.58890   0.01267  Uiso   1.00
H9     H     0.67900   0.10650   0.45280   0.01267  Uiso   1.00
H10    H     0.55210   0.78990   0.43870   0.01267  Uiso   1.00
H11    H     0.37510   0.14280   0.83090   0.01267  Uiso   1.00
H12    H     0.37610   0.89230   0.18560   0.01267  Uiso   1.00
C1     C     0.61400   0.43910   0.57090   0.01267  Uiso   1.00
C2     C     0.46520   0.49600   0.62170   0.01267  Uiso   1.00
C3     C     0.64670   0.44490   0.44760   0.01267  Uiso   1.00
C4     C     0.73640   0.37230   0.64660   0.01267  Uiso   1.00
C5     C     0.35840   0.06430   0.56490   0.01267  Uiso   1.00
C6     C     0.39280   0.93670   0.52800   0.01267  Uiso   1.00
C7     C     0.46840   0.12600   0.53650   0.01267  Uiso   1.00
C8     C     0.21170   0.12650   0.64120   0.01267  Uiso   1.00
C9     C     0.64850   0.98040   0.99030   0.01267  Uiso   1.00
C10    C     0.57510   0.91480   0.10120   0.01267  Uiso   1.00
C11    C     0.57380   0.06460   0.88930   0.01267  Uiso   1.00
C12    C     0.80740   0.96480   0.98110   0.01267  Uiso   1.00
C13    C     0.38600   0.56090   0.42910   0.01267  Uiso   1.00
C14    C     0.53480   0.50400   0.37830   0.01267  Uiso   1.00
C15    C     0.35330   0.55510   0.55240   0.01267  Uiso   1.00
C16    C     0.26360   0.62770   0.35340   0.01267  Uiso   1.00
C17    C     0.64160   0.93570   0.43510   0.01267  Uiso   1.00
C18    C     0.60720   0.06330   0.47200   0.01267  Uiso   1.00
C19    C     0.53160   0.87400   0.46350   0.01267  Uiso   1.00
C20    C     0.78830   0.87350   0.35880   0.01267  Uiso   1.00
C21    C     0.35150   0.01960   0.00970   0.01267  Uiso   1.00
C22    C     0.42490   0.08520   0.89880   0.01267  Uiso   1.00
C23    C     0.42620   0.93540   0.11070   0.01267  Uiso   1.00
C24    C     0.19260   0.03520   0.01890   0.01267  Uiso   1.00
O1     O     0.70340   0.38620   0.75340   0.01267  Uiso   1.00
O2     O     0.86870   0.30340   0.60570   0.01267  Uiso   1.00
O3     O     0.13570   0.04260   0.70010   0.01267  Uiso   1.00
O4     O     0.16940   0.25830   0.64940   0.01267  Uiso   1.00
O5     O     0.86620   0.03790   0.88140   0.01267  Uiso   1.00
O6     O     0.87110   0.88220   0.07310   0.01267  Uiso   1.00
O7     O     0.29660   0.61380   0.24660   0.01267  Uiso   1.00
O8     O     0.13130   0.69660   0.39430   0.01267  Uiso   1.00
O9     O     0.86430   0.95740   0.29990   0.01267  Uiso   1.00
O10    O     0.83060   0.74170   0.35060   0.01267  Uiso   1.00
O11    O     0.13380   0.96210   0.11860   0.01267  Uiso   1.00
O12    O     0.12890   0.11780   0.92690   0.01267  Uiso   1.00
