data_LAGNUE_clean
_audit_creation_date              2014-07-02
_audit_creation_method            'Materials Studio'
_symmetry_space_group_name_H-M    'P1'
_symmetry_Int_Tables_number       1
_symmetry_cell_setting            triclinic
loop_
_symmetry_equiv_pos_as_xyz
  x,y,z
_cell_length_a                    9.6292
_cell_length_b                    11.1006
_cell_length_c                    16.0263
_cell_angle_alpha                 91.0660
_cell_angle_beta                  90.0000
_cell_angle_gamma                 90.0000
loop_
_atom_site_label
_atom_site_type_symbol
_atom_site_fract_x
_atom_site_fract_y
_atom_site_fract_z
_atom_site_U_iso_or_equiv
_atom_site_adp_type
_atom_site_occupancy
Y1     Y     0.78942   0.50488   0.00966   0.01267  Uiso   1.00
Y2     Y     0.28942   0.99512   0.49034   0.01267  Uiso   1.00
Y3     Y     0.21058   0.49512   0.99034   0.01267  Uiso   1.00
Y4     Y     0.71058   0.00488   0.50966   0.01267  Uiso   1.00
H1     H     0.16180   0.37020   0.77200   0.01267  Uiso   1.00
H2     H     0.18620   0.25250   0.65280   0.01267  Uiso   1.00
H3     H     0.78050   0.28240   0.60730   0.01267  Uiso   1.00
H4     H     0.75400   0.39930   0.72700   0.01267  Uiso   1.00
H5     H     0.20280   0.10240   0.03260   0.01267  Uiso   1.00
H6     H     0.79310   0.10470   0.98450   0.01267  Uiso   1.00
H7     H     0.66180   0.12980   0.72800   0.01267  Uiso   1.00
H8     H     0.68620   0.24750   0.84720   0.01267  Uiso   1.00
H9     H     0.28050   0.21760   0.89270   0.01267  Uiso   1.00
H10    H     0.25400   0.10070   0.77300   0.01267  Uiso   1.00
H11    H     0.70280   0.39760   0.46740   0.01267  Uiso   1.00
H12    H     0.29310   0.39530   0.51550   0.01267  Uiso   1.00
H13    H     0.83820   0.62980   0.22800   0.01267  Uiso   1.00
H14    H     0.81380   0.74750   0.34720   0.01267  Uiso   1.00
H15    H     0.21950   0.71760   0.39270   0.01267  Uiso   1.00
H16    H     0.24600   0.60070   0.27300   0.01267  Uiso   1.00
H17    H     0.79720   0.89760   0.96740   0.01267  Uiso   1.00
H18    H     0.20690   0.89530   0.01550   0.01267  Uiso   1.00
H19    H     0.33820   0.87020   0.27200   0.01267  Uiso   1.00
H20    H     0.31380   0.75250   0.15280   0.01267  Uiso   1.00
H21    H     0.71950   0.78240   0.10730   0.01267  Uiso   1.00
H22    H     0.74600   0.89930   0.22700   0.01267  Uiso   1.00
H23    H     0.29720   0.60240   0.53260   0.01267  Uiso   1.00
H24    H     0.70690   0.60470   0.48450   0.01267  Uiso   1.00
C1     C     0.95480   0.39270   0.76440   0.01267  Uiso   1.00
C2     C     0.08410   0.35090   0.74000   0.01267  Uiso   1.00
C3     C     0.09880   0.28080   0.66840   0.01267  Uiso   1.00
C4     C     0.98420   0.25240   0.61960   0.01267  Uiso   1.00
C5     C     0.85700   0.29840   0.64120   0.01267  Uiso   1.00
C6     C     0.84090   0.36840   0.71300   0.01267  Uiso   1.00
C7     C     0.93090   0.45350   0.84800   0.01267  Uiso   1.00
C8     C     0.99830   0.16510   0.54670   0.01267  Uiso   1.00
C9     C     0.99860   0.12490   0.00940   0.01267  Uiso   1.00
C10    C     0.12140   0.06120   0.01930   0.01267  Uiso   1.00
C11    C     0.87600   0.06280   0.99050   0.01267  Uiso   1.00
C12    C     0.99870   0.26040   0.01890   0.01267  Uiso   1.00
C13    C     0.45480   0.10730   0.73560   0.01267  Uiso   1.00
C14    C     0.58410   0.14910   0.76000   0.01267  Uiso   1.00
C15    C     0.59880   0.21920   0.83160   0.01267  Uiso   1.00
C16    C     0.48420   0.24760   0.88040   0.01267  Uiso   1.00
C17    C     0.35700   0.20160   0.85880   0.01267  Uiso   1.00
C18    C     0.34090   0.13160   0.78700   0.01267  Uiso   1.00
C19    C     0.43090   0.04650   0.65200   0.01267  Uiso   1.00
C20    C     0.49830   0.33490   0.95330   0.01267  Uiso   1.00
C21    C     0.49860   0.37510   0.49060   0.01267  Uiso   1.00
C22    C     0.62140   0.43880   0.48070   0.01267  Uiso   1.00
C23    C     0.37600   0.43720   0.50950   0.01267  Uiso   1.00
C24    C     0.49870   0.23960   0.48110   0.01267  Uiso   1.00
C25    C     0.04520   0.60730   0.23560   0.01267  Uiso   1.00
C26    C     0.91590   0.64910   0.26000   0.01267  Uiso   1.00
C27    C     0.90120   0.71920   0.33160   0.01267  Uiso   1.00
C28    C     0.01580   0.74760   0.38040   0.01267  Uiso   1.00
C29    C     0.14300   0.70160   0.35880   0.01267  Uiso   1.00
C30    C     0.15910   0.63160   0.28700   0.01267  Uiso   1.00
C31    C     0.06910   0.54650   0.15200   0.01267  Uiso   1.00
C32    C     0.00170   0.83490   0.45330   0.01267  Uiso   1.00
C33    C     0.00140   0.87510   0.99060   0.01267  Uiso   1.00
C34    C     0.87860   0.93880   0.98070   0.01267  Uiso   1.00
C35    C     0.12400   0.93720   0.00950   0.01267  Uiso   1.00
C36    C     0.00130   0.73960   0.98110   0.01267  Uiso   1.00
C37    C     0.54520   0.89270   0.26440   0.01267  Uiso   1.00
C38    C     0.41590   0.85090   0.24000   0.01267  Uiso   1.00
C39    C     0.40120   0.78080   0.16840   0.01267  Uiso   1.00
C40    C     0.51580   0.75240   0.11960   0.01267  Uiso   1.00
C41    C     0.64300   0.79840   0.14120   0.01267  Uiso   1.00
C42    C     0.65910   0.86840   0.21300   0.01267  Uiso   1.00
C43    C     0.56910   0.95350   0.34800   0.01267  Uiso   1.00
C44    C     0.50170   0.66510   0.04670   0.01267  Uiso   1.00
C45    C     0.50140   0.62490   0.50940   0.01267  Uiso   1.00
C46    C     0.37860   0.56120   0.51930   0.01267  Uiso   1.00
C47    C     0.62400   0.56280   0.49050   0.01267  Uiso   1.00
C48    C     0.50130   0.76040   0.51890   0.01267  Uiso   1.00
O1     O     0.81040   0.48750   0.86530   0.01267  Uiso   1.00
O2     O     0.02970   0.46280   0.89870   0.01267  Uiso   1.00
O3     O     0.89120   0.13600   0.50750   0.01267  Uiso   1.00
O4     O     0.11710   0.12660   0.53020   0.01267  Uiso   1.00
O5     O     0.88060   0.31170   0.02100   0.01267  Uiso   1.00
O6     O     0.11330   0.31170   0.02210   0.01267  Uiso   1.00
O7     O     0.31040   0.01250   0.63470   0.01267  Uiso   1.00
O8     O     0.52970   0.03720   0.60130   0.01267  Uiso   1.00
O9     O     0.39120   0.36400   0.99250   0.01267  Uiso   1.00
O10    O     0.61710   0.37340   0.96980   0.01267  Uiso   1.00
O11    O     0.38060   0.18830   0.47900   0.01267  Uiso   1.00
O12    O     0.61330   0.18830   0.47790   0.01267  Uiso   1.00
O13    O     0.18960   0.51250   0.13470   0.01267  Uiso   1.00
O14    O     0.97030   0.53720   0.10130   0.01267  Uiso   1.00
O15    O     0.10880   0.86400   0.49250   0.01267  Uiso   1.00
O16    O     0.88290   0.87340   0.46980   0.01267  Uiso   1.00
O17    O     0.11940   0.68830   0.97900   0.01267  Uiso   1.00
O18    O     0.88670   0.68830   0.97790   0.01267  Uiso   1.00
O19    O     0.68960   0.98750   0.36530   0.01267  Uiso   1.00
O20    O     0.47030   0.96280   0.39870   0.01267  Uiso   1.00
O21    O     0.60880   0.63600   0.00750   0.01267  Uiso   1.00
O22    O     0.38290   0.62660   0.03020   0.01267  Uiso   1.00
O23    O     0.61940   0.81170   0.52100   0.01267  Uiso   1.00
O24    O     0.38670   0.81170   0.52210   0.01267  Uiso   1.00
