data_LAGNEO_clean
_audit_creation_date              2014-07-02
_audit_creation_method            'Materials Studio'
_symmetry_space_group_name_H-M    'P1'
_symmetry_Int_Tables_number       1
_symmetry_cell_setting            triclinic
loop_
_symmetry_equiv_pos_as_xyz
  x,y,z
_cell_length_a                    10.0463
_cell_length_b                    10.4265
_cell_length_c                    12.7385
_cell_angle_alpha                 109.0950
_cell_angle_beta                  95.2620
_cell_angle_gamma                 118.2750
loop_
_atom_site_label
_atom_site_type_symbol
_atom_site_fract_x
_atom_site_fract_y
_atom_site_fract_z
_atom_site_U_iso_or_equiv
_atom_site_adp_type
_atom_site_occupancy
Y1     Y     0.52661   0.97810   0.69776   0.01267  Uiso   1.00
Y2     Y     0.47339   0.02190   0.30224   0.01267  Uiso   1.00
H1     H     0.93130   0.86740   0.80110   0.01267  Uiso   1.00
H2     H     0.87130   0.12130   0.08260   0.01267  Uiso   1.00
H3     H     0.69500   0.54910   0.90810   0.01267  Uiso   1.00
H4     H     0.31970   0.24050   0.97220   0.01267  Uiso   1.00
H5     H     0.94140   0.06230   0.67440   0.01267  Uiso   1.00
H6     H     0.85530   0.98280   0.33760   0.01267  Uiso   1.00
H7     H     0.06870   0.13260   0.19890   0.01267  Uiso   1.00
H8     H     0.12870   0.87870   0.91740   0.01267  Uiso   1.00
H9     H     0.30500   0.45090   0.09190   0.01267  Uiso   1.00
H10    H     0.68030   0.75950   0.02780   0.01267  Uiso   1.00
H11    H     0.05860   0.93770   0.32560   0.01267  Uiso   1.00
H12    H     0.14470   0.01720   0.66240   0.01267  Uiso   1.00
C1     C     0.88000   0.99260   0.92970   0.01267  Uiso   1.00
C2     C     0.95870   0.92100   0.88150   0.01267  Uiso   1.00
C3     C     0.92290   0.07200   0.04890   0.01267  Uiso   1.00
C4     C     0.75080   0.98410   0.85250   0.01267  Uiso   1.00
C5     C     0.50940   0.37290   0.92770   0.01267  Uiso   1.00
C6     C     0.61630   0.52890   0.94500   0.01267  Uiso   1.00
C7     C     0.39250   0.34480   0.98320   0.01267  Uiso   1.00
C8     C     0.51530   0.23380   0.84780   0.01267  Uiso   1.00
C9     C     0.87750   0.02770   0.50740   0.01267  Uiso   1.00
C10    C     0.96500   0.03740   0.60440   0.01267  Uiso   1.00
C11    C     0.91330   0.98990   0.40280   0.01267  Uiso   1.00
C12    C     0.74120   0.05170   0.51380   0.01267  Uiso   1.00
C13    C     0.12000   0.00740   0.07030   0.01267  Uiso   1.00
C14    C     0.04130   0.07900   0.11850   0.01267  Uiso   1.00
C15    C     0.07710   0.92800   0.95110   0.01267  Uiso   1.00
C16    C     0.24920   0.01590   0.14750   0.01267  Uiso   1.00
C17    C     0.49060   0.62710   0.07230   0.01267  Uiso   1.00
C18    C     0.38370   0.47110   0.05500   0.01267  Uiso   1.00
C19    C     0.60750   0.65520   0.01680   0.01267  Uiso   1.00
C20    C     0.48470   0.76620   0.15220   0.01267  Uiso   1.00
C21    C     0.12250   0.97230   0.49260   0.01267  Uiso   1.00
C22    C     0.03500   0.96260   0.39560   0.01267  Uiso   1.00
C23    C     0.08670   0.01010   0.59720   0.01267  Uiso   1.00
C24    C     0.25880   0.94830   0.48620   0.01267  Uiso   1.00
O1     O     0.69600   0.88750   0.74670   0.01267  Uiso   1.00
O2     O     0.70020   0.07300   0.89120   0.01267  Uiso   1.00
O3     O     0.61560   0.26020   0.79110   0.01267  Uiso   1.00
O4     O     0.42140   0.09540   0.83800   0.01267  Uiso   1.00
O5     O     0.71250   0.08500   0.60980   0.01267  Uiso   1.00
O6     O     0.66300   0.03260   0.42210   0.01267  Uiso   1.00
O7     O     0.30400   0.11250   0.25330   0.01267  Uiso   1.00
O8     O     0.29980   0.92700   0.10880   0.01267  Uiso   1.00
O9     O     0.38440   0.73980   0.20890   0.01267  Uiso   1.00
O10    O     0.57860   0.90460   0.16200   0.01267  Uiso   1.00
O11    O     0.28750   0.91500   0.39020   0.01267  Uiso   1.00
O12    O     0.33700   0.96740   0.57790   0.01267  Uiso   1.00
