data_LAGPAM_clean
_audit_creation_date              2014-07-02
_audit_creation_method            'Materials Studio'
_symmetry_space_group_name_H-M    'P1'
_symmetry_Int_Tables_number       1
_symmetry_cell_setting            triclinic
loop_
_symmetry_equiv_pos_as_xyz
  x,y,z
_cell_length_a                    9.3659
_cell_length_b                    10.5662
_cell_length_c                    11.0781
_cell_angle_alpha                 98.8410
_cell_angle_beta                  112.9370
_cell_angle_gamma                 113.8440
loop_
_atom_site_label
_atom_site_type_symbol
_atom_site_fract_x
_atom_site_fract_y
_atom_site_fract_z
_atom_site_U_iso_or_equiv
_atom_site_adp_type
_atom_site_occupancy
Y1     Y     0.30239   0.98950   0.02367   0.01267  Uiso   1.00
Y2     Y     0.69761   0.01050   0.97633   0.01267  Uiso   1.00
H1     H     0.78940   0.35990   0.99290   0.01267  Uiso   1.00
H2     H     0.95100   0.59920   0.00910   0.01267  Uiso   1.00
H3     H     0.49410   0.59760   0.79590   0.01267  Uiso   1.00
H4     H     0.33260   0.36460   0.79590   0.01267  Uiso   1.00
H5     H     0.90900   0.60710   0.63110   0.01267  Uiso   1.00
H6     H     0.30080   0.61190   0.56300   0.01267  Uiso   1.00
H7     H     0.21060   0.64010   0.00710   0.01267  Uiso   1.00
H8     H     0.04900   0.40080   0.99090   0.01267  Uiso   1.00
H9     H     0.50590   0.40240   0.20410   0.01267  Uiso   1.00
H10    H     0.66740   0.63540   0.20410   0.01267  Uiso   1.00
H11    H     0.09100   0.39290   0.36890   0.01267  Uiso   1.00
H12    H     0.69920   0.38810   0.43700   0.01267  Uiso   1.00
C1     C     0.54380   0.33740   0.89440   0.01267  Uiso   1.00
C2     C     0.72950   0.40840   0.95580   0.01267  Uiso   1.00
C3     C     0.82580   0.55000   0.96210   0.01267  Uiso   1.00
C4     C     0.73790   0.62020   0.89920   0.01267  Uiso   1.00
C5     C     0.55390   0.55060   0.83720   0.01267  Uiso   1.00
C6     C     0.45710   0.41030   0.83620   0.01267  Uiso   1.00
C7     C     0.44260   0.19020   0.90430   0.01267  Uiso   1.00
C8     C     0.84770   0.77610   0.90830   0.01267  Uiso   1.00
C9     C     0.12660   0.63000   0.61840   0.01267  Uiso   1.00
C10    C     0.94590   0.56380   0.57890   0.01267  Uiso   1.00
C11    C     0.17990   0.56660   0.53810   0.01267  Uiso   1.00
C12    C     0.26270   0.77120   0.74570   0.01267  Uiso   1.00
C13    C     0.45620   0.66260   0.10560   0.01267  Uiso   1.00
C14    C     0.27050   0.59160   0.04420   0.01267  Uiso   1.00
C15    C     0.17420   0.45000   0.03790   0.01267  Uiso   1.00
C16    C     0.26210   0.37980   0.10080   0.01267  Uiso   1.00
C17    C     0.44610   0.44940   0.16280   0.01267  Uiso   1.00
C18    C     0.54290   0.58970   0.16380   0.01267  Uiso   1.00
C19    C     0.55740   0.80980   0.09570   0.01267  Uiso   1.00
C20    C     0.15230   0.22390   0.09170   0.01267  Uiso   1.00
C21    C     0.87340   0.37000   0.38160   0.01267  Uiso   1.00
C22    C     0.05410   0.43620   0.42110   0.01267  Uiso   1.00
C23    C     0.82010   0.43340   0.46190   0.01267  Uiso   1.00
C24    C     0.73730   0.22880   0.25430   0.01267  Uiso   1.00
O1     O     0.52450   0.12070   0.94370   0.01267  Uiso   1.00
O2     O     0.28850   0.14530   0.88470   0.01267  Uiso   1.00
O3     O     0.00550   0.82150   0.93510   0.01267  Uiso   1.00
O4     O     0.77360   0.85320   0.88540   0.01267  Uiso   1.00
O5     O     0.20010   0.82840   0.80490   0.01267  Uiso   1.00
O6     O     0.42530   0.81970   0.78510   0.01267  Uiso   1.00
O7     O     0.47550   0.87930   0.05630   0.01267  Uiso   1.00
O8     O     0.71150   0.85470   0.11530   0.01267  Uiso   1.00
O9     O     0.99450   0.17850   0.06490   0.01267  Uiso   1.00
O10    O     0.22640   0.14680   0.11460   0.01267  Uiso   1.00
O11    O     0.79990   0.17160   0.19510   0.01267  Uiso   1.00
O12    O     0.57470   0.18030   0.21490   0.01267  Uiso   1.00
