data_LAGQER_clean
_audit_creation_date              2014-07-02
_audit_creation_method            'Materials Studio'
_symmetry_space_group_name_H-M    'P1'
_symmetry_Int_Tables_number       1
_symmetry_cell_setting            triclinic
loop_
_symmetry_equiv_pos_as_xyz
  x,y,z
_cell_length_a                    9.9098
_cell_length_b                    10.5314
_cell_length_c                    11.0619
_cell_angle_alpha                 77.7110
_cell_angle_beta                  76.6380
_cell_angle_gamma                 66.3200
loop_
_atom_site_label
_atom_site_type_symbol
_atom_site_fract_x
_atom_site_fract_y
_atom_site_fract_z
_atom_site_U_iso_or_equiv
_atom_site_adp_type
_atom_site_occupancy
Sm1    Sm    0.94398   0.22639   0.82287   0.01267  Uiso   1.00
Sm2    Sm    0.05602   0.77361   0.17713   0.01267  Uiso   1.00
H1     H     0.65130   0.86100   0.14710   0.01267  Uiso   1.00
H2     H     0.59690   0.11700   0.82250   0.01267  Uiso   1.00
H3     H     0.43820   0.41230   0.70650   0.01267  Uiso   1.00
H4     H     0.73810   0.50430   0.42650   0.01267  Uiso   1.00
H5     H     0.31360   0.91900   0.50730   0.01267  Uiso   1.00
H6     H     0.45340   0.18270   0.60780   0.01267  Uiso   1.00
H7     H     0.34870   0.13900   0.85290   0.01267  Uiso   1.00
H8     H     0.40310   0.88300   0.17750   0.01267  Uiso   1.00
H9     H     0.56180   0.58770   0.29350   0.01267  Uiso   1.00
H10    H     0.26190   0.49570   0.57350   0.01267  Uiso   1.00
H11    H     0.68640   0.08100   0.49270   0.01267  Uiso   1.00
H12    H     0.54660   0.81730   0.39220   0.01267  Uiso   1.00
C1     C     0.64870   0.98720   0.98180   0.01267  Uiso   1.00
C2     C     0.59110   0.91680   0.08800   0.01267  Uiso   1.00
C3     C     0.55810   0.06990   0.89400   0.01267  Uiso   1.00
C4     C     0.80860   0.97440   0.96480   0.01267  Uiso   1.00
C5     C     0.60580   0.44860   0.57910   0.01267  Uiso   1.00
C6     C     0.46300   0.44720   0.62340   0.01267  Uiso   1.00
C7     C     0.64310   0.50220   0.45590   0.01267  Uiso   1.00
C8     C     0.72030   0.38970   0.66480   0.01267  Uiso   1.00
C9     C     0.35840   0.06350   0.56610   0.01267  Uiso   1.00
C10    C     0.38840   0.95250   0.50380   0.01267  Uiso   1.00
C11    C     0.47160   0.10980   0.56390   0.01267  Uiso   1.00
C12    C     0.20740   0.12860   0.64430   0.01267  Uiso   1.00
C13    C     0.35130   0.01280   0.01820   0.01267  Uiso   1.00
C14    C     0.40890   0.08320   0.91200   0.01267  Uiso   1.00
C15    C     0.44190   0.93010   0.10600   0.01267  Uiso   1.00
C16    C     0.19140   0.02560   0.03520   0.01267  Uiso   1.00
C17    C     0.39420   0.55140   0.42090   0.01267  Uiso   1.00
C18    C     0.53700   0.55280   0.37660   0.01267  Uiso   1.00
C19    C     0.35690   0.49780   0.54410   0.01267  Uiso   1.00
C20    C     0.27970   0.61030   0.33520   0.01267  Uiso   1.00
C21    C     0.64160   0.93650   0.43390   0.01267  Uiso   1.00
C22    C     0.61160   0.04750   0.49620   0.01267  Uiso   1.00
C23    C     0.52840   0.89020   0.43610   0.01267  Uiso   1.00
C24    C     0.79260   0.87140   0.35570   0.01267  Uiso   1.00
O1     O     0.85630   0.04420   0.87070   0.01267  Uiso   1.00
O2     O     0.88050   0.89800   0.04840   0.01267  Uiso   1.00
O3     O     0.85310   0.37980   0.62420   0.01267  Uiso   1.00
O4     O     0.68120   0.34840   0.77980   0.01267  Uiso   1.00
O5     O     0.17290   0.24480   0.67930   0.01267  Uiso   1.00
O6     O     0.11950   0.06120   0.67500   0.01267  Uiso   1.00
O7     O     0.14370   0.95580   0.12930   0.01267  Uiso   1.00
O8     O     0.11950   0.10200   0.95160   0.01267  Uiso   1.00
O9     O     0.14690   0.62020   0.37580   0.01267  Uiso   1.00
O10    O     0.31880   0.65160   0.22020   0.01267  Uiso   1.00
O11    O     0.82710   0.75520   0.32070   0.01267  Uiso   1.00
O12    O     0.88050   0.93880   0.32500   0.01267  Uiso   1.00
