data_LAGQOB_clean
_audit_creation_date              2014-07-02
_audit_creation_method            'Materials Studio'
_symmetry_space_group_name_H-M    'P1'
_symmetry_Int_Tables_number       1
_symmetry_cell_setting            triclinic
loop_
_symmetry_equiv_pos_as_xyz
  x,y,z
_cell_length_a                    9.8739
_cell_length_b                    10.4767
_cell_length_c                    11.0735
_cell_angle_alpha                 77.2300
_cell_angle_beta                  76.4210
_cell_angle_gamma                 66.1660
loop_
_atom_site_label
_atom_site_type_symbol
_atom_site_fract_x
_atom_site_fract_y
_atom_site_fract_z
_atom_site_U_iso_or_equiv
_atom_site_adp_type
_atom_site_occupancy
Gd1    Gd    0.94445   0.22750   0.82279   0.01267  Uiso   1.00
Gd2    Gd    0.05555   0.77250   0.17721   0.01267  Uiso   1.00
H1     H     0.64830   0.86070   0.15030   0.01267  Uiso   1.00
H2     H     0.59990   0.11680   0.82160   0.01267  Uiso   1.00
H3     H     0.43580   0.41450   0.70760   0.01267  Uiso   1.00
H4     H     0.73780   0.50280   0.42510   0.01267  Uiso   1.00
H5     H     0.31000   0.92150   0.50600   0.01267  Uiso   1.00
H6     H     0.45500   0.18360   0.60620   0.01267  Uiso   1.00
H7     H     0.35170   0.13930   0.84970   0.01267  Uiso   1.00
H8     H     0.40010   0.88320   0.17840   0.01267  Uiso   1.00
H9     H     0.56420   0.58550   0.29240   0.01267  Uiso   1.00
H10    H     0.26220   0.49720   0.57490   0.01267  Uiso   1.00
H11    H     0.69000   0.07850   0.49400   0.01267  Uiso   1.00
H12    H     0.54500   0.81640   0.39380   0.01267  Uiso   1.00
C1     C     0.64840   0.98630   0.98240   0.01267  Uiso   1.00
C2     C     0.58880   0.91630   0.09010   0.01267  Uiso   1.00
C3     C     0.55970   0.06990   0.89310   0.01267  Uiso   1.00
C4     C     0.80840   0.97550   0.96610   0.01267  Uiso   1.00
C5     C     0.60710   0.44860   0.58010   0.01267  Uiso   1.00
C6     C     0.46190   0.44860   0.62410   0.01267  Uiso   1.00
C7     C     0.64220   0.50130   0.45540   0.01267  Uiso   1.00
C8     C     0.72090   0.38970   0.66540   0.01267  Uiso   1.00
C9     C     0.35730   0.06520   0.56670   0.01267  Uiso   1.00
C10    C     0.38600   0.95350   0.50340   0.01267  Uiso   1.00
C11    C     0.47280   0.11000   0.56320   0.01267  Uiso   1.00
C12    C     0.20670   0.13020   0.64420   0.01267  Uiso   1.00
C13    C     0.35160   0.01370   0.01760   0.01267  Uiso   1.00
C14    C     0.41120   0.08370   0.90990   0.01267  Uiso   1.00
C15    C     0.44030   0.93010   0.10690   0.01267  Uiso   1.00
C16    C     0.19160   0.02450   0.03390   0.01267  Uiso   1.00
C17    C     0.39290   0.55140   0.41990   0.01267  Uiso   1.00
C18    C     0.53810   0.55140   0.37590   0.01267  Uiso   1.00
C19    C     0.35780   0.49870   0.54460   0.01267  Uiso   1.00
C20    C     0.27910   0.61030   0.33460   0.01267  Uiso   1.00
C21    C     0.64270   0.93480   0.43330   0.01267  Uiso   1.00
C22    C     0.61400   0.04650   0.49660   0.01267  Uiso   1.00
C23    C     0.52720   0.89000   0.43680   0.01267  Uiso   1.00
C24    C     0.79330   0.86980   0.35580   0.01267  Uiso   1.00
O1     O     0.85640   0.04570   0.87130   0.01267  Uiso   1.00
O2     O     0.88270   0.89710   0.04980   0.01267  Uiso   1.00
O3     O     0.85470   0.37840   0.62400   0.01267  Uiso   1.00
O4     O     0.68310   0.34920   0.77970   0.01267  Uiso   1.00
O5     O     0.17230   0.24690   0.68040   0.01267  Uiso   1.00
O6     O     0.11810   0.06400   0.67630   0.01267  Uiso   1.00
O7     O     0.14360   0.95430   0.12870   0.01267  Uiso   1.00
O8     O     0.11730   0.10290   0.95020   0.01267  Uiso   1.00
O9     O     0.14530   0.62160   0.37600   0.01267  Uiso   1.00
O10    O     0.31690   0.65080   0.22030   0.01267  Uiso   1.00
O11    O     0.82770   0.75310   0.31960   0.01267  Uiso   1.00
O12    O     0.88190   0.93600   0.32370   0.01267  Uiso   1.00
