data_LAGRIW_clean
_audit_creation_date              2014-07-02
_audit_creation_method            'Materials Studio'
_symmetry_space_group_name_H-M    'P1'
_symmetry_Int_Tables_number       1
_symmetry_cell_setting            triclinic
loop_
_symmetry_equiv_pos_as_xyz
  x,y,z
_cell_length_a                    8.5679
_cell_length_b                    10.1868
_cell_length_c                    10.8724
_cell_angle_alpha                 66.7910
_cell_angle_beta                  69.3160
_cell_angle_gamma                 78.2460
loop_
_atom_site_label
_atom_site_type_symbol
_atom_site_fract_x
_atom_site_fract_y
_atom_site_fract_z
_atom_site_U_iso_or_equiv
_atom_site_adp_type
_atom_site_occupancy
Yb1    Yb    0.34563   0.56698   0.84361   0.01267  Uiso   1.00
Yb2    Yb    0.65437   0.43302   0.15639   0.01267  Uiso   1.00
H1     H     0.79480   0.37310   0.51460   0.01267  Uiso   1.00
H2     H     0.93330   0.65940   0.61690   0.01267  Uiso   1.00
H3     H     0.28590   0.17650   0.01650   0.01267  Uiso   1.00
H4     H     0.75920   0.03110   0.99860   0.01267  Uiso   1.00
H5     H     0.85350   0.87720   0.72860   0.01267  Uiso   1.00
H6     H     0.28640   0.95380   0.41830   0.01267  Uiso   1.00
H7     H     0.20520   0.62690   0.48540   0.01267  Uiso   1.00
H8     H     0.06670   0.34060   0.38310   0.01267  Uiso   1.00
H9     H     0.71410   0.82350   0.98350   0.01267  Uiso   1.00
H10    H     0.24080   0.96890   0.00140   0.01267  Uiso   1.00
H11    H     0.14650   0.12280   0.27140   0.01267  Uiso   1.00
H12    H     0.71360   0.04620   0.58170   0.01267  Uiso   1.00
C1     C     0.66080   0.53960   0.66730   0.01267  Uiso   1.00
C2     C     0.83610   0.51820   0.58180   0.01267  Uiso   1.00
C3     C     0.87720   0.42380   0.50930   0.01267  Uiso   1.00
C4     C     0.96020   0.59470   0.57020   0.01267  Uiso   1.00
C5     C     0.55580   0.26000   0.01810   0.01267  Uiso   1.00
C6     C     0.52730   0.12650   0.00740   0.01267  Uiso   1.00
C7     C     0.37290   0.10580   0.00950   0.01267  Uiso   1.00
C8     C     0.65440   0.01910   0.99880   0.01267  Uiso   1.00
C9     C     0.17180   0.77930   0.68570   0.01267  Uiso   1.00
C10    C     0.08320   0.89600   0.58900   0.01267  Uiso   1.00
C11    C     0.91280   0.92640   0.63620   0.01267  Uiso   1.00
C12    C     0.17120   0.97180   0.45120   0.01267  Uiso   1.00
C13    C     0.33920   0.46040   0.33270   0.01267  Uiso   1.00
C14    C     0.16390   0.48180   0.41820   0.01267  Uiso   1.00
C15    C     0.12280   0.57620   0.49070   0.01267  Uiso   1.00
C16    C     0.03980   0.40530   0.42980   0.01267  Uiso   1.00
C17    C     0.44420   0.74000   0.98190   0.01267  Uiso   1.00
C18    C     0.47270   0.87350   0.99260   0.01267  Uiso   1.00
C19    C     0.62710   0.89420   0.99050   0.01267  Uiso   1.00
C20    C     0.34560   0.98090   0.00120   0.01267  Uiso   1.00
C21    C     0.82820   0.22070   0.31430   0.01267  Uiso   1.00
C22    C     0.91680   0.10400   0.41100   0.01267  Uiso   1.00
C23    C     0.08720   0.07360   0.36380   0.01267  Uiso   1.00
C24    C     0.82880   0.02820   0.54880   0.01267  Uiso   1.00
O1     O     0.62980   0.61790   0.74170   0.01267  Uiso   1.00
O2     O     0.54560   0.48150   0.66720   0.01267  Uiso   1.00
O3     O     0.47030   0.37290   0.97190   0.01267  Uiso   1.00
O4     O     0.65850   0.25250   0.07850   0.01267  Uiso   1.00
O5     O     0.32650   0.75140   0.63570   0.01267  Uiso   1.00
O6     O     0.09270   0.71380   0.80920   0.01267  Uiso   1.00
O7     O     0.37020   0.38210   0.25830   0.01267  Uiso   1.00
O8     O     0.45440   0.51850   0.33280   0.01267  Uiso   1.00
O9     O     0.52970   0.62710   0.02810   0.01267  Uiso   1.00
O10    O     0.34150   0.74750   0.92150   0.01267  Uiso   1.00
O11    O     0.67350   0.24860   0.36430   0.01267  Uiso   1.00
O12    O     0.90730   0.28620   0.19080   0.01267  Uiso   1.00
