data_LAGRES_clean
_audit_creation_date              2014-07-02
_audit_creation_method            'Materials Studio'
_symmetry_space_group_name_H-M    'P1'
_symmetry_Int_Tables_number       1
_symmetry_cell_setting            triclinic
loop_
_symmetry_equiv_pos_as_xyz
  x,y,z
_cell_length_a                    8.5776
_cell_length_b                    10.1950
_cell_length_c                    10.9115
_cell_angle_alpha                 66.6720
_cell_angle_beta                  69.4250
_cell_angle_gamma                 78.1130
loop_
_atom_site_label
_atom_site_type_symbol
_atom_site_fract_x
_atom_site_fract_y
_atom_site_fract_z
_atom_site_U_iso_or_equiv
_atom_site_adp_type
_atom_site_occupancy
Er1    Er    0.34667   0.56606   0.84658   0.01267  Uiso   1.00
Er2    Er    0.65333   0.43394   0.15342   0.01267  Uiso   1.00
H1     H     0.79500   0.37130   0.51500   0.01267  Uiso   1.00
H2     H     0.93510   0.65860   0.61660   0.01267  Uiso   1.00
H3     H     0.28870   0.17840   0.02210   0.01267  Uiso   1.00
H4     H     0.76440   0.02800   0.99500   0.01267  Uiso   1.00
H5     H     0.85330   0.87640   0.72630   0.01267  Uiso   1.00
H6     H     0.28580   0.94920   0.41840   0.01267  Uiso   1.00
H7     H     0.20500   0.62870   0.48500   0.01267  Uiso   1.00
H8     H     0.06490   0.34140   0.38340   0.01267  Uiso   1.00
H9     H     0.71130   0.82160   0.97790   0.01267  Uiso   1.00
H10    H     0.23560   0.97200   0.00500   0.01267  Uiso   1.00
H11    H     0.14670   0.12360   0.27370   0.01267  Uiso   1.00
H12    H     0.71420   0.05080   0.58160   0.01267  Uiso   1.00
C1     C     0.66220   0.54010   0.66700   0.01267  Uiso   1.00
C2     C     0.83750   0.51820   0.58100   0.01267  Uiso   1.00
C3     C     0.87710   0.42240   0.50910   0.01267  Uiso   1.00
C4     C     0.96220   0.59450   0.56950   0.01267  Uiso   1.00
C5     C     0.56390   0.25570   0.02030   0.01267  Uiso   1.00
C6     C     0.53010   0.12400   0.00740   0.01267  Uiso   1.00
C7     C     0.37400   0.10690   0.01260   0.01267  Uiso   1.00
C8     C     0.65870   0.01710   0.99640   0.01267  Uiso   1.00
C9     C     0.17170   0.78000   0.68430   0.01267  Uiso   1.00
C10    C     0.08240   0.89410   0.59000   0.01267  Uiso   1.00
C11    C     0.91320   0.92630   0.63480   0.01267  Uiso   1.00
C12    C     0.17120   0.96930   0.45180   0.01267  Uiso   1.00
C13    C     0.33780   0.45990   0.33300   0.01267  Uiso   1.00
C14    C     0.16250   0.48180   0.41900   0.01267  Uiso   1.00
C15    C     0.12290   0.57760   0.49090   0.01267  Uiso   1.00
C16    C     0.03780   0.40550   0.43050   0.01267  Uiso   1.00
C17    C     0.43610   0.74430   0.97970   0.01267  Uiso   1.00
C18    C     0.46990   0.87600   0.99260   0.01267  Uiso   1.00
C19    C     0.62600   0.89310   0.98740   0.01267  Uiso   1.00
C20    C     0.34130   0.98290   0.00360   0.01267  Uiso   1.00
C21    C     0.82830   0.22000   0.31570   0.01267  Uiso   1.00
C22    C     0.91760   0.10590   0.41000   0.01267  Uiso   1.00
C23    C     0.08680   0.07370   0.36520   0.01267  Uiso   1.00
C24    C     0.82880   0.03070   0.54820   0.01267  Uiso   1.00
O1     O     0.63160   0.61920   0.73960   0.01267  Uiso   1.00
O2     O     0.54710   0.48010   0.66970   0.01267  Uiso   1.00
O3     O     0.47980   0.37050   0.97630   0.01267  Uiso   1.00
O4     O     0.66860   0.24510   0.07940   0.01267  Uiso   1.00
O5     O     0.32690   0.75030   0.63640   0.01267  Uiso   1.00
O6     O     0.09080   0.71100   0.80900   0.01267  Uiso   1.00
O7     O     0.36840   0.38080   0.26040   0.01267  Uiso   1.00
O8     O     0.45290   0.51990   0.33030   0.01267  Uiso   1.00
O9     O     0.52020   0.62950   0.02370   0.01267  Uiso   1.00
O10    O     0.33140   0.75490   0.92060   0.01267  Uiso   1.00
O11    O     0.67310   0.24970   0.36360   0.01267  Uiso   1.00
O12    O     0.90920   0.28900   0.19100   0.01267  Uiso   1.00
