data_image0
_cell_length_a       14.4155
_cell_length_b       14.4155
_cell_length_c       16.9725
_cell_angle_alpha    90
_cell_angle_beta     90
_cell_angle_gamma    120

_symmetry_space_group_name_H-M    "P 1"
_symmetry_int_tables_number       1

loop_
  _symmetry_equiv_pos_as_xyz
  'x, y, z'

loop_
  _atom_site_label
  _atom_site_occupancy
  _atom_site_fract_x
  _atom_site_fract_y
  _atom_site_fract_z
  _atom_site_thermal_displace_type
  _atom_site_B_iso_or_equiv
  _atom_site_type_symbol
  Yb1      1.0000 0.20254  0.50594  0.38372  Biso   1.000  Yb
  O1       1.0000 0.12690  0.54400  0.28200  Biso   1.000  O
  O2       1.0000 0.87350  0.41670  0.98480  Biso   1.000  O
  O3       1.0000 0.82700  0.54330  0.97360  Biso   1.000  O
  O4       1.0000 0.17310  0.71620  0.29480  Biso   1.000  O
  S1       1.0000 0.99990  0.50590  0.13360  Biso   1.000  S
  C1       1.0000 0.87460  0.50180  0.00580  Biso   1.000  C
  C2       1.0000 0.12540  0.62850  0.26110  Biso   1.000  C
  C3       1.0000 0.94000  0.55960  0.07620  Biso   1.000  C
  C4       1.0000 0.05990  0.61930  0.19090  Biso   1.000  C
  C5       1.0000 0.03590  0.69590  0.16680  Biso   1.000  C
  C6       1.0000 0.96530  0.65960  0.10000  Biso   1.000  C
  Yb2      1.0000 0.49406  0.69660  0.38372  Biso   1.000  Yb
  O5       1.0000 0.45600  0.58290  0.28200  Biso   1.000  O
  O6       1.0000 0.58330  0.45680  0.98480  Biso   1.000  O
  O7       1.0000 0.45670  0.28370  0.97360  Biso   1.000  O
  O8       1.0000 0.28380  0.45690  0.29480  Biso   1.000  O
  S2       1.0000 0.49410  0.49400  0.13360  Biso   1.000  S
  C7       1.0000 0.49820  0.37280  0.00580  Biso   1.000  C
  C8       1.0000 0.37150  0.49690  0.26110  Biso   1.000  C
  C9       1.0000 0.44040  0.38040  0.07620  Biso   1.000  C
  C10      1.0000 0.38070  0.44060  0.19090  Biso   1.000  C
  C11      1.0000 0.30410  0.34000  0.16680  Biso   1.000  C
  C12      1.0000 0.34040  0.30570  0.10000  Biso   1.000  C
  Yb3      1.0000 0.30340  0.79746  0.38372  Biso   1.000  Yb
  O9       1.0000 0.41710  0.87310  0.28200  Biso   1.000  O
  O10      1.0000 0.54320  0.12650  0.98480  Biso   1.000  O
  O11      1.0000 0.71630  0.17300  0.97360  Biso   1.000  O
  O12      1.0000 0.54310  0.82690  0.29480  Biso   1.000  O
  S3       1.0000 0.50600  0.00010  0.13360  Biso   1.000  S
  C13      1.0000 0.62720  0.12540  0.00580  Biso   1.000  C
  C14      1.0000 0.50310  0.87460  0.26110  Biso   1.000  C
  C15      1.0000 0.61960  0.06000  0.07620  Biso   1.000  C
  C16      1.0000 0.55940  0.94010  0.19090  Biso   1.000  C
  C17      1.0000 0.66000  0.96410  0.16680  Biso   1.000  C
  C18      1.0000 0.69430  0.03470  0.10000  Biso   1.000  C
  Yb4      1.0000 0.50594  0.20254  0.88372  Biso   1.000  Yb
  O13      1.0000 0.54400  0.12690  0.78200  Biso   1.000  O
  O14      1.0000 0.41670  0.87350  0.48480  Biso   1.000  O
  O15      1.0000 0.54330  0.82700  0.47360  Biso   1.000  O
  O16      1.0000 0.71620  0.17310  0.79480  Biso   1.000  O
  S4       1.0000 0.50590  0.99990  0.63360  Biso   1.000  S
  C19      1.0000 0.50180  0.87460  0.50580  Biso   1.000  C
  C20      1.0000 0.62850  0.12540  0.76110  Biso   1.000  C
  C21      1.0000 0.55960  0.94000  0.57620  Biso   1.000  C
  C22      1.0000 0.61930  0.05990  0.69090  Biso   1.000  C
  C23      1.0000 0.69590  0.03590  0.66680  Biso   1.000  C
  C24      1.0000 0.65960  0.96530  0.60000  Biso   1.000  C
  Yb5      1.0000 0.69660  0.49406  0.88372  Biso   1.000  Yb
  O17      1.0000 0.58290  0.45600  0.78200  Biso   1.000  O
  O18      1.0000 0.45680  0.58330  0.48480  Biso   1.000  O
  O19      1.0000 0.28370  0.45670  0.47360  Biso   1.000  O
  O20      1.0000 0.45690  0.28380  0.79480  Biso   1.000  O
  S5       1.0000 0.49400  0.49410  0.63360  Biso   1.000  S
  C25      1.0000 0.37280  0.49820  0.50580  Biso   1.000  C
  C26      1.0000 0.49690  0.37150  0.76110  Biso   1.000  C
  C27      1.0000 0.38040  0.44040  0.57620  Biso   1.000  C
  C28      1.0000 0.44060  0.38070  0.69090  Biso   1.000  C
  C29      1.0000 0.34000  0.30410  0.66680  Biso   1.000  C
  C30      1.0000 0.30570  0.34040  0.60000  Biso   1.000  C
  Yb6      1.0000 0.79746  0.30340  0.88372  Biso   1.000  Yb
  O21      1.0000 0.87310  0.41710  0.78200  Biso   1.000  O
  O22      1.0000 0.12650  0.54320  0.48480  Biso   1.000  O
  O23      1.0000 0.17300  0.71630  0.47360  Biso   1.000  O
  O24      1.0000 0.82690  0.54310  0.79480  Biso   1.000  O
  S6       1.0000 0.00010  0.50600  0.63360  Biso   1.000  S
  C31      1.0000 0.12540  0.62720  0.50580  Biso   1.000  C
  C32      1.0000 0.87460  0.50310  0.76110  Biso   1.000  C
  C33      1.0000 0.06000  0.61960  0.57620  Biso   1.000  C
  C34      1.0000 0.94010  0.55940  0.69090  Biso   1.000  C
  C35      1.0000 0.96410  0.66000  0.66680  Biso   1.000  C
  C36      1.0000 0.03470  0.69430  0.60000  Biso   1.000  C
  O25      1.0000 0.33333  0.66667  0.38410  Biso   1.000  O
  O26      1.0000 0.66667  0.33333  0.88410  Biso   1.000  O
