data_LAGVOG_clean
_audit_creation_date              2014-07-02
_audit_creation_method            'Materials Studio'
_symmetry_space_group_name_H-M    'P1'
_symmetry_Int_Tables_number       1
_symmetry_cell_setting            triclinic
loop_
_symmetry_equiv_pos_as_xyz
  x,y,z
_cell_length_a                    9.6520
_cell_length_b                    14.0670
_cell_length_c                    16.2120
_cell_angle_alpha                 90.0000
_cell_angle_beta                  90.0000
_cell_angle_gamma                 106.5800
loop_
_atom_site_label
_atom_site_type_symbol
_atom_site_fract_x
_atom_site_fract_y
_atom_site_fract_z
_atom_site_U_iso_or_equiv
_atom_site_adp_type
_atom_site_occupancy
Y1     Y     0.82691   0.55258   0.01748   0.01267  Uiso   1.00
Y2     Y     0.67309   0.94742   0.51748   0.01267  Uiso   1.00
Y3     Y     0.17309   0.44742   0.98252   0.01267  Uiso   1.00
Y4     Y     0.32691   0.05258   0.48252   0.01267  Uiso   1.00
H1     H     0.29720   0.63390   0.80600   0.01267  Uiso   1.00
H2     H     0.41390   0.72900   0.70090   0.01267  Uiso   1.00
H3     H     0.10750   0.86900   0.69040   0.01267  Uiso   1.00
H4     H     0.99470   0.77880   0.79990   0.01267  Uiso   1.00
H5     H     0.20280   0.86610   0.30600   0.01267  Uiso   1.00
H6     H     0.08610   0.77100   0.20090   0.01267  Uiso   1.00
H7     H     0.39250   0.63100   0.19040   0.01267  Uiso   1.00
H8     H     0.50530   0.72120   0.29990   0.01267  Uiso   1.00
H9     H     0.70280   0.36610   0.19400   0.01267  Uiso   1.00
H10    H     0.58610   0.27100   0.29910   0.01267  Uiso   1.00
H11    H     0.89250   0.13100   0.30960   0.01267  Uiso   1.00
H12    H     0.00530   0.22120   0.20010   0.01267  Uiso   1.00
H13    H     0.79720   0.13390   0.69400   0.01267  Uiso   1.00
H14    H     0.91390   0.22900   0.79910   0.01267  Uiso   1.00
H15    H     0.60750   0.36900   0.80960   0.01267  Uiso   1.00
H16    H     0.49470   0.27880   0.70010   0.01267  Uiso   1.00
C1     C     0.13550   0.69650   0.81520   0.01267  Uiso   1.00
C2     C     0.26000   0.68260   0.78380   0.01267  Uiso   1.00
C3     C     0.32900   0.73880   0.72120   0.01267  Uiso   1.00
C4     C     0.27600   0.81150   0.68590   0.01267  Uiso   1.00
C5     C     0.14700   0.82320   0.71520   0.01267  Uiso   1.00
C6     C     0.07900   0.76870   0.77930   0.01267  Uiso   1.00
C7     C     0.05500   0.63310   0.88960   0.01267  Uiso   1.00
C8     C     0.35000   0.87610   0.61360   0.01267  Uiso   1.00
C9     C     0.50880   0.53460   0.96330   0.01267  Uiso   1.00
C10    C     0.36450   0.80350   0.31520   0.01267  Uiso   1.00
C11    C     0.24000   0.81740   0.28380   0.01267  Uiso   1.00
C12    C     0.17100   0.76120   0.22120   0.01267  Uiso   1.00
C13    C     0.22400   0.68850   0.18590   0.01267  Uiso   1.00
C14    C     0.35300   0.67680   0.21520   0.01267  Uiso   1.00
C15    C     0.42100   0.73130   0.27930   0.01267  Uiso   1.00
C16    C     0.44500   0.86690   0.38960   0.01267  Uiso   1.00
C17    C     0.15000   0.62390   0.11360   0.01267  Uiso   1.00
C18    C     0.99120   0.96540   0.46330   0.01267  Uiso   1.00
C19    C     0.86450   0.30350   0.18480   0.01267  Uiso   1.00
C20    C     0.74000   0.31740   0.21620   0.01267  Uiso   1.00
C21    C     0.67100   0.26120   0.27880   0.01267  Uiso   1.00
C22    C     0.72400   0.18850   0.31410   0.01267  Uiso   1.00
C23    C     0.85300   0.17680   0.28480   0.01267  Uiso   1.00
C24    C     0.92100   0.23130   0.22070   0.01267  Uiso   1.00
C25    C     0.94500   0.36690   0.11040   0.01267  Uiso   1.00
C26    C     0.65000   0.12390   0.38640   0.01267  Uiso   1.00
C27    C     0.49120   0.46540   0.03670   0.01267  Uiso   1.00
C28    C     0.63550   0.19650   0.68480   0.01267  Uiso   1.00
C29    C     0.76000   0.18260   0.71620   0.01267  Uiso   1.00
C30    C     0.82900   0.23880   0.77880   0.01267  Uiso   1.00
C31    C     0.77600   0.31150   0.81410   0.01267  Uiso   1.00
C32    C     0.64700   0.32320   0.78480   0.01267  Uiso   1.00
C33    C     0.57900   0.26870   0.72070   0.01267  Uiso   1.00
C34    C     0.55500   0.13310   0.61040   0.01267  Uiso   1.00
C35    C     0.85000   0.37610   0.88640   0.01267  Uiso   1.00
C36    C     0.00880   0.03460   0.53670   0.01267  Uiso   1.00
O1     O     0.94650   0.65770   0.91440   0.01267  Uiso   1.00
O2     O     0.10430   0.56860   0.91450   0.01267  Uiso   1.00
O3     O     0.29340   0.93440   0.58360   0.01267  Uiso   1.00
O4     O     0.47320   0.86190   0.59230   0.01267  Uiso   1.00
O5     O     0.39390   0.54470   0.93050   0.01267  Uiso   1.00
O6     O     0.63440   0.57810   0.94020   0.01267  Uiso   1.00
O7     O     0.55350   0.84230   0.41440   0.01267  Uiso   1.00
O8     O     0.39570   0.93140   0.41450   0.01267  Uiso   1.00
O9     O     0.20660   0.56560   0.08360   0.01267  Uiso   1.00
O10    O     0.02680   0.63810   0.09230   0.01267  Uiso   1.00
O11    O     0.10610   0.95530   0.43050   0.01267  Uiso   1.00
O12    O     0.86560   0.92190   0.44020   0.01267  Uiso   1.00
O13    O     0.05350   0.34230   0.08560   0.01267  Uiso   1.00
O14    O     0.89570   0.43140   0.08550   0.01267  Uiso   1.00
O15    O     0.70660   0.06560   0.41640   0.01267  Uiso   1.00
O16    O     0.52680   0.13810   0.40770   0.01267  Uiso   1.00
O17    O     0.60610   0.45530   0.06950   0.01267  Uiso   1.00
O18    O     0.36560   0.42190   0.05980   0.01267  Uiso   1.00
O19    O     0.44650   0.15770   0.58560   0.01267  Uiso   1.00
O20    O     0.60430   0.06860   0.58550   0.01267  Uiso   1.00
O21    O     0.79340   0.43440   0.91640   0.01267  Uiso   1.00
O22    O     0.97320   0.36190   0.90770   0.01267  Uiso   1.00
O23    O     0.89390   0.04470   0.56950   0.01267  Uiso   1.00
O24    O     0.13440   0.07810   0.55980   0.01267  Uiso   1.00
