data_image0
_cell_length_a       10.819
_cell_length_b       24.514
_cell_length_c       16.607
_cell_angle_alpha    90
_cell_angle_beta     91.681
_cell_angle_gamma    90

_symmetry_space_group_name_H-M    "P 1"
_symmetry_int_tables_number       1

loop_
  _symmetry_equiv_pos_as_xyz
  'x, y, z'

loop_
  _atom_site_label
  _atom_site_occupancy
  _atom_site_fract_x
  _atom_site_fract_y
  _atom_site_fract_z
  _atom_site_thermal_displace_type
  _atom_site_B_iso_or_equiv
  _atom_site_type_symbol
  Cd1      1.0000 0.99995  0.19798  0.96413  Biso   1.000  Cd
  Cd2      1.0000 0.71515  0.86784  0.00740  Biso   1.000  Cd
  C1       1.0000 0.98800  0.28940  0.05790  Biso   1.000  C
  C2       1.0000 0.98900  0.33855  0.11080  Biso   1.000  C
  C3       1.0000 0.09200  0.35110  0.16060  Biso   1.000  C
  H1       1.0000 0.16250  0.32950  0.15830  Biso   1.000  H
  C4       1.0000 0.09060  0.39520  0.21330  Biso   1.000  C
  H2       1.0000 0.15880  0.40250  0.24690  Biso   1.000  H
  C5       1.0000 0.98610  0.42828  0.21530  Biso   1.000  C
  C6       1.0000 0.88500  0.41650  0.16350  Biso   1.000  C
  H3       1.0000 0.81600  0.43910  0.16320  Biso   1.000  H
  C7       1.0000 0.88630  0.37196  0.11320  Biso   1.000  C
  H4       1.0000 0.81730  0.36430  0.08040  Biso   1.000  H
  C8       1.0000 0.98250  0.47648  0.26890  Biso   1.000  C
  C9       1.0000 0.02840  0.47659  0.34820  Biso   1.000  C
  C10      1.0000 0.07490  0.42537  0.39120  Biso   1.000  C
  C11      1.0000 0.02880  0.52495  0.39170  Biso   1.000  C
  H5       1.0000 0.06200  0.52510  0.44400  Biso   1.000  H
  C12      1.0000 0.98080  0.57346  0.35940  Biso   1.000  C
  C13      1.0000 0.93260  0.57384  0.28080  Biso   1.000  C
  C14      1.0000 0.93630  0.52565  0.23670  Biso   1.000  C
  H6       1.0000 0.90680  0.52600  0.18350  Biso   1.000  H
  C15      1.0000 0.88250  0.62304  0.23950  Biso   1.000  C
  C16      1.0000 0.93880  0.67403  0.24650  Biso   1.000  C
  H7       1.0000 0.00860  0.67840  0.28000  Biso   1.000  H
  C17      1.0000 0.89120  0.71846  0.20380  Biso   1.000  C
  H8       1.0000 0.93020  0.75220  0.20840  Biso   1.000  H
  C18      1.0000 0.78580  0.71305  0.15410  Biso   1.000  C
  C19      1.0000 0.72970  0.66330  0.14790  Biso   1.000  C
  H9       1.0000 0.65830  0.65950  0.11580  Biso   1.000  H
  C20      1.0000 0.77720  0.61853  0.18840  Biso   1.000  C
  H10      1.0000 0.73890  0.58480  0.18190  Biso   1.000  H
  C21      1.0000 0.98320  0.62171  0.41500  Biso   1.000  C
  C22      1.0000 0.74950  0.25120  0.89030  Biso   1.000  C
  H11      1.0000 0.74410  0.26210  0.94370  Biso   1.000  H
  C23      1.0000 0.66140  0.27030  0.83550  Biso   1.000  C
  H12      1.0000 0.59640  0.29190  0.85250  Biso   1.000  H
  C24      1.0000 0.67090  0.25708  0.75530  Biso   1.000  C
  C25      1.0000 0.76740  0.22220  0.73490  Biso   1.000  C
  H13      1.0000 0.77730  0.21220  0.68140  Biso   1.000  H
  C26      1.0000 0.84810  0.20246  0.79410  Biso   1.000  C
  H14      1.0000 0.90850  0.17750  0.77990  Biso   1.000  H
  C27      1.0000 0.58330  0.27772  0.69230  Biso   1.000  C
  C28      1.0000 0.45830  0.28400  0.70810  Biso   1.000  C
  H15      1.0000 0.42870  0.27380  0.75790  Biso   1.000  H
  C29      1.0000 0.37930  0.30520  0.65060  Biso   1.000  C
  H16      1.0000 0.29660  0.30960  0.66290  Biso   1.000  H
  C30      1.0000 0.53540  0.31340  0.56130  Biso   1.000  C
  H17      1.0000 0.56250  0.32330  0.51060  Biso   1.000  H
  C31      1.0000 0.61960  0.29280  0.61680  Biso   1.000  C
  H18      1.0000 0.70200  0.28910  0.60320  Biso   1.000  H
  C32      1.0000 0.73080  0.76178  0.11110  Biso   1.000  C
  N1       1.0000 0.41530  0.31988  0.57740  Biso   1.000  N
  N2       1.0000 0.84200  0.21803  0.87110  Biso   1.000  N
  O1       1.0000 0.88860  0.26420  0.04720  Biso   1.000  O
  O2       1.0000 0.08520  0.27435  0.02710  Biso   1.000  O
  O3       1.0000 0.00980  0.38364  0.38756  Biso   1.000  O
  O4       1.0000 0.17650  0.43202  0.43037  Biso   1.000  O
  O5       1.0000 0.08370  0.63459  0.44808  Biso   1.000  O
  O6       1.0000 0.88340  0.64691  0.42818  Biso   1.000  O
  O7       1.0000 0.61570  0.76267  0.10250  Biso   1.000  O
  O8       1.0000 0.80200  0.79960  0.08888  Biso   1.000  O
  Cd3      1.0000 0.00005  0.69798  0.53587  Biso   1.000  Cd
  Cd4      1.0000 0.28485  0.36784  0.49260  Biso   1.000  Cd
  C33      1.0000 0.01200  0.78940  0.44210  Biso   1.000  C
  C34      1.0000 0.01100  0.83855  0.38920  Biso   1.000  C
  C35      1.0000 0.90800  0.85110  0.33940  Biso   1.000  C
  H19      1.0000 0.83750  0.82950  0.34170  Biso   1.000  H
  C36      1.0000 0.90940  0.89520  0.28670  Biso   1.000  C
  H20      1.0000 0.84120  0.90250  0.25310  Biso   1.000  H
  C37      1.0000 0.01390  0.92828  0.28470  Biso   1.000  C
  C38      1.0000 0.11500  0.91650  0.33650  Biso   1.000  C
  H21      1.0000 0.18400  0.93910  0.33680  Biso   1.000  H
  C39      1.0000 0.11370  0.87196  0.38680  Biso   1.000  C
  H22      1.0000 0.18270  0.86430  0.41960  Biso   1.000  H
  C40      1.0000 0.01750  0.97648  0.23110  Biso   1.000  C
  C41      1.0000 0.97160  0.97659  0.15180  Biso   1.000  C
  C42      1.0000 0.92510  0.92537  0.10880  Biso   1.000  C
  C43      1.0000 0.97120  0.02495  0.10830  Biso   1.000  C
  H23      1.0000 0.93800  0.02510  0.05600  Biso   1.000  H
  C44      1.0000 0.01920  0.07346  0.14060  Biso   1.000  C
  C45      1.0000 0.06740  0.07384  0.21920  Biso   1.000  C
  C46      1.0000 0.06370  0.02565  0.26330  Biso   1.000  C
  H24      1.0000 0.09320  0.02600  0.31650  Biso   1.000  H
  C47      1.0000 0.11750  0.12304  0.26050  Biso   1.000  C
  C48      1.0000 0.06120  0.17403  0.25350  Biso   1.000  C
  H25      1.0000 0.99140  0.17840  0.22000  Biso   1.000  H
  C49      1.0000 0.10880  0.21846  0.29620  Biso   1.000  C
  H26      1.0000 0.06980  0.25220  0.29160  Biso   1.000  H
  C50      1.0000 0.21420  0.21305  0.34590  Biso   1.000  C
  C51      1.0000 0.27030  0.16330  0.35210  Biso   1.000  C
  H27      1.0000 0.34170  0.15950  0.38420  Biso   1.000  H
  C52      1.0000 0.22280  0.11853  0.31160  Biso   1.000  C
  H28      1.0000 0.26110  0.08480  0.31810  Biso   1.000  H
  C53      1.0000 0.01680  0.12171  0.08500  Biso   1.000  C
  C54      1.0000 0.25050  0.75120  0.60970  Biso   1.000  C
  H29      1.0000 0.25590  0.76210  0.55630  Biso   1.000  H
  C55      1.0000 0.33860  0.77030  0.66450  Biso   1.000  C
  H30      1.0000 0.40360  0.79190  0.64750  Biso   1.000  H
  C56      1.0000 0.32910  0.75708  0.74470  Biso   1.000  C
  C57      1.0000 0.23260  0.72220  0.76510  Biso   1.000  C
  H31      1.0000 0.22270  0.71220  0.81860  Biso   1.000  H
  C58      1.0000 0.15190  0.70246  0.70590  Biso   1.000  C
  H32      1.0000 0.09150  0.67750  0.72010  Biso   1.000  H
  C59      1.0000 0.41670  0.77772  0.80770  Biso   1.000  C
  C60      1.0000 0.54170  0.78400  0.79190  Biso   1.000  C
  H33      1.0000 0.57130  0.77380  0.74210  Biso   1.000  H
  C61      1.0000 0.62070  0.80520  0.84940  Biso   1.000  C
  H34      1.0000 0.70340  0.80960  0.83710  Biso   1.000  H
  C62      1.0000 0.46460  0.81340  0.93870  Biso   1.000  C
  H35      1.0000 0.43750  0.82330  0.98940  Biso   1.000  H
  C63      1.0000 0.38040  0.79280  0.88320  Biso   1.000  C
  H36      1.0000 0.29800  0.78910  0.89680  Biso   1.000  H
  C64      1.0000 0.26920  0.26178  0.38890  Biso   1.000  C
  N3       1.0000 0.58470  0.81988  0.92260  Biso   1.000  N
  N4       1.0000 0.15800  0.71803  0.62890  Biso   1.000  N
  O9       1.0000 0.11140  0.76420  0.45280  Biso   1.000  O
  O10      1.0000 0.91480  0.77435  0.47290  Biso   1.000  O
  O11      1.0000 0.99020  0.88364  0.11244  Biso   1.000  O
  O12      1.0000 0.82350  0.93202  0.06963  Biso   1.000  O
  O13      1.0000 0.91630  0.13459  0.05192  Biso   1.000  O
  O14      1.0000 0.11660  0.14691  0.07182  Biso   1.000  O
  O15      1.0000 0.38430  0.26267  0.39750  Biso   1.000  O
  O16      1.0000 0.19800  0.29960  0.41112  Biso   1.000  O
  Cd5      1.0000 0.00005  0.80202  0.03587  Biso   1.000  Cd
  Cd6      1.0000 0.28485  0.13216  0.99260  Biso   1.000  Cd
  C65      1.0000 0.01200  0.71060  0.94210  Biso   1.000  C
  C66      1.0000 0.01100  0.66145  0.88920  Biso   1.000  C
  C67      1.0000 0.90800  0.64890  0.83940  Biso   1.000  C
  H37      1.0000 0.83750  0.67050  0.84170  Biso   1.000  H
  C68      1.0000 0.90940  0.60480  0.78670  Biso   1.000  C
  H38      1.0000 0.84120  0.59750  0.75310  Biso   1.000  H
  C69      1.0000 0.01390  0.57172  0.78470  Biso   1.000  C
  C70      1.0000 0.11500  0.58350  0.83650  Biso   1.000  C
  H39      1.0000 0.18400  0.56090  0.83680  Biso   1.000  H
  C71      1.0000 0.11370  0.62804  0.88680  Biso   1.000  C
  H40      1.0000 0.18270  0.63570  0.91960  Biso   1.000  H
  C72      1.0000 0.01750  0.52352  0.73110  Biso   1.000  C
  C73      1.0000 0.97160  0.52341  0.65180  Biso   1.000  C
  C74      1.0000 0.92510  0.57463  0.60880  Biso   1.000  C
  C75      1.0000 0.97120  0.47505  0.60830  Biso   1.000  C
  H41      1.0000 0.93800  0.47490  0.55600  Biso   1.000  H
  C76      1.0000 0.01920  0.42654  0.64060  Biso   1.000  C
  C77      1.0000 0.06740  0.42616  0.71920  Biso   1.000  C
  C78      1.0000 0.06370  0.47435  0.76330  Biso   1.000  C
  H42      1.0000 0.09320  0.47400  0.81650  Biso   1.000  H
  C79      1.0000 0.11750  0.37696  0.76050  Biso   1.000  C
  C80      1.0000 0.06120  0.32597  0.75350  Biso   1.000  C
  H43      1.0000 0.99140  0.32160  0.72000  Biso   1.000  H
  C81      1.0000 0.10880  0.28154  0.79620  Biso   1.000  C
  H44      1.0000 0.06980  0.24780  0.79160  Biso   1.000  H
  C82      1.0000 0.21420  0.28695  0.84590  Biso   1.000  C
  C83      1.0000 0.27030  0.33670  0.85210  Biso   1.000  C
  H45      1.0000 0.34170  0.34050  0.88420  Biso   1.000  H
  C84      1.0000 0.22280  0.38147  0.81160  Biso   1.000  C
  H46      1.0000 0.26110  0.41520  0.81810  Biso   1.000  H
  C85      1.0000 0.01680  0.37829  0.58500  Biso   1.000  C
  C86      1.0000 0.25050  0.74880  0.10970  Biso   1.000  C
  H47      1.0000 0.25590  0.73790  0.05630  Biso   1.000  H
  C87      1.0000 0.33860  0.72970  0.16450  Biso   1.000  C
  H48      1.0000 0.40360  0.70810  0.14750  Biso   1.000  H
  C88      1.0000 0.32910  0.74292  0.24470  Biso   1.000  C
  C89      1.0000 0.23260  0.77780  0.26510  Biso   1.000  C
  H49      1.0000 0.22270  0.78780  0.31860  Biso   1.000  H
  C90      1.0000 0.15190  0.79754  0.20590  Biso   1.000  C
  H50      1.0000 0.09150  0.82250  0.22010  Biso   1.000  H
  C91      1.0000 0.41670  0.72228  0.30770  Biso   1.000  C
  C92      1.0000 0.54170  0.71600  0.29190  Biso   1.000  C
  H51      1.0000 0.57130  0.72620  0.24210  Biso   1.000  H
  C93      1.0000 0.62070  0.69480  0.34940  Biso   1.000  C
  H52      1.0000 0.70340  0.69040  0.33710  Biso   1.000  H
  C94      1.0000 0.46460  0.68660  0.43870  Biso   1.000  C
  H53      1.0000 0.43750  0.67670  0.48940  Biso   1.000  H
  C95      1.0000 0.38040  0.70720  0.38320  Biso   1.000  C
  H54      1.0000 0.29800  0.71090  0.39680  Biso   1.000  H
  C96      1.0000 0.26920  0.23822  0.88890  Biso   1.000  C
  N5       1.0000 0.58470  0.68012  0.42260  Biso   1.000  N
  N6       1.0000 0.15800  0.78197  0.12890  Biso   1.000  N
  O17      1.0000 0.11140  0.73580  0.95280  Biso   1.000  O
  O18      1.0000 0.91480  0.72565  0.97290  Biso   1.000  O
  O19      1.0000 0.99020  0.61636  0.61244  Biso   1.000  O
  O20      1.0000 0.82350  0.56798  0.56963  Biso   1.000  O
  O21      1.0000 0.91630  0.36541  0.55192  Biso   1.000  O
  O22      1.0000 0.11660  0.35309  0.57182  Biso   1.000  O
  O23      1.0000 0.38430  0.23733  0.89750  Biso   1.000  O
  O24      1.0000 0.19800  0.20040  0.91112  Biso   1.000  O
  Cd7      1.0000 0.99995  0.30202  0.46413  Biso   1.000  Cd
  Cd8      1.0000 0.71515  0.63216  0.50740  Biso   1.000  Cd
  C97      1.0000 0.98800  0.21060  0.55790  Biso   1.000  C
  C98      1.0000 0.98900  0.16145  0.61080  Biso   1.000  C
  C99      1.0000 0.09200  0.14890  0.66060  Biso   1.000  C
  H55      1.0000 0.16250  0.17050  0.65830  Biso   1.000  H
  C100     1.0000 0.09060  0.10480  0.71330  Biso   1.000  C
  H56      1.0000 0.15880  0.09750  0.74690  Biso   1.000  H
  C101     1.0000 0.98610  0.07172  0.71530  Biso   1.000  C
  C102     1.0000 0.88500  0.08350  0.66350  Biso   1.000  C
  H57      1.0000 0.81600  0.06090  0.66320  Biso   1.000  H
  C103     1.0000 0.88630  0.12804  0.61320  Biso   1.000  C
  H58      1.0000 0.81730  0.13570  0.58040  Biso   1.000  H
  C104     1.0000 0.98250  0.02352  0.76890  Biso   1.000  C
  C105     1.0000 0.02840  0.02341  0.84820  Biso   1.000  C
  C106     1.0000 0.07490  0.07463  0.89120  Biso   1.000  C
  C107     1.0000 0.02880  0.97505  0.89170  Biso   1.000  C
  H59      1.0000 0.06200  0.97490  0.94400  Biso   1.000  H
  C108     1.0000 0.98080  0.92654  0.85940  Biso   1.000  C
  C109     1.0000 0.93260  0.92616  0.78080  Biso   1.000  C
  C110     1.0000 0.93630  0.97435  0.73670  Biso   1.000  C
  H60      1.0000 0.90680  0.97400  0.68350  Biso   1.000  H
  C111     1.0000 0.88250  0.87696  0.73950  Biso   1.000  C
  C112     1.0000 0.93880  0.82597  0.74650  Biso   1.000  C
  H61      1.0000 0.00860  0.82160  0.78000  Biso   1.000  H
  C113     1.0000 0.89120  0.78154  0.70380  Biso   1.000  C
  H62      1.0000 0.93020  0.74780  0.70840  Biso   1.000  H
  C114     1.0000 0.78580  0.78695  0.65410  Biso   1.000  C
  C115     1.0000 0.72970  0.83670  0.64790  Biso   1.000  C
  H63      1.0000 0.65830  0.84050  0.61580  Biso   1.000  H
  C116     1.0000 0.77720  0.88147  0.68840  Biso   1.000  C
  H64      1.0000 0.73890  0.91520  0.68190  Biso   1.000  H
  C117     1.0000 0.98320  0.87829  0.91500  Biso   1.000  C
  C118     1.0000 0.74950  0.24880  0.39030  Biso   1.000  C
  H65      1.0000 0.74410  0.23790  0.44370  Biso   1.000  H
  C119     1.0000 0.66140  0.22970  0.33550  Biso   1.000  C
  H66      1.0000 0.59640  0.20810  0.35250  Biso   1.000  H
  C120     1.0000 0.67090  0.24292  0.25530  Biso   1.000  C
  C121     1.0000 0.76740  0.27780  0.23490  Biso   1.000  C
  H67      1.0000 0.77730  0.28780  0.18140  Biso   1.000  H
  C122     1.0000 0.84810  0.29754  0.29410  Biso   1.000  C
  H68      1.0000 0.90850  0.32250  0.27990  Biso   1.000  H
  C123     1.0000 0.58330  0.22228  0.19230  Biso   1.000  C
  C124     1.0000 0.45830  0.21600  0.20810  Biso   1.000  C
  H69      1.0000 0.42870  0.22620  0.25790  Biso   1.000  H
  C125     1.0000 0.37930  0.19480  0.15060  Biso   1.000  C
  H70      1.0000 0.29660  0.19040  0.16290  Biso   1.000  H
  C126     1.0000 0.53540  0.18660  0.06130  Biso   1.000  C
  H71      1.0000 0.56250  0.17670  0.01060  Biso   1.000  H
  C127     1.0000 0.61960  0.20720  0.11680  Biso   1.000  C
  H72      1.0000 0.70200  0.21090  0.10320  Biso   1.000  H
  C128     1.0000 0.73080  0.73822  0.61110  Biso   1.000  C
  N7       1.0000 0.41530  0.18012  0.07740  Biso   1.000  N
  N8       1.0000 0.84200  0.28197  0.37110  Biso   1.000  N
  O25      1.0000 0.88860  0.23580  0.54720  Biso   1.000  O
  O26      1.0000 0.08520  0.22565  0.52710  Biso   1.000  O
  O27      1.0000 0.00980  0.11636  0.88756  Biso   1.000  O
  O28      1.0000 0.17650  0.06798  0.93037  Biso   1.000  O
  O29      1.0000 0.08370  0.86541  0.94808  Biso   1.000  O
  O30      1.0000 0.88340  0.85309  0.92818  Biso   1.000  O
  O31      1.0000 0.61570  0.73733  0.60250  Biso   1.000  O
  O32      1.0000 0.80200  0.70040  0.58888  Biso   1.000  O
