data_image0
_cell_length_a       12.2
_cell_length_b       26.58
_cell_length_c       18.62
_cell_angle_alpha    90
_cell_angle_beta     104.82
_cell_angle_gamma    90

_symmetry_space_group_name_H-M    "P 1"
_symmetry_int_tables_number       1

loop_
  _symmetry_equiv_pos_as_xyz
  'x, y, z'

loop_
  _atom_site_label
  _atom_site_occupancy
  _atom_site_fract_x
  _atom_site_fract_y
  _atom_site_fract_z
  _atom_site_thermal_displace_type
  _atom_site_B_iso_or_equiv
  _atom_site_type_symbol
  Cd1      1.0000 0.78404  0.82999  0.79638  Biso   1.000  Cd
  Cd2      1.0000 0.38388  0.67129  0.77853  Biso   1.000  Cd
  O1       1.0000 0.21530  0.62270  0.73000  Biso   1.000  O
  O2       1.0000 0.92420  0.87610  0.75240  Biso   1.000  O
  O3       1.0000 0.34500  0.59600  0.82160  Biso   1.000  O
  C1       1.0000 0.56150  0.81920  0.66440  Biso   1.000  C
  H1       1.0000 0.53680  0.80430  0.70270  Biso   1.000  H
  O4       1.0000 0.30680  0.73000  0.83650  Biso   1.000  O
  O5       1.0000 0.85910  0.90490  0.84440  Biso   1.000  O
  O6       1.0000 0.90350  0.76700  0.84130  Biso   1.000  O
  N1       1.0000 0.66910  0.83400  0.87300  Biso   1.000  N
  N2       1.0000 0.43200  0.66190  0.67040  Biso   1.000  N
  O7       1.0000 0.36860  0.75830  0.74080  Biso   1.000  O
  O8       1.0000 0.75220  0.74210  0.76070  Biso   1.000  O
  C2       1.0000 0.53520  0.83870  0.97340  Biso   1.000  C
  C3       1.0000 0.01350  0.67640  0.84400  Biso   1.000  C
  H2       1.0000 0.04860  0.70020  0.87900  Biso   1.000  H
  N3       1.0000 0.66300  0.84030  0.68400  Biso   1.000  N
  C4       1.0000 0.25090  0.59370  0.77640  Biso   1.000  C
  C5       1.0000 0.28870  0.85490  0.75510  Biso   1.000  C
  H3       1.0000 0.33020  0.85010  0.72010  Biso   1.000  H
  C6       1.0000 0.85460  0.73500  0.80250  Biso   1.000  C
  C7       1.0000 0.92260  0.90900  0.80010  Biso   1.000  C
  C8       1.0000 0.48780  0.81610  0.59510  Biso   1.000  C
  C9       1.0000 0.01280  0.59360  0.78890  Biso   1.000  C
  C10      1.0000 0.21550  0.82490  0.85380  Biso   1.000  C
  H4       1.0000 0.21370  0.80030  0.88900  Biso   1.000  H
  C11      1.0000 0.10540  0.95550  0.80520  Biso   1.000  C
  C12      1.0000 0.07290  0.54610  0.78710  Biso   1.000  C
  C13      1.0000 0.27540  0.81630  0.80350  Biso   1.000  C
  C14      1.0000 0.99210  0.95520  0.80640  Biso   1.000  C
  C15      1.0000 0.53850  0.79770  0.93040  Biso   1.000  C
  H5       1.0000 0.49380  0.76980  0.93330  Biso   1.000  H
  C16      1.0000 0.36080  0.64440  0.60850  Biso   1.000  C
  H6       1.0000 0.29330  0.63000  0.61300  Biso   1.000  H
  C17      1.0000 0.67090  0.87550  0.91930  Biso   1.000  C
  H7       1.0000 0.71840  0.90210  0.91520  Biso   1.000  H
  C18      1.0000 0.32130  0.76610  0.79400  Biso   1.000  C
  C19      1.0000 0.16980  0.90830  0.80570  Biso   1.000  C
  C20      1.0000 0.15830  0.86800  0.85470  Biso   1.000  C
  H8       1.0000 0.11160  0.87170  0.88680  Biso   1.000  H
  C21      1.0000 0.23870  0.89920  0.76150  Biso   1.000  C
  H9       1.0000 0.25320  0.92580  0.73280  Biso   1.000  H
  C22      1.0000 0.53380  0.83800  0.53750  Biso   1.000  C
  C23      1.0000 0.89950  0.68600  0.79480  Biso   1.000  C
  C24      1.0000 0.52400  0.68200  0.65690  Biso   1.000  C
  H10      1.0000 0.57190  0.69640  0.69880  Biso   1.000  H
  C25      1.0000 0.06690  0.63160  0.83690  Biso   1.000  C
  H11      1.0000 0.14100  0.62660  0.86490  Biso   1.000  H
  C26      1.0000 0.18830  0.54600  0.78670  Biso   1.000  C
  C27      1.0000 0.60570  0.79760  0.88430  Biso   1.000  C
  H12      1.0000 0.60710  0.76820  0.85740  Biso   1.000  H
  C28      1.0000 0.56180  0.68600  0.59920  Biso   1.000  C
  C29      1.0000 0.61080  0.87980  0.96820  Biso   1.000  C
  C30      1.0000 0.84740  0.64860  0.75060  Biso   1.000  C
  H13      1.0000 0.77260  0.65270  0.72330  Biso   1.000  H
  C31      1.0000 0.70170  0.86030  0.62890  Biso   1.000  C
  H14      1.0000 0.77010  0.87770  0.64080  Biso   1.000  H
  N4       1.0000 0.37400  0.79870  0.58690  Biso   1.000  N
  C32      1.0000 0.64440  0.85600  0.55680  Biso   1.000  C
  H15      1.0000 0.67930  0.86510  0.51980  Biso   1.000  H
  C33      1.0000 0.90630  0.60180  0.74460  Biso   1.000  C
  H16      1.0000 0.87140  0.57740  0.71060  Biso   1.000  H
  C34      1.0000 0.37920  0.64600  0.53950  Biso   1.000  C
  H17      1.0000 0.32580  0.63520  0.49730  Biso   1.000  H
  C35      1.0000 0.48920  0.66610  0.53730  Biso   1.000  C
  N5       1.0000 0.66280  0.70650  0.60440  Biso   1.000  N
  N6       1.0000 0.61120  0.92690  0.00410  Biso   1.000  N
  Cd3      1.0000 0.21596  0.82999  0.20362  Biso   1.000  Cd
  Cd4      1.0000 0.61612  0.67129  0.22147  Biso   1.000  Cd
  O9       1.0000 0.78470  0.62270  0.27000  Biso   1.000  O
  O10      1.0000 0.07580  0.87610  0.24760  Biso   1.000  O
  O11      1.0000 0.65500  0.59600  0.17840  Biso   1.000  O
  C36      1.0000 0.43850  0.81920  0.33560  Biso   1.000  C
  H18      1.0000 0.46320  0.80430  0.29730  Biso   1.000  H
  O12      1.0000 0.69320  0.73000  0.16350  Biso   1.000  O
  O13      1.0000 0.14090  0.90490  0.15560  Biso   1.000  O
  O14      1.0000 0.09650  0.76700  0.15870  Biso   1.000  O
  N7       1.0000 0.33090  0.83400  0.12700  Biso   1.000  N
  N8       1.0000 0.56800  0.66190  0.32960  Biso   1.000  N
  O15      1.0000 0.63140  0.75830  0.25920  Biso   1.000  O
  O16      1.0000 0.24780  0.74210  0.23930  Biso   1.000  O
  C37      1.0000 0.46480  0.83870  0.02660  Biso   1.000  C
  C38      1.0000 0.98650  0.67640  0.15600  Biso   1.000  C
  H19      1.0000 0.95140  0.70020  0.12100  Biso   1.000  H
  N9       1.0000 0.33700  0.84030  0.31600  Biso   1.000  N
  C39      1.0000 0.74910  0.59370  0.22360  Biso   1.000  C
  C40      1.0000 0.71130  0.85490  0.24490  Biso   1.000  C
  H20      1.0000 0.66980  0.85010  0.27990  Biso   1.000  H
  C41      1.0000 0.14540  0.73500  0.19750  Biso   1.000  C
  C42      1.0000 0.07740  0.90900  0.19990  Biso   1.000  C
  C43      1.0000 0.51220  0.81610  0.40490  Biso   1.000  C
  C44      1.0000 0.98720  0.59360  0.21110  Biso   1.000  C
  C45      1.0000 0.78450  0.82490  0.14620  Biso   1.000  C
  H21      1.0000 0.78630  0.80030  0.11100  Biso   1.000  H
  C46      1.0000 0.89460  0.95550  0.19480  Biso   1.000  C
  C47      1.0000 0.92710  0.54610  0.21290  Biso   1.000  C
  C48      1.0000 0.72460  0.81630  0.19650  Biso   1.000  C
  C49      1.0000 0.00790  0.95520  0.19360  Biso   1.000  C
  C50      1.0000 0.46150  0.79770  0.06960  Biso   1.000  C
  H22      1.0000 0.50620  0.76980  0.06670  Biso   1.000  H
  C51      1.0000 0.63920  0.64440  0.39150  Biso   1.000  C
  H23      1.0000 0.70670  0.63000  0.38700  Biso   1.000  H
  C52      1.0000 0.32910  0.87550  0.08070  Biso   1.000  C
  H24      1.0000 0.28160  0.90210  0.08480  Biso   1.000  H
  C53      1.0000 0.67870  0.76610  0.20600  Biso   1.000  C
  C54      1.0000 0.83020  0.90830  0.19430  Biso   1.000  C
  C55      1.0000 0.84170  0.86800  0.14530  Biso   1.000  C
  H25      1.0000 0.88840  0.87170  0.11320  Biso   1.000  H
  C56      1.0000 0.76130  0.89920  0.23850  Biso   1.000  C
  H26      1.0000 0.74680  0.92580  0.26720  Biso   1.000  H
  C57      1.0000 0.46620  0.83800  0.46250  Biso   1.000  C
  C58      1.0000 0.10050  0.68600  0.20520  Biso   1.000  C
  C59      1.0000 0.47600  0.68200  0.34310  Biso   1.000  C
  H27      1.0000 0.42810  0.69640  0.30120  Biso   1.000  H
  C60      1.0000 0.93310  0.63160  0.16310  Biso   1.000  C
  H28      1.0000 0.85900  0.62660  0.13510  Biso   1.000  H
  C61      1.0000 0.81170  0.54600  0.21330  Biso   1.000  C
  C62      1.0000 0.39430  0.79760  0.11570  Biso   1.000  C
  H29      1.0000 0.39290  0.76820  0.14260  Biso   1.000  H
  C63      1.0000 0.43820  0.68600  0.40080  Biso   1.000  C
  C64      1.0000 0.38920  0.87980  0.03180  Biso   1.000  C
  C65      1.0000 0.15260  0.64860  0.24940  Biso   1.000  C
  H30      1.0000 0.22740  0.65270  0.27670  Biso   1.000  H
  C66      1.0000 0.29830  0.86030  0.37110  Biso   1.000  C
  H31      1.0000 0.22990  0.87770  0.35920  Biso   1.000  H
  N10      1.0000 0.62600  0.79870  0.41310  Biso   1.000  N
  C67      1.0000 0.35560  0.85600  0.44320  Biso   1.000  C
  H32      1.0000 0.32070  0.86510  0.48020  Biso   1.000  H
  C68      1.0000 0.09370  0.60180  0.25540  Biso   1.000  C
  H33      1.0000 0.12860  0.57740  0.28940  Biso   1.000  H
  C69      1.0000 0.62080  0.64600  0.46050  Biso   1.000  C
  H34      1.0000 0.67420  0.63520  0.50270  Biso   1.000  H
  C70      1.0000 0.51080  0.66610  0.46270  Biso   1.000  C
  N11      1.0000 0.33720  0.70650  0.39560  Biso   1.000  N
  N12      1.0000 0.38880  0.92690  0.99590  Biso   1.000  N
  Cd5      1.0000 0.21596  0.17001  0.20362  Biso   1.000  Cd
  Cd6      1.0000 0.61612  0.32871  0.22147  Biso   1.000  Cd
  O17      1.0000 0.78470  0.37730  0.27000  Biso   1.000  O
  O18      1.0000 0.07580  0.12390  0.24760  Biso   1.000  O
  O19      1.0000 0.65500  0.40400  0.17840  Biso   1.000  O
  C71      1.0000 0.43850  0.18080  0.33560  Biso   1.000  C
  H35      1.0000 0.46320  0.19570  0.29730  Biso   1.000  H
  O20      1.0000 0.69320  0.27000  0.16350  Biso   1.000  O
  O21      1.0000 0.14090  0.09510  0.15560  Biso   1.000  O
  O22      1.0000 0.09650  0.23300  0.15870  Biso   1.000  O
  N13      1.0000 0.33090  0.16600  0.12700  Biso   1.000  N
  N14      1.0000 0.56800  0.33810  0.32960  Biso   1.000  N
  O23      1.0000 0.63140  0.24170  0.25920  Biso   1.000  O
  O24      1.0000 0.24780  0.25790  0.23930  Biso   1.000  O
  C72      1.0000 0.46480  0.16130  0.02660  Biso   1.000  C
  C73      1.0000 0.98650  0.32360  0.15600  Biso   1.000  C
  H36      1.0000 0.95140  0.29980  0.12100  Biso   1.000  H
  N15      1.0000 0.33700  0.15970  0.31600  Biso   1.000  N
  C74      1.0000 0.74910  0.40630  0.22360  Biso   1.000  C
  C75      1.0000 0.71130  0.14510  0.24490  Biso   1.000  C
  H37      1.0000 0.66980  0.14990  0.27990  Biso   1.000  H
  C76      1.0000 0.14540  0.26500  0.19750  Biso   1.000  C
  C77      1.0000 0.07740  0.09100  0.19990  Biso   1.000  C
  C78      1.0000 0.51220  0.18390  0.40490  Biso   1.000  C
  C79      1.0000 0.98720  0.40640  0.21110  Biso   1.000  C
  C80      1.0000 0.78450  0.17510  0.14620  Biso   1.000  C
  H38      1.0000 0.78630  0.19970  0.11100  Biso   1.000  H
  C81      1.0000 0.89460  0.04450  0.19480  Biso   1.000  C
  C82      1.0000 0.92710  0.45390  0.21290  Biso   1.000  C
  C83      1.0000 0.72460  0.18370  0.19650  Biso   1.000  C
  C84      1.0000 0.00790  0.04480  0.19360  Biso   1.000  C
  C85      1.0000 0.46150  0.20230  0.06960  Biso   1.000  C
  H39      1.0000 0.50620  0.23020  0.06670  Biso   1.000  H
  C86      1.0000 0.63920  0.35560  0.39150  Biso   1.000  C
  H40      1.0000 0.70670  0.37000  0.38700  Biso   1.000  H
  C87      1.0000 0.32910  0.12450  0.08070  Biso   1.000  C
  H41      1.0000 0.28160  0.09790  0.08480  Biso   1.000  H
  C88      1.0000 0.67870  0.23390  0.20600  Biso   1.000  C
  C89      1.0000 0.83020  0.09170  0.19430  Biso   1.000  C
  C90      1.0000 0.84170  0.13200  0.14530  Biso   1.000  C
  H42      1.0000 0.88840  0.12830  0.11320  Biso   1.000  H
  C91      1.0000 0.76130  0.10080  0.23850  Biso   1.000  C
  H43      1.0000 0.74680  0.07420  0.26720  Biso   1.000  H
  C92      1.0000 0.46620  0.16200  0.46250  Biso   1.000  C
  C93      1.0000 0.10050  0.31400  0.20520  Biso   1.000  C
  C94      1.0000 0.47600  0.31800  0.34310  Biso   1.000  C
  H44      1.0000 0.42810  0.30360  0.30120  Biso   1.000  H
  C95      1.0000 0.93310  0.36840  0.16310  Biso   1.000  C
  H45      1.0000 0.85900  0.37340  0.13510  Biso   1.000  H
  C96      1.0000 0.81170  0.45400  0.21330  Biso   1.000  C
  C97      1.0000 0.39430  0.20240  0.11570  Biso   1.000  C
  H46      1.0000 0.39290  0.23180  0.14260  Biso   1.000  H
  C98      1.0000 0.43820  0.31400  0.40080  Biso   1.000  C
  C99      1.0000 0.38920  0.12020  0.03180  Biso   1.000  C
  C100     1.0000 0.15260  0.35140  0.24940  Biso   1.000  C
  H47      1.0000 0.22740  0.34730  0.27670  Biso   1.000  H
  C101     1.0000 0.29830  0.13970  0.37110  Biso   1.000  C
  H48      1.0000 0.22990  0.12230  0.35920  Biso   1.000  H
  N16      1.0000 0.62600  0.20130  0.41310  Biso   1.000  N
  C102     1.0000 0.35560  0.14400  0.44320  Biso   1.000  C
  H49      1.0000 0.32070  0.13490  0.48020  Biso   1.000  H
  C103     1.0000 0.09370  0.39820  0.25540  Biso   1.000  C
  H50      1.0000 0.12860  0.42260  0.28940  Biso   1.000  H
  C104     1.0000 0.62080  0.35400  0.46050  Biso   1.000  C
  H51      1.0000 0.67420  0.36480  0.50270  Biso   1.000  H
  C105     1.0000 0.51080  0.33390  0.46270  Biso   1.000  C
  N17      1.0000 0.33720  0.29350  0.39560  Biso   1.000  N
  N18      1.0000 0.38880  0.07310  0.99590  Biso   1.000  N
  Cd7      1.0000 0.78404  0.17001  0.79638  Biso   1.000  Cd
  Cd8      1.0000 0.38388  0.32871  0.77853  Biso   1.000  Cd
  O25      1.0000 0.21530  0.37730  0.73000  Biso   1.000  O
  O26      1.0000 0.92420  0.12390  0.75240  Biso   1.000  O
  O27      1.0000 0.34500  0.40400  0.82160  Biso   1.000  O
  C106     1.0000 0.56150  0.18080  0.66440  Biso   1.000  C
  H52      1.0000 0.53680  0.19570  0.70270  Biso   1.000  H
  O28      1.0000 0.30680  0.27000  0.83650  Biso   1.000  O
  O29      1.0000 0.85910  0.09510  0.84440  Biso   1.000  O
  O30      1.0000 0.90350  0.23300  0.84130  Biso   1.000  O
  N19      1.0000 0.66910  0.16600  0.87300  Biso   1.000  N
  N20      1.0000 0.43200  0.33810  0.67040  Biso   1.000  N
  O31      1.0000 0.36860  0.24170  0.74080  Biso   1.000  O
  O32      1.0000 0.75220  0.25790  0.76070  Biso   1.000  O
  C107     1.0000 0.53520  0.16130  0.97340  Biso   1.000  C
  C108     1.0000 0.01350  0.32360  0.84400  Biso   1.000  C
  H53      1.0000 0.04860  0.29980  0.87900  Biso   1.000  H
  N21      1.0000 0.66300  0.15970  0.68400  Biso   1.000  N
  C109     1.0000 0.25090  0.40630  0.77640  Biso   1.000  C
  C110     1.0000 0.28870  0.14510  0.75510  Biso   1.000  C
  H54      1.0000 0.33020  0.14990  0.72010  Biso   1.000  H
  C111     1.0000 0.85460  0.26500  0.80250  Biso   1.000  C
  C112     1.0000 0.92260  0.09100  0.80010  Biso   1.000  C
  C113     1.0000 0.48780  0.18390  0.59510  Biso   1.000  C
  C114     1.0000 0.01280  0.40640  0.78890  Biso   1.000  C
  C115     1.0000 0.21550  0.17510  0.85380  Biso   1.000  C
  H55      1.0000 0.21370  0.19970  0.88900  Biso   1.000  H
  C116     1.0000 0.10540  0.04450  0.80520  Biso   1.000  C
  C117     1.0000 0.07290  0.45390  0.78710  Biso   1.000  C
  C118     1.0000 0.27540  0.18370  0.80350  Biso   1.000  C
  C119     1.0000 0.99210  0.04480  0.80640  Biso   1.000  C
  C120     1.0000 0.53850  0.20230  0.93040  Biso   1.000  C
  H56      1.0000 0.49380  0.23020  0.93330  Biso   1.000  H
  C121     1.0000 0.36080  0.35560  0.60850  Biso   1.000  C
  H57      1.0000 0.29330  0.37000  0.61300  Biso   1.000  H
  C122     1.0000 0.67090  0.12450  0.91930  Biso   1.000  C
  H58      1.0000 0.71840  0.09790  0.91520  Biso   1.000  H
  C123     1.0000 0.32130  0.23390  0.79400  Biso   1.000  C
  C124     1.0000 0.16980  0.09170  0.80570  Biso   1.000  C
  C125     1.0000 0.15830  0.13200  0.85470  Biso   1.000  C
  H59      1.0000 0.11160  0.12830  0.88680  Biso   1.000  H
  C126     1.0000 0.23870  0.10080  0.76150  Biso   1.000  C
  H60      1.0000 0.25320  0.07420  0.73280  Biso   1.000  H
  C127     1.0000 0.53380  0.16200  0.53750  Biso   1.000  C
  C128     1.0000 0.89950  0.31400  0.79480  Biso   1.000  C
  C129     1.0000 0.52400  0.31800  0.65690  Biso   1.000  C
  H61      1.0000 0.57190  0.30360  0.69880  Biso   1.000  H
  C130     1.0000 0.06690  0.36840  0.83690  Biso   1.000  C
  H62      1.0000 0.14100  0.37340  0.86490  Biso   1.000  H
  C131     1.0000 0.18830  0.45400  0.78670  Biso   1.000  C
  C132     1.0000 0.60570  0.20240  0.88430  Biso   1.000  C
  H63      1.0000 0.60710  0.23180  0.85740  Biso   1.000  H
  C133     1.0000 0.56180  0.31400  0.59920  Biso   1.000  C
  C134     1.0000 0.61080  0.12020  0.96820  Biso   1.000  C
  C135     1.0000 0.84740  0.35140  0.75060  Biso   1.000  C
  H64      1.0000 0.77260  0.34730  0.72330  Biso   1.000  H
  C136     1.0000 0.70170  0.13970  0.62890  Biso   1.000  C
  H65      1.0000 0.77010  0.12230  0.64080  Biso   1.000  H
  N22      1.0000 0.37400  0.20130  0.58690  Biso   1.000  N
  C137     1.0000 0.64440  0.14400  0.55680  Biso   1.000  C
  H66      1.0000 0.67930  0.13490  0.51980  Biso   1.000  H
  C138     1.0000 0.90630  0.39820  0.74460  Biso   1.000  C
  H67      1.0000 0.87140  0.42260  0.71060  Biso   1.000  H
  C139     1.0000 0.37920  0.35400  0.53950  Biso   1.000  C
  H68      1.0000 0.32580  0.36480  0.49730  Biso   1.000  H
  C140     1.0000 0.48920  0.33390  0.53730  Biso   1.000  C
  N23      1.0000 0.66280  0.29350  0.60440  Biso   1.000  N
  N24      1.0000 0.61120  0.07310  0.00410  Biso   1.000  N
  C141     1.0000 0.93910  0.00000  0.80920  Biso   1.000  C
  H69      1.0000 0.86460  0.00000  0.81310  Biso   1.000  H
  C142     1.0000 0.16370  0.00000  0.80800  Biso   1.000  C
  H70      1.0000 0.24120  0.00000  0.81180  Biso   1.000  H
  C143     1.0000 0.06090  0.00000  0.19080  Biso   1.000  C
  H71      1.0000 0.13540  0.00000  0.18690  Biso   1.000  H
  C144     1.0000 0.83630  0.00000  0.19200  Biso   1.000  C
  H72      1.0000 0.75880  0.00000  0.18820  Biso   1.000  H
  C145     1.0000 0.02110  0.50000  0.78610  Biso   1.000  C
  H73      1.0000 0.94430  0.50000  0.78470  Biso   1.000  H
  C146     1.0000 0.24190  0.50000  0.78420  Biso   1.000  C
  H74      1.0000 0.31660  0.50000  0.78080  Biso   1.000  H
  C147     1.0000 0.97890  0.50000  0.21390  Biso   1.000  C
  H75      1.0000 0.05570  0.50000  0.21530  Biso   1.000  H
  C148     1.0000 0.75810  0.50000  0.21580  Biso   1.000  C
  H76      1.0000 0.68340  0.50000  0.21920  Biso   1.000  H
