data_image0
_cell_length_a       10.8177
_cell_length_b       19.8483
_cell_length_c       25.8687
_cell_angle_alpha    101.117
_cell_angle_beta     101.108
_cell_angle_gamma    94.827

_symmetry_space_group_name_H-M    "P 1"
_symmetry_int_tables_number       1

loop_
  _symmetry_equiv_pos_as_xyz
  'x, y, z'

loop_
  _atom_site_label
  _atom_site_occupancy
  _atom_site_fract_x
  _atom_site_fract_y
  _atom_site_fract_z
  _atom_site_thermal_displace_type
  _atom_site_B_iso_or_equiv
  _atom_site_type_symbol
  Ba1      1.0000 0.82653  0.18894  0.28947  Biso   1.000  Ba
  Ba2      1.0000 0.53567  0.29864  0.19253  Biso   1.000  Ba
  Ba3      1.0000 0.46462  0.20723  0.34293  Biso   1.000  Ba
  Ba4      1.0000 0.93015  0.36399  0.22817  Biso   1.000  Ba
  O1       1.0000 0.92330  0.21580  0.39740  Biso   1.000  O
  O2       1.0000 0.89360  0.21530  0.19370  Biso   1.000  O
  O3       1.0000 0.59790  0.82050  0.78060  Biso   1.000  O
  O4       1.0000 0.71200  0.71080  0.83910  Biso   1.000  O
  O5       1.0000 0.79150  0.06260  0.31740  Biso   1.000  O
  O6       1.0000 0.68230  0.20020  0.18150  Biso   1.000  O
  O7       1.0000 0.80820  0.04550  0.22990  Biso   1.000  O
  O8       1.0000 0.95080  0.85410  0.70880  Biso   1.000  O
  C1       1.0000 0.51400  0.86510  0.77850  Biso   1.000  C
  O9       1.0000 0.71650  0.22520  0.38090  Biso   1.000  O
  C2       1.0000 0.78500  0.18910  0.16630  Biso   1.000  C
  O10      1.0000 0.57060  0.30850  0.30090  Biso   1.000  O
  O11      1.0000 0.77130  0.32920  0.29050  Biso   1.000  O
  O12      1.0000 0.89810  0.68300  0.82480  Biso   1.000  O
  O13      1.0000 0.58860  0.44030  0.22270  Biso   1.000  O
  O14      1.0000 0.75160  0.88050  0.69850  Biso   1.000  O
  O15      1.0000 0.93600  0.70590  0.70580  Biso   1.000  O
  C3       1.0000 0.85600  0.88200  0.68670  Biso   1.000  C
  O16      1.0000 0.55360  0.30560  0.08820  Biso   1.000  O
  C4       1.0000 0.88900  0.18890  0.67670  Biso   1.000  C
  H1       1.0000 0.90770  0.21000  0.71320  Biso   1.000  H
  C5       1.0000 0.88000  0.13760  0.47670  Biso   1.000  C
  H2       1.0000 0.95520  0.13680  0.46470  Biso   1.000  H
  O17      1.0000 0.42910  0.86030  0.73760  Biso   1.000  O
  O18      1.0000 0.73880  0.33830  0.14620  Biso   1.000  O
  O19      1.0000 0.73080  0.71980  0.69120  Biso   1.000  O
  O20      1.0000 0.80090  0.47270  0.24880  Biso   1.000  O
  C6       1.0000 0.81700  0.20860  0.40880  Biso   1.000  C
  C7       1.0000 0.82700  0.69340  0.67690  Biso   1.000  C
  C8       1.0000 0.65900  0.45500  0.99720  Biso   1.000  C
  C9       1.0000 0.88100  0.67880  0.49610  Biso   1.000  C
  H3       1.0000 0.89440  0.71050  0.52880  Biso   1.000  H
  C10      1.0000 0.02500  0.77220  0.16520  Biso   1.000  C
  H4       1.0000 0.08450  0.79240  0.14960  Biso   1.000  H
  C11      1.0000 0.67500  0.45950  0.85510  Biso   1.000  C
  H5       1.0000 0.67920  0.49090  0.83290  Biso   1.000  H
  C12      1.0000 0.61600  0.93090  0.86980  Biso   1.000  C
  H6       1.0000 0.68400  0.90570  0.86620  Biso   1.000  H
  C13      1.0000 0.62800  0.98230  0.92090  Biso   1.000  C
  C14      1.0000 0.80200  0.67340  0.84390  Biso   1.000  C
  C15      1.0000 0.66600  0.52790  0.01930  Biso   1.000  C
  C16      1.0000 0.83400  0.00980  0.58990  Biso   1.000  C
  C17      1.0000 0.77700  0.14100  0.11250  Biso   1.000  C
  H7       1.0000 0.84990  0.12390  0.10470  Biso   1.000  H
  C18      1.0000 0.66300  0.34010  0.10320  Biso   1.000  C
  C19      1.0000 0.68800  0.57790  0.98840  Biso   1.000  C
  C20      1.0000 0.84400  0.02370  0.49740  Biso   1.000  C
  C21      1.0000 0.70800  0.97690  0.06930  Biso   1.000  C
  H8       1.0000 0.72150  0.00600  0.10310  Biso   1.000  H
  C22      1.0000 0.89600  0.22680  0.64380  Biso   1.000  C
  H9       1.0000 0.90590  0.27460  0.65600  Biso   1.000  H
  C23      1.0000 0.70400  0.61010  0.90370  Biso   1.000  C
  H10      1.0000 0.64750  0.64260  0.90560  Biso   1.000  H
  C24      1.0000 0.86300  0.09500  0.51490  Biso   1.000  C
  C25      1.0000 0.78700  0.87950  0.46050  Biso   1.000  C
  H11      1.0000 0.76680  0.83200  0.44780  Biso   1.000  H
  C26      1.0000 0.61800  0.09680  0.97650  Biso   1.000  C
  C27      1.0000 0.79800  0.02510  0.27260  Biso   1.000  C
  C28      1.0000 0.67200  0.79330  0.25470  Biso   1.000  C
  C29      1.0000 0.68200  0.33900  0.31690  Biso   1.000  C
  C30      1.0000 0.69300  0.48430  0.23470  Biso   1.000  C
  C31      1.0000 0.94300  0.80920  0.18490  Biso   1.000  C
  H12      1.0000 0.94460  0.85510  0.18160  Biso   1.000  H
  C32      1.0000 0.52100  0.91880  0.83070  Biso   1.000  C
  H13      1.0000 0.45230  0.94340  0.83380  Biso   1.000  H
  C33      1.0000 0.60800  0.05070  0.92390  Biso   1.000  C
  C34      1.0000 0.67800  0.48410  0.91090  Biso   1.000  C
  C35      1.0000 0.79800  0.17790  0.45680  Biso   1.000  C
  H14      1.0000 0.72910  0.18740  0.47250  Biso   1.000  H
  C36      1.0000 0.85200  0.65440  0.39920  Biso   1.000  C
  H15      1.0000 0.84640  0.67130  0.36780  Biso   1.000  H
  C37      1.0000 0.85000  0.71110  0.21460  Biso   1.000  C
  C38      1.0000 0.79900  0.94960  0.27260  Biso   1.000  C
  H16      1.0000 0.82290  0.93730  0.30570  Biso   1.000  H
  C39      1.0000 0.85300  0.48290  0.58810  Biso   1.000  C
  H17      1.0000 0.86550  0.51340  0.62130  Biso   1.000  H
  C40      1.0000 0.70400  0.86440  0.01480  Biso   1.000  C
  H18      1.0000 0.71440  0.81800  0.01300  Biso   1.000  H
  C41      1.0000 0.71800  0.90860  0.06470  Biso   1.000  C
  H19      1.0000 0.73390  0.89080  0.09570  Biso   1.000  H
  C42      1.0000 0.76700  0.89850  0.22840  Biso   1.000  C
  H20      1.0000 0.74540  0.90970  0.19480  Biso   1.000  H
  C43      1.0000 0.63200  0.40310  0.02730  Biso   1.000  C
  H21      1.0000 0.55770  0.37270  0.01310  Biso   1.000  H
  C44      1.0000 0.67600  0.88760  0.96940  Biso   1.000  C
  H22      1.0000 0.66740  0.85660  0.93660  Biso   1.000  H
  C45      1.0000 0.76300  0.68200  0.24050  Biso   1.000  C
  C46      1.0000 0.48700  0.80010  0.29580  Biso   1.000  C
  H23      1.0000 0.42300  0.82480  0.30620  Biso   1.000  H
  C47      1.0000 0.79200  0.61680  0.87250  Biso   1.000  C
  H24      1.0000 0.84780  0.58380  0.86930  Biso   1.000  H
  C48      1.0000 0.65100  0.55250  0.07500  Biso   1.000  C
  H25      1.0000 0.63560  0.52040  0.09560  Biso   1.000  H
  C49      1.0000 0.86500  0.60580  0.49540  Biso   1.000  C
  C50      1.0000 0.82400  0.98070  0.53450  Biso   1.000  C
  C51      1.0000 0.57700  0.08020  0.87650  Biso   1.000  C
  H26      1.0000 0.57300  0.05230  0.84280  Biso   1.000  H
  C52      1.0000 0.79900  0.64770  0.62190  Biso   1.000  C
  H27      1.0000 0.71500  0.63090  0.60570  Biso   1.000  H
  C53      1.0000 0.66900  0.43570  0.94330  Biso   1.000  C
  C54      1.0000 0.70500  0.65090  0.01460  Biso   1.000  C
  H28      1.0000 0.72540  0.68430  0.99580  Biso   1.000  H
  C55      1.0000 0.85300  0.08360  0.60880  Biso   1.000  C
  C56      1.0000 0.66000  0.95700  0.96940  Biso   1.000  C
  C57      1.0000 0.87700  0.70210  0.44980  Biso   1.000  C
  H29      1.0000 0.89050  0.74940  0.45120  Biso   1.000  H
  C58      1.0000 0.76500  0.60830  0.24560  Biso   1.000  C
  H30      1.0000 0.84260  0.59710  0.26240  Biso   1.000  H
  C59      1.0000 0.65600  0.07250  0.02300  Biso   1.000  C
  C60      1.0000 0.85100  0.78290  0.21090  Biso   1.000  C
  C61      1.0000 0.83200  0.99060  0.44080  Biso   1.000  C
  H31      1.0000 0.84160  0.01760  0.41580  Biso   1.000  H
  C62      1.0000 0.02100  0.70000  0.16800  Biso   1.000  C
  H32      1.0000 0.07390  0.67230  0.15150  Biso   1.000  H
  C63      1.0000 0.81900  0.38950  0.48880  Biso   1.000  C
  H33      1.0000 0.81270  0.35770  0.45660  Biso   1.000  H
  C64      1.0000 0.86400  0.12560  0.56830  Biso   1.000  C
  C65      1.0000 0.76500  0.82350  0.23160  Biso   1.000  C
  C66      1.0000 0.66600  0.38870  0.83340  Biso   1.000  C
  H34      1.0000 0.66220  0.37320  0.79670  Biso   1.000  H
  C67      1.0000 0.88300  0.92250  0.64460  Biso   1.000  C
  H35      1.0000 0.95080  0.91310  0.62830  Biso   1.000  H
  C68      1.0000 0.86500  0.58140  0.54280  Biso   1.000  C
  C69      1.0000 0.80700  0.92210  0.42490  Biso   1.000  C
  H36      1.0000 0.80350  0.90190  0.38900  Biso   1.000  H
  C70      1.0000 0.94100  0.67370  0.19500  Biso   1.000  C
  H37      1.0000 0.94610  0.62910  0.20070  Biso   1.000  H
  C71      1.0000 0.84900  0.50780  0.54040  Biso   1.000  C
  C72      1.0000 0.67700  0.00400  0.02150  Biso   1.000  C
  C73      1.0000 0.67100  0.72180  0.25970  Biso   1.000  C
  C74      1.0000 0.85600  0.11630  0.66280  Biso   1.000  C
  H38      1.0000 0.83760  0.09140  0.68780  Biso   1.000  H
  C75      1.0000 0.66100  0.62010  0.09640  Biso   1.000  C
  H39      1.0000 0.64780  0.63440  0.13110  Biso   1.000  H
  C76      1.0000 0.66900  0.12200  0.07570  Biso   1.000  C
  H40      1.0000 0.59640  0.14060  0.08330  Biso   1.000  H
  C77      1.0000 0.81600  0.96830  0.63110  Biso   1.000  C
  H41      1.0000 0.75010  0.97700  0.64860  Biso   1.000  H
  C78      1.0000 0.84100  0.55740  0.44320  Biso   1.000  C
  C79      1.0000 0.67100  0.55760  0.22920  Biso   1.000  C
  H42      1.0000 0.59060  0.56660  0.21410  Biso   1.000  H
  C80      1.0000 0.69100  0.67080  0.06650  Biso   1.000  C
  H43      1.0000 0.70090  0.71770  0.08260  Biso   1.000  H
  C81      1.0000 0.58800  0.16680  0.97710  Biso   1.000  C
  H44      1.0000 0.59020  0.19640  0.01000  Biso   1.000  H
  C82      1.0000 0.69400  0.55620  0.93380  Biso   1.000  C
  C83      1.0000 0.82500  0.48730  0.44110  Biso   1.000  C
  C84      1.0000 0.57600  0.83030  0.27240  Biso   1.000  C
  H45      1.0000 0.57290  0.87570  0.26820  Biso   1.000  H
  C85      1.0000 0.82900  0.46140  0.48830  Biso   1.000  C
  C86      1.0000 0.55400  0.14580  0.87950  Biso   1.000  C
  H46      1.0000 0.53620  0.16280  0.84810  Biso   1.000  H
  C87      1.0000 0.83500  0.58430  0.39550  Biso   1.000  C
  H47      1.0000 0.82090  0.55420  0.36200  Biso   1.000  H
  C88      1.0000 0.84000  0.41410  0.58460  Biso   1.000  C
  H48      1.0000 0.84340  0.39740  0.61600  Biso   1.000  H
  C89      1.0000 0.79600  0.90780  0.51430  Biso   1.000  C
  H49      1.0000 0.78440  0.87900  0.53780  Biso   1.000  H
  C90      1.0000 0.55700  0.19010  0.93040  Biso   1.000  C
  H50      1.0000 0.53700  0.23510  0.93180  Biso   1.000  H
  C91      1.0000 0.89000  0.62950  0.59440  Biso   1.000  C
  H51      1.0000 0.97380  0.64910  0.60970  Biso   1.000  H
  C92      1.0000 0.49200  0.73240  0.30380  Biso   1.000  C
  H52      1.0000 0.43270  0.71210  0.31960  Biso   1.000  H
  C93      1.0000 0.70900  0.38790  0.36930  Biso   1.000  C
  H53      1.0000 0.65240  0.38360  0.39150  Biso   1.000  H
  C94      1.0000 0.58700  0.69620  0.28800  Biso   1.000  C
  H54      1.0000 0.59450  0.65320  0.29660  Biso   1.000  H
  C95      1.0000 0.80700  0.43780  0.38870  Biso   1.000  C
  H55      1.0000 0.86760  0.44180  0.36800  Biso   1.000  H
  C96      1.0000 0.82000  0.36610  0.53440  Biso   1.000  C
  H56      1.0000 0.80720  0.31880  0.53300  Biso   1.000  H
  C97      1.0000 0.70300  0.39440  0.07330  Biso   1.000  C
  H57      1.0000 0.77920  0.42270  0.08780  Biso   1.000  H
  C98      1.0000 0.89000  0.20040  0.59030  Biso   1.000  C
  H58      1.0000 0.90170  0.23020  0.56760  Biso   1.000  H
  C99      1.0000 0.66700  0.36250  0.91950  Biso   1.000  C
  H59      1.0000 0.66860  0.33020  0.94120  Biso   1.000  H
  C100     1.0000 0.66400  0.34120  0.86660  Biso   1.000  C
  H60      1.0000 0.66000  0.29430  0.85200  Biso   1.000  H
  Ba5      1.0000 0.14841  0.19282  0.21056  Biso   1.000  Ba
  Ba6      1.0000 0.17347  0.81106  0.71053  Biso   1.000  Ba
  Ba7      1.0000 0.46433  0.70136  0.80747  Biso   1.000  Ba
  Ba8      1.0000 0.53538  0.79277  0.65707  Biso   1.000  Ba
  Ba9      1.0000 0.06985  0.63601  0.77183  Biso   1.000  Ba
  O21      1.0000 0.07670  0.78420  0.60260  Biso   1.000  O
  O22      1.0000 0.10640  0.78470  0.80630  Biso   1.000  O
  O23      1.0000 0.40210  0.17950  0.21940  Biso   1.000  O
  O24      1.0000 0.28800  0.28920  0.16090  Biso   1.000  O
  O25      1.0000 0.20850  0.93740  0.68260  Biso   1.000  O
  O26      1.0000 0.31770  0.79980  0.81850  Biso   1.000  O
  O27      1.0000 0.19180  0.95450  0.77010  Biso   1.000  O
  O28      1.0000 0.04920  0.14590  0.29120  Biso   1.000  O
  C101     1.0000 0.48600  0.13490  0.22150  Biso   1.000  C
  O29      1.0000 0.28350  0.77480  0.61910  Biso   1.000  O
  C102     1.0000 0.21500  0.81090  0.83370  Biso   1.000  C
  O30      1.0000 0.42940  0.69150  0.69910  Biso   1.000  O
  O31      1.0000 0.22870  0.67080  0.70950  Biso   1.000  O
  O32      1.0000 0.10190  0.31700  0.17520  Biso   1.000  O
  O33      1.0000 0.41140  0.55970  0.77730  Biso   1.000  O
  O34      1.0000 0.24840  0.11950  0.30150  Biso   1.000  O
  O35      1.0000 0.06400  0.29410  0.29420  Biso   1.000  O
  C103     1.0000 0.14400  0.11800  0.31330  Biso   1.000  C
  O36      1.0000 0.44640  0.69440  0.91180  Biso   1.000  O
  C104     1.0000 0.11100  0.81110  0.32330  Biso   1.000  C
  H61      1.0000 0.09230  0.79000  0.28680  Biso   1.000  H
  C105     1.0000 0.12000  0.86240  0.52330  Biso   1.000  C
  H62      1.0000 0.04480  0.86320  0.53530  Biso   1.000  H
  O37      1.0000 0.57090  0.13970  0.26240  Biso   1.000  O
  O38      1.0000 0.26120  0.66170  0.85380  Biso   1.000  O
  O39      1.0000 0.26920  0.28020  0.30880  Biso   1.000  O
  O40      1.0000 0.19910  0.52730  0.75120  Biso   1.000  O
  C106     1.0000 0.18300  0.79140  0.59120  Biso   1.000  C
  C107     1.0000 0.17300  0.30660  0.32310  Biso   1.000  C
  C108     1.0000 0.34100  0.54500  0.00280  Biso   1.000  C
  C109     1.0000 0.11900  0.32120  0.50390  Biso   1.000  C
  H63      1.0000 0.10560  0.28950  0.47120  Biso   1.000  H
  C110     1.0000 0.97500  0.22780  0.83480  Biso   1.000  C
  H64      1.0000 0.91550  0.20760  0.85040  Biso   1.000  H
  C111     1.0000 0.32500  0.54050  0.14490  Biso   1.000  C
  H65      1.0000 0.32080  0.50910  0.16710  Biso   1.000  H
  C112     1.0000 0.38400  0.06910  0.13020  Biso   1.000  C
  H66      1.0000 0.31600  0.09430  0.13380  Biso   1.000  H
  C113     1.0000 0.37200  0.01770  0.07910  Biso   1.000  C
  C114     1.0000 0.19800  0.32660  0.15610  Biso   1.000  C
  C115     1.0000 0.33400  0.47210  0.98070  Biso   1.000  C
  C116     1.0000 0.16600  0.99020  0.41010  Biso   1.000  C
  C117     1.0000 0.22300  0.85900  0.88750  Biso   1.000  C
  H67      1.0000 0.15010  0.87610  0.89530  Biso   1.000  H
  C118     1.0000 0.33700  0.65990  0.89680  Biso   1.000  C
  C119     1.0000 0.31200  0.42210  0.01160  Biso   1.000  C
  C120     1.0000 0.15600  0.97630  0.50260  Biso   1.000  C
  C121     1.0000 0.29200  0.02310  0.93070  Biso   1.000  C
  H68      1.0000 0.27850  0.99400  0.89690  Biso   1.000  H
  C122     1.0000 0.10400  0.77320  0.35620  Biso   1.000  C
  H69      1.0000 0.09410  0.72540  0.34400  Biso   1.000  H
  C123     1.0000 0.29600  0.38990  0.09630  Biso   1.000  C
  H70      1.0000 0.35250  0.35740  0.09440  Biso   1.000  H
  C124     1.0000 0.13700  0.90500  0.48510  Biso   1.000  C
  C125     1.0000 0.21300  0.12050  0.53950  Biso   1.000  C
  H71      1.0000 0.23320  0.16800  0.55220  Biso   1.000  H
  C126     1.0000 0.38200  0.90320  0.02350  Biso   1.000  C
  C127     1.0000 0.20200  0.97490  0.72740  Biso   1.000  C
  C128     1.0000 0.32800  0.20670  0.74530  Biso   1.000  C
  C129     1.0000 0.31800  0.66100  0.68310  Biso   1.000  C
  C130     1.0000 0.30700  0.51570  0.76530  Biso   1.000  C
  C131     1.0000 0.05700  0.19080  0.81510  Biso   1.000  C
  H72      1.0000 0.05540  0.14490  0.81840  Biso   1.000  H
  C132     1.0000 0.47900  0.08120  0.16930  Biso   1.000  C
  H73      1.0000 0.54770  0.05660  0.16620  Biso   1.000  H
  C133     1.0000 0.39200  0.94930  0.07610  Biso   1.000  C
  C134     1.0000 0.32200  0.51590  0.08910  Biso   1.000  C
  C135     1.0000 0.20200  0.82210  0.54320  Biso   1.000  C
  H74      1.0000 0.27090  0.81260  0.52750  Biso   1.000  H
  C136     1.0000 0.14800  0.34560  0.60080  Biso   1.000  C
  H75      1.0000 0.15360  0.32870  0.63220  Biso   1.000  H
  C137     1.0000 0.15000  0.28890  0.78540  Biso   1.000  C
  C138     1.0000 0.20100  0.05040  0.72740  Biso   1.000  C
  H76      1.0000 0.17710  0.06270  0.69430  Biso   1.000  H
  C139     1.0000 0.14700  0.51710  0.41190  Biso   1.000  C
  H77      1.0000 0.13450  0.48660  0.37870  Biso   1.000  H
  C140     1.0000 0.29600  0.13560  0.98520  Biso   1.000  C
  H78      1.0000 0.28560  0.18200  0.98700  Biso   1.000  H
  C141     1.0000 0.28200  0.09140  0.93530  Biso   1.000  C
  H79      1.0000 0.26610  0.10920  0.90430  Biso   1.000  H
  C142     1.0000 0.23300  0.10150  0.77160  Biso   1.000  C
  H80      1.0000 0.25460  0.09030  0.80520  Biso   1.000  H
  C143     1.0000 0.36800  0.59690  0.97270  Biso   1.000  C
  H81      1.0000 0.44230  0.62730  0.98690  Biso   1.000  H
  C144     1.0000 0.32400  0.11240  0.03060  Biso   1.000  C
  H82      1.0000 0.33260  0.14340  0.06340  Biso   1.000  H
  C145     1.0000 0.23700  0.31800  0.75950  Biso   1.000  C
  C146     1.0000 0.51300  0.19990  0.70420  Biso   1.000  C
  H83      1.0000 0.57700  0.17520  0.69380  Biso   1.000  H
  C147     1.0000 0.20800  0.38320  0.12750  Biso   1.000  C
  H84      1.0000 0.15220  0.41620  0.13070  Biso   1.000  H
  C148     1.0000 0.34900  0.44750  0.92500  Biso   1.000  C
  H85      1.0000 0.36440  0.47960  0.90440  Biso   1.000  H
  C149     1.0000 0.13500  0.39420  0.50460  Biso   1.000  C
  C150     1.0000 0.17600  0.01930  0.46550  Biso   1.000  C
  C151     1.0000 0.42300  0.91980  0.12350  Biso   1.000  C
  H86      1.0000 0.42700  0.94770  0.15720  Biso   1.000  H
  C152     1.0000 0.20100  0.35230  0.37810  Biso   1.000  C
  H87      1.0000 0.28500  0.36910  0.39430  Biso   1.000  H
  C153     1.0000 0.33100  0.56430  0.05670  Biso   1.000  C
  C154     1.0000 0.29500  0.34910  0.98540  Biso   1.000  C
  H88      1.0000 0.27460  0.31570  0.00420  Biso   1.000  H
  C155     1.0000 0.14700  0.91640  0.39120  Biso   1.000  C
  C156     1.0000 0.34000  0.04300  0.03060  Biso   1.000  C
  C157     1.0000 0.12300  0.29790  0.55020  Biso   1.000  C
  H89      1.0000 0.10950  0.25060  0.54880  Biso   1.000  H
  C158     1.0000 0.23500  0.39170  0.75440  Biso   1.000  C
  H90      1.0000 0.15740  0.40290  0.73760  Biso   1.000  H
  C159     1.0000 0.34400  0.92750  0.97700  Biso   1.000  C
  C160     1.0000 0.14900  0.21710  0.78910  Biso   1.000  C
  C161     1.0000 0.16800  0.00940  0.55920  Biso   1.000  C
  H91      1.0000 0.15840  0.98240  0.58420  Biso   1.000  H
  C162     1.0000 0.97900  0.30000  0.83200  Biso   1.000  C
  H92      1.0000 0.92610  0.32770  0.84850  Biso   1.000  H
  C163     1.0000 0.18100  0.61050  0.51120  Biso   1.000  C
  H93      1.0000 0.18730  0.64230  0.54340  Biso   1.000  H
  C164     1.0000 0.13600  0.87440  0.43170  Biso   1.000  C
  C165     1.0000 0.23500  0.17650  0.76840  Biso   1.000  C
  C166     1.0000 0.33400  0.61130  0.16660  Biso   1.000  C
  H94      1.0000 0.33780  0.62680  0.20330  Biso   1.000  H
  C167     1.0000 0.11700  0.07750  0.35540  Biso   1.000  C
  H95      1.0000 0.04920  0.08690  0.37170  Biso   1.000  H
  C168     1.0000 0.13500  0.41860  0.45720  Biso   1.000  C
  C169     1.0000 0.19300  0.07790  0.57510  Biso   1.000  C
  H96      1.0000 0.19650  0.09810  0.61100  Biso   1.000  H
  C170     1.0000 0.05900  0.32630  0.80500  Biso   1.000  C
  H97      1.0000 0.05390  0.37090  0.79930  Biso   1.000  H
  C171     1.0000 0.15100  0.49220  0.45960  Biso   1.000  C
  C172     1.0000 0.32300  0.99600  0.97850  Biso   1.000  C
  C173     1.0000 0.32900  0.27820  0.74030  Biso   1.000  C
  C174     1.0000 0.14400  0.88370  0.33720  Biso   1.000  C
  H98      1.0000 0.16240  0.90860  0.31220  Biso   1.000  H
  C175     1.0000 0.33900  0.37990  0.90360  Biso   1.000  C
  H99      1.0000 0.35220  0.36560  0.86890  Biso   1.000  H
  C176     1.0000 0.33100  0.87800  0.92430  Biso   1.000  C
  H100     1.0000 0.40360  0.85940  0.91670  Biso   1.000  H
  C177     1.0000 0.18400  0.03170  0.36890  Biso   1.000  C
  H101     1.0000 0.24990  0.02300  0.35140  Biso   1.000  H
  C178     1.0000 0.15900  0.44260  0.55680  Biso   1.000  C
  C179     1.0000 0.32900  0.44240  0.77080  Biso   1.000  C
  H102     1.0000 0.40940  0.43340  0.78590  Biso   1.000  H
  C180     1.0000 0.30900  0.32920  0.93350  Biso   1.000  C
  H103     1.0000 0.29910  0.28230  0.91740  Biso   1.000  H
  C181     1.0000 0.41200  0.83320  0.02290  Biso   1.000  C
  H104     1.0000 0.40980  0.80360  0.99000  Biso   1.000  H
  C182     1.0000 0.30600  0.44380  0.06620  Biso   1.000  C
  C183     1.0000 0.17500  0.51270  0.55890  Biso   1.000  C
  C184     1.0000 0.42400  0.16970  0.72760  Biso   1.000  C
  H105     1.0000 0.42710  0.12430  0.73180  Biso   1.000  H
  C185     1.0000 0.17100  0.53860  0.51170  Biso   1.000  C
  C186     1.0000 0.44600  0.85420  0.12050  Biso   1.000  C
  H106     1.0000 0.46380  0.83720  0.15190  Biso   1.000  H
  C187     1.0000 0.16500  0.41570  0.60450  Biso   1.000  C
  H107     1.0000 0.17910  0.44580  0.63800  Biso   1.000  H
  C188     1.0000 0.16000  0.58590  0.41540  Biso   1.000  C
  H108     1.0000 0.15660  0.60260  0.38400  Biso   1.000  H
  C189     1.0000 0.20400  0.09220  0.48570  Biso   1.000  C
  H109     1.0000 0.21560  0.12100  0.46220  Biso   1.000  H
  C190     1.0000 0.44300  0.80990  0.06960  Biso   1.000  C
  H110     1.0000 0.46300  0.76490  0.06820  Biso   1.000  H
  C191     1.0000 0.11000  0.37050  0.40560  Biso   1.000  C
  H111     1.0000 0.02620  0.35090  0.39030  Biso   1.000  H
  C192     1.0000 0.50800  0.26760  0.69620  Biso   1.000  C
  H112     1.0000 0.56730  0.28790  0.68040  Biso   1.000  H
  C193     1.0000 0.29100  0.61210  0.63070  Biso   1.000  C
  H113     1.0000 0.34760  0.61640  0.60850  Biso   1.000  H
  C194     1.0000 0.41300  0.30380  0.71200  Biso   1.000  C
  H114     1.0000 0.40550  0.34680  0.70340  Biso   1.000  H
  C195     1.0000 0.19300  0.56220  0.61130  Biso   1.000  C
  H115     1.0000 0.13240  0.55820  0.63200  Biso   1.000  H
  C196     1.0000 0.18000  0.63390  0.46560  Biso   1.000  C
  H116     1.0000 0.19280  0.68120  0.46700  Biso   1.000  H
  C197     1.0000 0.29700  0.60560  0.92670  Biso   1.000  C
  H117     1.0000 0.22080  0.57730  0.91220  Biso   1.000  H
  C198     1.0000 0.11000  0.79960  0.40970  Biso   1.000  C
  H118     1.0000 0.09830  0.76980  0.43240  Biso   1.000  H
  C199     1.0000 0.33300  0.63750  0.08050  Biso   1.000  C
  H119     1.0000 0.33140  0.66980  0.05880  Biso   1.000  H
  C200     1.0000 0.33600  0.65880  0.13340  Biso   1.000  C
  H120     1.0000 0.34000  0.70570  0.14800  Biso   1.000  H
  Ba10     1.0000 0.85159  0.80718  0.78944  Biso   1.000  Ba
