data_LAJDUV01_charged
_audit_creation_date              2014-07-02
_audit_creation_method            'Materials Studio'
_symmetry_space_group_name_H-M    'P1'
_symmetry_Int_Tables_number       1
_symmetry_cell_setting            triclinic
loop_
_symmetry_equiv_pos_as_xyz
  x,y,z
_cell_length_a                    8.9390
_cell_length_b                    8.9390
_cell_length_c                    10.8930
_cell_angle_alpha                 90.0000
_cell_angle_beta                  90.0000
_cell_angle_gamma                 120.0000
loop_
_atom_site_label
_atom_site_type_symbol
_atom_site_fract_x
_atom_site_fract_y
_atom_site_fract_z
_atom_site_U_iso_or_equiv
_atom_site_adp_type
_atom_site_occupancy
Ti1    Ti    0.00000   0.50000   0.16667   0.01267  Uiso   1.00
Ti2    Ti    0.50000  -0.00000   0.83333   0.01267  Uiso   1.00
Ti3    Ti    0.50000   0.50000   0.50000   0.01267  Uiso   1.00
C1     C     0.30825   0.61650   0.33333   0.01267  Uiso   1.00
C2     C     0.21049   0.42098   0.33333   0.01267  Uiso   1.00
C3     C     0.30825   0.69175   0.00000   0.01267  Uiso   1.00
C4     C     0.21049   0.78951   0.00000   0.01267  Uiso   1.00
C5     C     0.38350   0.69175   0.66667   0.01267  Uiso   1.00
C6     C     0.57902   0.78951   0.66667   0.01267  Uiso   1.00
C7     C     0.69175   0.38350   0.33333   0.01267  Uiso   1.00
C8     C     0.78951   0.57902   0.33333   0.01267  Uiso   1.00
C9     C     0.69175   0.30825   0.00000   0.01267  Uiso   1.00
C10    C     0.78951   0.21049   0.00000   0.01267  Uiso   1.00
C11    C     0.61650   0.30825   0.66667   0.01267  Uiso   1.00
C12    C     0.42098   0.21049   0.66667   0.01267  Uiso   1.00
O1     O     0.23704   0.68604   0.27635   0.01267  Uiso   1.00
O2     O     0.07611   0.34860   0.27013   0.01267  Uiso   1.00
O3     O     0.44900   0.76296   0.94302   0.01267  Uiso   1.00
O4     O     0.27249   0.92389   0.93680   0.01267  Uiso   1.00
O5     O     0.31396   0.55100   0.60968   0.01267  Uiso   1.00
O6     O     0.65140   0.72751   0.60346   0.01267  Uiso   1.00
O7     O     0.76296   0.31396   0.27635   0.01267  Uiso   1.00
O8     O     0.92389   0.65140   0.27013   0.01267  Uiso   1.00
O9     O     0.55100   0.23704   0.94302   0.01267  Uiso   1.00
O10    O     0.72751   0.07611   0.93680   0.01267  Uiso   1.00
O11    O     0.68604   0.44900   0.60968   0.01267  Uiso   1.00
O12    O     0.34860   0.27249   0.60346   0.01267  Uiso   1.00
O13    O     0.55100   0.31396   0.39032   0.01267  Uiso   1.00
O14    O     0.72751   0.65140   0.39654   0.01267  Uiso   1.00
O15    O     0.68604   0.23704   0.72365   0.01267  Uiso   1.00
O16    O     0.34860   0.07611   0.72987   0.01267  Uiso   1.00
O17    O     0.76296   0.44900   0.05698   0.01267  Uiso   1.00
O18    O     0.92389   0.27249   0.06320   0.01267  Uiso   1.00
O19    O     0.44900   0.68604   0.39032   0.01267  Uiso   1.00
O20    O     0.27249   0.34860   0.39654   0.01267  Uiso   1.00
O21    O     0.31396   0.76296   0.72365   0.01267  Uiso   1.00
O22    O     0.65140   0.92389   0.72987   0.01267  Uiso   1.00
O23    O     0.23704   0.55100   0.05698   0.01267  Uiso   1.00
O24    O     0.07611   0.72751   0.06320   0.01267  Uiso   1.00
H1     H     0.89568   0.91131   0.88379   0.01267  Uiso   1.00
H2     H     0.10432   0.08869   0.88379   0.01267  Uiso   1.00
H3     H     0.98437   0.08869   0.78288   0.01267  Uiso   1.00
H4     H     0.01563   0.91131   0.78288   0.01267  Uiso   1.00
N1     N     0.00000   0.00000   0.83333   0.01267  Uiso   1.00
H5     H     0.01563   0.10432   0.55046   0.01267  Uiso   1.00
H6     H     0.98437   0.89568   0.55046   0.01267  Uiso   1.00
H7     H     0.10432   0.01563   0.44954   0.01267  Uiso   1.00
H8     H     0.89568   0.98437   0.44954   0.01267  Uiso   1.00
N2     N     0.00000   0.00000   0.50000   0.01267  Uiso   1.00
H9     H     0.08869   0.98437   0.21712   0.01267  Uiso   1.00
H10    H     0.91131   0.01563   0.21712   0.01267  Uiso   1.00
H11    H     0.91131   0.89568   0.11621   0.01267  Uiso   1.00
H12    H     0.08869   0.10432   0.11621   0.01267  Uiso   1.00
N3     N     0.00000   0.00000   0.16667   0.01267  Uiso   1.00
