data_LAJDUV03_charged
_audit_creation_date              2014-07-02
_audit_creation_method            'Materials Studio'
_symmetry_space_group_name_H-M    'P1'
_symmetry_Int_Tables_number       1
_symmetry_cell_setting            triclinic
loop_
_symmetry_equiv_pos_as_xyz
  x,y,z
_cell_length_a                    8.9470
_cell_length_b                    8.9470
_cell_length_c                    10.8980
_cell_angle_alpha                 90.0000
_cell_angle_beta                  90.0000
_cell_angle_gamma                 120.0000
loop_
_atom_site_label
_atom_site_type_symbol
_atom_site_fract_x
_atom_site_fract_y
_atom_site_fract_z
_atom_site_U_iso_or_equiv
_atom_site_adp_type
_atom_site_occupancy
Ti1    Ti    0.00000   0.50000   0.16667   0.01267  Uiso   1.00
Ti2    Ti    0.50000   0.00000   0.83333   0.01267  Uiso   1.00
Ti3    Ti    0.50000   0.50000   0.50000   0.01267  Uiso   1.00
C1     C     0.30847   0.61694   0.33333   0.01267  Uiso   1.00
C2     C     0.21052   0.42104   0.33333   0.01267  Uiso   1.00
C3     C     0.30847   0.69153   0.00000   0.01267  Uiso   1.00
C4     C     0.21052   0.78948   0.00000   0.01267  Uiso   1.00
C5     C     0.38306   0.69153   0.66667   0.01267  Uiso   1.00
C6     C     0.57896   0.78948   0.66667   0.01267  Uiso   1.00
C7     C     0.69153   0.38306   0.33333   0.01267  Uiso   1.00
C8     C     0.78948   0.57896   0.33333   0.01267  Uiso   1.00
C9     C     0.69153   0.30847   0.00000   0.01267  Uiso   1.00
C10    C     0.78948   0.21052   0.00000   0.01267  Uiso   1.00
C11    C     0.61694   0.30847   0.66667   0.01267  Uiso   1.00
C12    C     0.42104   0.21052   0.66667   0.01267  Uiso   1.00
O1     O     0.23710   0.68600   0.27629   0.01267  Uiso   1.00
O2     O     0.07610   0.34850   0.26999   0.01267  Uiso   1.00
O3     O     0.44890   0.76290   0.94296   0.01267  Uiso   1.00
O4     O     0.27240   0.92390   0.93666   0.01267  Uiso   1.00
O5     O     0.31400   0.55110   0.60962   0.01267  Uiso   1.00
O6     O     0.65150   0.72760   0.60332   0.01267  Uiso   1.00
O7     O     0.76290   0.31400   0.27629   0.01267  Uiso   1.00
O8     O     0.92390   0.65150   0.26999   0.01267  Uiso   1.00
O9     O     0.55110   0.23710   0.94296   0.01267  Uiso   1.00
O10    O     0.72760   0.07610   0.93666   0.01267  Uiso   1.00
O11    O     0.68600   0.44890   0.60962   0.01267  Uiso   1.00
O12    O     0.34850   0.27240   0.60332   0.01267  Uiso   1.00
O13    O     0.55110   0.31400   0.39038   0.01267  Uiso   1.00
O14    O     0.72760   0.65150   0.39668   0.01267  Uiso   1.00
O15    O     0.68600   0.23710   0.72371   0.01267  Uiso   1.00
O16    O     0.34850   0.07610   0.73001   0.01267  Uiso   1.00
O17    O     0.76290   0.44890   0.05704   0.01267  Uiso   1.00
O18    O     0.92390   0.27240   0.06334   0.01267  Uiso   1.00
O19    O     0.44890   0.68600   0.39038   0.01267  Uiso   1.00
O20    O     0.27240   0.34850   0.39668   0.01267  Uiso   1.00
O21    O     0.31400   0.76290   0.72371   0.01267  Uiso   1.00
O22    O     0.65150   0.92390   0.73001   0.01267  Uiso   1.00
O23    O     0.23710   0.55110   0.05704   0.01267  Uiso   1.00
O24    O     0.07610   0.72760   0.06334   0.01267  Uiso   1.00
H1     H     0.89529   0.91030   0.88284   0.01267  Uiso   1.00
H2     H     0.10471   0.08970   0.88284   0.01267  Uiso   1.00
H3     H     0.98499   0.08970   0.78383   0.01267  Uiso   1.00
H4     H     0.01501   0.91030   0.78383   0.01267  Uiso   1.00
N1     N     0.00000   0.00000   0.83333   0.01267  Uiso   1.00
H5     H     0.01501   0.10471   0.54951   0.01267  Uiso   1.00
H6     H     0.98499   0.89529   0.54951   0.01267  Uiso   1.00
H7     H     0.10471   0.01501   0.45049   0.01267  Uiso   1.00
H8     H     0.89529   0.98499   0.45049   0.01267  Uiso   1.00
N2     N     0.00000   0.00000   0.50000   0.01267  Uiso   1.00
H9     H     0.08970   0.98499   0.21617   0.01267  Uiso   1.00
H10    H     0.91030   0.01501   0.21617   0.01267  Uiso   1.00
H11    H     0.91030   0.89529   0.11716   0.01267  Uiso   1.00
H12    H     0.08970   0.10471   0.11716   0.01267  Uiso   1.00
N3     N     0.00000   0.00000   0.16667   0.01267  Uiso   1.00
