data_LAJDUV02_charged
_audit_creation_date              2014-07-02
_audit_creation_method            'Materials Studio'
_symmetry_space_group_name_H-M    'P1'
_symmetry_Int_Tables_number       1
_symmetry_cell_setting            triclinic
loop_
_symmetry_equiv_pos_as_xyz
  x,y,z
_cell_length_a                    8.9310
_cell_length_b                    8.9310
_cell_length_c                    10.8930
_cell_angle_alpha                 90.0000
_cell_angle_beta                  90.0000
_cell_angle_gamma                 120.0000
loop_
_atom_site_label
_atom_site_type_symbol
_atom_site_fract_x
_atom_site_fract_y
_atom_site_fract_z
_atom_site_U_iso_or_equiv
_atom_site_adp_type
_atom_site_occupancy
Ti1    Ti    0.00000   0.50000   0.16667   0.01267  Uiso   1.00
Ti2    Ti    0.50000  -0.00000   0.83333   0.01267  Uiso   1.00
Ti3    Ti    0.50000   0.50000   0.50000   0.01267  Uiso   1.00
C1     C     0.30837   0.61674   0.33333   0.01267  Uiso   1.00
C2     C     0.21025   0.42050   0.33333   0.01267  Uiso   1.00
C3     C     0.30837   0.69163   0.00000   0.01267  Uiso   1.00
C4     C     0.21025   0.78975   0.00000   0.01267  Uiso   1.00
C5     C     0.38326   0.69163   0.66667   0.01267  Uiso   1.00
C6     C     0.57950   0.78975   0.66667   0.01267  Uiso   1.00
C7     C     0.69163   0.38326   0.33333   0.01267  Uiso   1.00
C8     C     0.78975   0.57950   0.33333   0.01267  Uiso   1.00
C9     C     0.69163   0.30837   0.00000   0.01267  Uiso   1.00
C10    C     0.78975   0.21025   0.00000   0.01267  Uiso   1.00
C11    C     0.61674   0.30837   0.66667   0.01267  Uiso   1.00
C12    C     0.42050   0.21025   0.66667   0.01267  Uiso   1.00
O1     O     0.23713   0.68651   0.27615   0.01267  Uiso   1.00
O2     O     0.07538   0.34811   0.27009   0.01267  Uiso   1.00
O3     O     0.44938   0.76287   0.94282   0.01267  Uiso   1.00
O4     O     0.27273   0.92462   0.93676   0.01267  Uiso   1.00
O5     O     0.31349   0.55062   0.60948   0.01267  Uiso   1.00
O6     O     0.65189   0.72727   0.60342   0.01267  Uiso   1.00
O7     O     0.76287   0.31349   0.27615   0.01267  Uiso   1.00
O8     O     0.92462   0.65189   0.27009   0.01267  Uiso   1.00
O9     O     0.55062   0.23713   0.94282   0.01267  Uiso   1.00
O10    O     0.72727   0.07538   0.93676   0.01267  Uiso   1.00
O11    O     0.68651   0.44938   0.60948   0.01267  Uiso   1.00
O12    O     0.34811   0.27273   0.60342   0.01267  Uiso   1.00
O13    O     0.55062   0.31349   0.39052   0.01267  Uiso   1.00
O14    O     0.72727   0.65189   0.39658   0.01267  Uiso   1.00
O15    O     0.68651   0.23713   0.72385   0.01267  Uiso   1.00
O16    O     0.34811   0.07538   0.72991   0.01267  Uiso   1.00
O17    O     0.76287   0.44938   0.05718   0.01267  Uiso   1.00
O18    O     0.92462   0.27273   0.06324   0.01267  Uiso   1.00
O19    O     0.44938   0.68651   0.39052   0.01267  Uiso   1.00
O20    O     0.27273   0.34811   0.39658   0.01267  Uiso   1.00
O21    O     0.31349   0.76287   0.72385   0.01267  Uiso   1.00
O22    O     0.65189   0.92462   0.72991   0.01267  Uiso   1.00
O23    O     0.23713   0.55062   0.05718   0.01267  Uiso   1.00
O24    O     0.07538   0.72727   0.06324   0.01267  Uiso   1.00
H1     H     0.89386   0.91389   0.88361   0.01267  Uiso   1.00
H2     H     0.10614   0.08611   0.88361   0.01267  Uiso   1.00
H3     H     0.97997   0.08611   0.78306   0.01267  Uiso   1.00
H4     H     0.02003   0.91389   0.78306   0.01267  Uiso   1.00
N1     N     0.00000   0.00000   0.83333   0.01267  Uiso   1.00
H5     H     0.02003   0.10614   0.55028   0.01267  Uiso   1.00
H6     H     0.97997   0.89386   0.55028   0.01267  Uiso   1.00
H7     H     0.10614   0.02003   0.44972   0.01267  Uiso   1.00
H8     H     0.89386   0.97997   0.44972   0.01267  Uiso   1.00
N2     N     0.00000   0.00000   0.50000   0.01267  Uiso   1.00
H9     H     0.08611   0.97997   0.21694   0.01267  Uiso   1.00
H10    H     0.91389   0.02003   0.21694   0.01267  Uiso   1.00
H11    H     0.91389   0.89386   0.11639   0.01267  Uiso   1.00
H12    H     0.08611   0.10614   0.11639   0.01267  Uiso   1.00
N3     N     0.00000   0.00000   0.16667   0.01267  Uiso   1.00
