data_image0
_cell_length_a       16.955
_cell_length_b       9.543
_cell_length_c       18.549
_cell_angle_alpha    90
_cell_angle_beta     90.01
_cell_angle_gamma    90

_symmetry_space_group_name_H-M    "P 1"
_symmetry_int_tables_number       1

loop_
  _symmetry_equiv_pos_as_xyz
  'x, y, z'

loop_
  _atom_site_label
  _atom_site_occupancy
  _atom_site_fract_x
  _atom_site_fract_y
  _atom_site_fract_z
  _atom_site_thermal_displace_type
  _atom_site_B_iso_or_equiv
  _atom_site_type_symbol
  Cd1      1.0000 0.41415  0.91346  0.63139  Biso   1.000  Cd
  Cd2      1.0000 0.08065  0.75183  0.56832  Biso   1.000  Cd
  O1       1.0000 0.49210  0.75780  0.69310  Biso   1.000  O
  O2       1.0000 0.38040  0.76620  0.75720  Biso   1.000  O
  O3       1.0000 0.55510  0.57900  0.78630  Biso   1.000  O
  O4       1.0000 0.44430  0.58220  0.85180  Biso   1.000  O
  O5       1.0000 0.41120  0.06660  0.53490  Biso   1.000  O
  O6       1.0000 0.49010  0.15850  0.45330  Biso   1.000  O
  O7       1.0000 0.28190  0.97770  0.65690  Biso   1.000  O
  O8       1.0000 0.15820  0.92270  0.63000  Biso   1.000  O
  O9       1.0000 0.33370  0.76670  0.57050  Biso   1.000  O
  O10      1.0000 0.21100  0.71870  0.54210  Biso   1.000  O
  O11      1.0000 0.06730  0.88030  0.46330  Biso   1.000  O
  O12      1.0000 0.01300  0.06860  0.41320  Biso   1.000  O
  O13      1.0000 0.95980  0.63950  0.54920  Biso   1.000  O
  O14      1.0000 0.90030  0.46520  0.49000  Biso   1.000  O
  C1       1.0000 0.44970  0.72280  0.74530  Biso   1.000  C
  C2       1.0000 0.48590  0.61930  0.80020  Biso   1.000  C
  C3       1.0000 0.47200  0.06660  0.49580  Biso   1.000  C
  C4       1.0000 0.23040  0.90560  0.62520  Biso   1.000  C
  C5       1.0000 0.26020  0.78610  0.57540  Biso   1.000  C
  C6       1.0000 0.02280  0.98760  0.46420  Biso   1.000  C
  C7       1.0000 0.95880  0.53180  0.51180  Biso   1.000  C
  Cd3      1.0000 0.58585  0.41346  0.86861  Biso   1.000  Cd
  Cd4      1.0000 0.91935  0.25183  0.93168  Biso   1.000  Cd
  O15      1.0000 0.50790  0.25780  0.80690  Biso   1.000  O
  O16      1.0000 0.61960  0.26620  0.74280  Biso   1.000  O
  O17      1.0000 0.44490  0.07900  0.71370  Biso   1.000  O
  O18      1.0000 0.55570  0.08220  0.64820  Biso   1.000  O
  O19      1.0000 0.58880  0.56660  0.96510  Biso   1.000  O
  O20      1.0000 0.50990  0.65850  0.04670  Biso   1.000  O
  O21      1.0000 0.71810  0.47770  0.84310  Biso   1.000  O
  O22      1.0000 0.84180  0.42270  0.87000  Biso   1.000  O
  O23      1.0000 0.66630  0.26670  0.92950  Biso   1.000  O
  O24      1.0000 0.78900  0.21870  0.95790  Biso   1.000  O
  O25      1.0000 0.93270  0.38030  0.03670  Biso   1.000  O
  O26      1.0000 0.98700  0.56860  0.08680  Biso   1.000  O
  O27      1.0000 0.04020  0.13950  0.95080  Biso   1.000  O
  O28      1.0000 0.09970  0.96520  0.01000  Biso   1.000  O
  C8       1.0000 0.55030  0.22280  0.75470  Biso   1.000  C
  C9       1.0000 0.51410  0.11930  0.69980  Biso   1.000  C
  C10      1.0000 0.52800  0.56660  0.00420  Biso   1.000  C
  C11      1.0000 0.76960  0.40560  0.87480  Biso   1.000  C
  C12      1.0000 0.73980  0.28610  0.92460  Biso   1.000  C
  C13      1.0000 0.97720  0.48760  0.03580  Biso   1.000  C
  C14      1.0000 0.04120  0.03180  0.98820  Biso   1.000  C
  Cd5      1.0000 0.58585  0.08654  0.36861  Biso   1.000  Cd
  Cd6      1.0000 0.91935  0.24817  0.43168  Biso   1.000  Cd
  O29      1.0000 0.50790  0.24220  0.30690  Biso   1.000  O
  O30      1.0000 0.61960  0.23380  0.24280  Biso   1.000  O
  O31      1.0000 0.44490  0.42100  0.21370  Biso   1.000  O
  O32      1.0000 0.55570  0.41780  0.14820  Biso   1.000  O
  O33      1.0000 0.58880  0.93340  0.46510  Biso   1.000  O
  O34      1.0000 0.50990  0.84150  0.54670  Biso   1.000  O
  O35      1.0000 0.71810  0.02230  0.34310  Biso   1.000  O
  O36      1.0000 0.84180  0.07730  0.37000  Biso   1.000  O
  O37      1.0000 0.66630  0.23330  0.42950  Biso   1.000  O
  O38      1.0000 0.78900  0.28130  0.45790  Biso   1.000  O
  O39      1.0000 0.93270  0.11970  0.53670  Biso   1.000  O
  O40      1.0000 0.98700  0.93140  0.58680  Biso   1.000  O
  O41      1.0000 0.04020  0.36050  0.45080  Biso   1.000  O
  O42      1.0000 0.09970  0.53480  0.51000  Biso   1.000  O
  C15      1.0000 0.55030  0.27720  0.25470  Biso   1.000  C
  C16      1.0000 0.51410  0.38070  0.19980  Biso   1.000  C
  C17      1.0000 0.52800  0.93340  0.50420  Biso   1.000  C
  C18      1.0000 0.76960  0.09440  0.37480  Biso   1.000  C
  C19      1.0000 0.73980  0.21390  0.42460  Biso   1.000  C
  C20      1.0000 0.97720  0.01240  0.53580  Biso   1.000  C
  C21      1.0000 0.04120  0.46820  0.48820  Biso   1.000  C
  Cd7      1.0000 0.41415  0.58654  0.13139  Biso   1.000  Cd
  Cd8      1.0000 0.08065  0.74817  0.06832  Biso   1.000  Cd
  O43      1.0000 0.49210  0.74220  0.19310  Biso   1.000  O
  O44      1.0000 0.38040  0.73380  0.25720  Biso   1.000  O
  O45      1.0000 0.55510  0.92100  0.28630  Biso   1.000  O
  O46      1.0000 0.44430  0.91780  0.35180  Biso   1.000  O
  O47      1.0000 0.41120  0.43340  0.03490  Biso   1.000  O
  O48      1.0000 0.49010  0.34150  0.95330  Biso   1.000  O
  O49      1.0000 0.28190  0.52230  0.15690  Biso   1.000  O
  O50      1.0000 0.15820  0.57730  0.13000  Biso   1.000  O
  O51      1.0000 0.33370  0.73330  0.07050  Biso   1.000  O
  O52      1.0000 0.21100  0.78130  0.04210  Biso   1.000  O
  O53      1.0000 0.06730  0.61970  0.96330  Biso   1.000  O
  O54      1.0000 0.01300  0.43140  0.91320  Biso   1.000  O
  O55      1.0000 0.95980  0.86050  0.04920  Biso   1.000  O
  O56      1.0000 0.90030  0.03480  0.99000  Biso   1.000  O
  C22      1.0000 0.44970  0.77720  0.24530  Biso   1.000  C
  C23      1.0000 0.48590  0.88070  0.30020  Biso   1.000  C
  C24      1.0000 0.47200  0.43340  0.99580  Biso   1.000  C
  C25      1.0000 0.23040  0.59440  0.12520  Biso   1.000  C
  C26      1.0000 0.26020  0.71390  0.07540  Biso   1.000  C
  C27      1.0000 0.02280  0.51240  0.96420  Biso   1.000  C
  C28      1.0000 0.95880  0.96820  0.01180  Biso   1.000  C
