data_LALFUB_clean
_audit_creation_date              2014-07-02
_audit_creation_method            'Materials Studio'
_symmetry_space_group_name_H-M    'P1'
_symmetry_Int_Tables_number       1
_symmetry_cell_setting            triclinic
loop_
_symmetry_equiv_pos_as_xyz
  x,y,z
_cell_length_a                    6.0915
_cell_length_b                    9.9610
_cell_length_c                    13.3610
_cell_angle_alpha                 68.8700
_cell_angle_beta                  81.0100
_cell_angle_gamma                 76.7200
loop_
_atom_site_label
_atom_site_type_symbol
_atom_site_fract_x
_atom_site_fract_y
_atom_site_fract_z
_atom_site_U_iso_or_equiv
_atom_site_adp_type
_atom_site_occupancy
Eu1    Eu    0.66828   0.38562   0.80391   0.01267  Uiso   1.00
Eu2    Eu    0.33172   0.61438   0.19609   0.01267  Uiso   1.00
H1     H     0.82770   0.04520   0.02680   0.01267  Uiso   1.00
H2     H     0.20190   0.32650   0.63080   0.01267  Uiso   1.00
H3     H     0.01020   0.49890   0.76880   0.01267  Uiso   1.00
H4     H     0.91800   0.57910   0.83680   0.01267  Uiso   1.00
H5     H     0.17230   0.95480   0.97320   0.01267  Uiso   1.00
H6     H     0.79810   0.67350   0.36920   0.01267  Uiso   1.00
H7     H     0.98980   0.50110   0.23120   0.01267  Uiso   1.00
H8     H     0.08200   0.42090   0.16320   0.01267  Uiso   1.00
C1     C     0.21070   0.23280   0.85820   0.01267  Uiso   1.00
C2     C     0.36690   0.10450   0.93140   0.01267  Uiso   1.00
C3     C     0.69120   0.02890   0.01490   0.01267  Uiso   1.00
C4     C     0.55020   0.61730   0.56040   0.01267  Uiso   1.00
C5     C     0.78860   0.55520   0.52740   0.01267  Uiso   1.00
C6     C     0.11500   0.39860   0.57830   0.01267  Uiso   1.00
C7     C     0.40890   0.56050   0.96650   0.01267  Uiso   1.00
C8     C     0.78930   0.76720   0.14180   0.01267  Uiso   1.00
C9     C     0.63310   0.89550   0.06860   0.01267  Uiso   1.00
C10    C     0.30880   0.97110   0.98510   0.01267  Uiso   1.00
C11    C     0.44980   0.38270   0.43960   0.01267  Uiso   1.00
C12    C     0.21140   0.44480   0.47260   0.01267  Uiso   1.00
C13    C     0.88500   0.60140   0.42170   0.01267  Uiso   1.00
C14    C     0.59110   0.43950   0.03350   0.01267  Uiso   1.00
N1     N     0.56090   0.13520   0.94680   0.01267  Uiso   1.00
N2     N     0.90620   0.45330   0.60650   0.01267  Uiso   1.00
N3     N     0.43910   0.86480   0.05320   0.01267  Uiso   1.00
N4     N     0.09380   0.54670   0.39350   0.01267  Uiso   1.00
O1     O     0.28520   0.35160   0.81510   0.01267  Uiso   1.00
O2     O     0.02050   0.21560   0.84770   0.01267  Uiso   1.00
O3     O     0.48640   0.56900   0.65730   0.01267  Uiso   1.00
O4     O     0.43210   0.70990   0.48980   0.01267  Uiso   1.00
O5     O     0.27550   0.63730   0.01350   0.01267  Uiso   1.00
O6     O     0.41510   0.56930   0.87070   0.01267  Uiso   1.00
O7     O     0.90710   0.56590   0.77910   0.01267  Uiso   1.00
O8     O     0.71480   0.64840   0.18490   0.01267  Uiso   1.00
O9     O     0.97950   0.78440   0.15230   0.01267  Uiso   1.00
O10    O     0.51360   0.43100   0.34270   0.01267  Uiso   1.00
O11    O     0.56790   0.29010   0.51020   0.01267  Uiso   1.00
O12    O     0.72450   0.36270   0.98650   0.01267  Uiso   1.00
O13    O     0.58490   0.43070   0.12930   0.01267  Uiso   1.00
O14    O     0.09290   0.43410   0.22090   0.01267  Uiso   1.00
