data_LALPOF_clean
_audit_creation_date              2014-07-02
_audit_creation_method            'Materials Studio'
_symmetry_space_group_name_H-M    'P1'
_symmetry_Int_Tables_number       1
_symmetry_cell_setting            triclinic
loop_
_symmetry_equiv_pos_as_xyz
  x,y,z
_cell_length_a                    9.5879
_cell_length_b                    11.5700
_cell_length_c                    14.5830
_cell_angle_alpha                 69.1600
_cell_angle_beta                  85.2000
_cell_angle_gamma                 86.3000
loop_
_atom_site_label
_atom_site_type_symbol
_atom_site_fract_x
_atom_site_fract_y
_atom_site_fract_z
_atom_site_U_iso_or_equiv
_atom_site_adp_type
_atom_site_occupancy
Ce1    Ce    0.79391   0.95685   0.00121   0.01267  Uiso   1.00
Ce2    Ce    0.20609   0.04315   0.99879   0.01267  Uiso   1.00
H1     H     0.86760   0.36980   0.83640   0.01267  Uiso   1.00
H2     H     0.96960   0.37280   0.74610   0.01267  Uiso   1.00
H3     H     0.32900   0.38400   0.89400   0.01267  Uiso   1.00
H4     H     0.25800   0.48000   0.80200   0.01267  Uiso   1.00
H5     H     0.87870   0.94440   0.55590   0.01267  Uiso   1.00
H6     H     0.87560   0.06630   0.46320   0.01267  Uiso   1.00
H7     H     0.27270   0.34810   0.39400   0.01267  Uiso   1.00
H8     H     0.25840   0.28600   0.32180   0.01267  Uiso   1.00
H9     H     0.85120   0.10690   0.28550   0.01267  Uiso   1.00
H10    H     0.81820   0.23030   0.19800   0.01267  Uiso   1.00
H11    H     0.11910   0.53330   0.43380   0.01267  Uiso   1.00
H12    H     0.11090   0.41040   0.52570   0.01267  Uiso   1.00
H13    H     0.67280   0.04890   0.60520   0.01267  Uiso   1.00
H14    H     0.63070   0.11970   0.67130   0.01267  Uiso   1.00
H15    H     0.48160   0.83410   0.80490   0.01267  Uiso   1.00
H16    H     0.63120   0.82750   0.75530   0.01267  Uiso   1.00
H17    H     0.03120   0.48240   0.90880   0.01267  Uiso   1.00
H18    H     0.07860   0.38830   0.00970   0.01267  Uiso   1.00
H19    H     0.13240   0.63020   0.16360   0.01267  Uiso   1.00
H20    H     0.03040   0.62720   0.25390   0.01267  Uiso   1.00
H21    H     0.67100   0.61600   0.10600   0.01267  Uiso   1.00
H22    H     0.74200   0.52000   0.19800   0.01267  Uiso   1.00
H23    H     0.12130   0.05560   0.44410   0.01267  Uiso   1.00
H24    H     0.12440   0.93370   0.53680   0.01267  Uiso   1.00
H25    H     0.72730   0.65190   0.60600   0.01267  Uiso   1.00
H26    H     0.74160   0.71400   0.67820   0.01267  Uiso   1.00
H27    H     0.14880   0.89310   0.71450   0.01267  Uiso   1.00
H28    H     0.18180   0.76970   0.80200   0.01267  Uiso   1.00
H29    H     0.88090   0.46670   0.56620   0.01267  Uiso   1.00
H30    H     0.88910   0.58960   0.47430   0.01267  Uiso   1.00
H31    H     0.32720   0.95110   0.39480   0.01267  Uiso   1.00
H32    H     0.36930   0.88030   0.32870   0.01267  Uiso   1.00
H33    H     0.51840   0.16590   0.19510   0.01267  Uiso   1.00
H34    H     0.36880   0.17250   0.24470   0.01267  Uiso   1.00
H35    H     0.96880   0.51760   0.09120   0.01267  Uiso   1.00
H36    H     0.92140   0.61170   0.99030   0.01267  Uiso   1.00
C1     C     0.92310   0.09760   0.14990   0.01267  Uiso   1.00
C2     C     0.88840   0.19340   0.68070   0.01267  Uiso   1.00
C3     C     0.00780   0.22360   0.86850   0.01267  Uiso   1.00
C4     C     0.91290   0.31920   0.80110   0.01267  Uiso   1.00
C5     C     0.92940   0.01830   0.51860   0.01267  Uiso   1.00
C6     C     0.98530   0.30560   0.31640   0.01267  Uiso   1.00
C7     C     0.88800   0.16430   0.22300   0.01267  Uiso   1.00
C8     C     0.94400   0.09300   0.58240   0.01267  Uiso   1.00
C9     C     0.99560   0.40720   0.41540   0.01267  Uiso   1.00
C10    C     0.05660   0.47040   0.47570   0.01267  Uiso   1.00
C11    C     0.57520   0.79730   0.81710   0.01267  Uiso   1.00
C12    C     0.63550   0.84480   0.88880   0.01267  Uiso   1.00
C13    C     0.39880   0.61260   0.91270   0.01267  Uiso   1.00
C14    C     0.18860   0.54510   0.96100   0.01267  Uiso   1.00
C15    C     0.05950   0.47520   0.97300   0.01267  Uiso   1.00
C16    C     0.07690   0.90240   0.85010   0.01267  Uiso   1.00
C17    C     0.11160   0.80660   0.31930   0.01267  Uiso   1.00
C18    C     0.99220   0.77640   0.13150   0.01267  Uiso   1.00
C19    C     0.08710   0.68080   0.19890   0.01267  Uiso   1.00
C20    C     0.07060   0.98170   0.48140   0.01267  Uiso   1.00
C21    C     0.01470   0.69440   0.68360   0.01267  Uiso   1.00
C22    C     0.11200   0.83570   0.77700   0.01267  Uiso   1.00
C23    C     0.05600   0.90700   0.41760   0.01267  Uiso   1.00
C24    C     0.00440   0.59280   0.58460   0.01267  Uiso   1.00
C25    C     0.94340   0.52960   0.52430   0.01267  Uiso   1.00
C26    C     0.42480   0.20270   0.18290   0.01267  Uiso   1.00
C27    C     0.36450   0.15520   0.11120   0.01267  Uiso   1.00
C28    C     0.60120   0.38740   0.08730   0.01267  Uiso   1.00
C29    C     0.81140   0.45490   0.03900   0.01267  Uiso   1.00
C30    C     0.94050   0.52480   0.02700   0.01267  Uiso   1.00
S1     S     0.04846   0.22684   0.23868   0.01267  Uiso   1.00
S2     S     0.56390   0.63193   0.85124   0.01267  Uiso   1.00
S3     S     0.78031   0.25658   0.75418   0.01267  Uiso   1.00
S4     S     0.95154   0.77316   0.76132   0.01267  Uiso   1.00
S5     S     0.43610   0.36807   0.14876   0.01267  Uiso   1.00
S6     S     0.21969   0.74342   0.24582   0.01267  Uiso   1.00
N1     N     0.30660   0.53260   0.90510   0.01267  Uiso   1.00
N2     N     0.20610   0.62880   0.99960   0.01267  Uiso   1.00
N3     N     0.07570   0.34870   0.36260   0.01267  Uiso   1.00
N4     N     0.02320   0.20140   0.66180   0.01267  Uiso   1.00
N5     N     0.34170   0.67060   0.96960   0.01267  Uiso   1.00
N6     N     0.83350   0.12670   0.63330   0.01267  Uiso   1.00
N7     N     0.33370   0.45450   0.85000   0.01267  Uiso   1.00
N8     N     0.22110   0.32450   0.35900   0.01267  Uiso   1.00
N9     N     0.05860   0.13530   0.59730   0.01267  Uiso   1.00
N10    N     0.86630   0.40150   0.40290   0.01267  Uiso   1.00
N11    N     0.85740   0.33520   0.33850   0.01267  Uiso   1.00
N12    N     0.69450   0.09430   0.63710   0.01267  Uiso   1.00
N13    N     0.69340   0.46740   0.09490   0.01267  Uiso   1.00
N14    N     0.79390   0.37120   0.00040   0.01267  Uiso   1.00
N15    N     0.92430   0.65130   0.63740   0.01267  Uiso   1.00
N16    N     0.97680   0.79860   0.33820   0.01267  Uiso   1.00
N17    N     0.65830   0.32940   0.03040   0.01267  Uiso   1.00
N18    N     0.16650   0.87330   0.36670   0.01267  Uiso   1.00
N19    N     0.66630   0.54550   0.15000   0.01267  Uiso   1.00
N20    N     0.77890   0.67550   0.64100   0.01267  Uiso   1.00
N21    N     0.94140   0.86470   0.40270   0.01267  Uiso   1.00
N22    N     0.13370   0.59850   0.59710   0.01267  Uiso   1.00
N23    N     0.14260   0.66480   0.66150   0.01267  Uiso   1.00
N24    N     0.30550   0.90570   0.36290   0.01267  Uiso   1.00
O1     O     0.82540   0.04760   0.12938   0.01267  Uiso   1.00
O2     O     0.95950   0.12170   0.92507   0.01267  Uiso   1.00
O3     O     0.13150   0.24910   0.86917   0.01267  Uiso   1.00
O4     O     0.04890   0.09940   0.11740   0.01267  Uiso   1.00
O5     O     0.68280   0.77620   0.96695   0.01267  Uiso   1.00
O6     O     0.63830   0.96290   0.86146   0.01267  Uiso   1.00
O7     O     0.17460   0.95240   0.87062   0.01267  Uiso   1.00
O8     O     0.04050   0.87830   0.07493   0.01267  Uiso   1.00
O9     O     0.86850   0.75090   0.13083   0.01267  Uiso   1.00
O10    O     0.95110   0.90060   0.88260   0.01267  Uiso   1.00
O11    O     0.31720   0.22380   0.03305   0.01267  Uiso   1.00
O12    O     0.36170   0.03710   0.13854   0.01267  Uiso   1.00
