data_image0
_cell_length_a       14.116
_cell_length_b       26.839
_cell_length_c       7.642
_cell_angle_alpha    90
_cell_angle_beta     90
_cell_angle_gamma    90.19

_symmetry_space_group_name_H-M    "P 1"
_symmetry_int_tables_number       1

loop_
  _symmetry_equiv_pos_as_xyz
  'x, y, z'

loop_
  _atom_site_label
  _atom_site_occupancy
  _atom_site_fract_x
  _atom_site_fract_y
  _atom_site_fract_z
  _atom_site_thermal_displace_type
  _atom_site_B_iso_or_equiv
  _atom_site_type_symbol
  Cd1      1.0000 0.27980  0.13518  0.88520  Biso   1.000  Cd
  N1       1.0000 0.26600  0.08240  0.10400  Biso   1.000  N
  N2       1.0000 0.25700  0.08080  0.66100  Biso   1.000  N
  N3       1.0000 0.33600  0.19970  0.08500  Biso   1.000  N
  N4       1.0000 0.63100  0.16870  0.12000  Biso   1.000  N
  N5       1.0000 0.32100  0.19370  0.65600  Biso   1.000  N
  N6       1.0000 0.44600  0.12620  0.83100  Biso   1.000  N
  C1       1.0000 0.25800  0.04870  0.20700  Biso   1.000  C
  C2       1.0000 0.25200  0.04780  0.55400  Biso   1.000  C
  C3       1.0000 0.39100  0.21790  0.15300  Biso   1.000  C
  C4       1.0000 0.57900  0.19910  0.16800  Biso   1.000  C
  C5       1.0000 0.41700  0.18900  0.62200  Biso   1.000  C
  C6       1.0000 0.46500  0.14800  0.66900  Biso   1.000  C
  Cd2      1.0000 0.27980  0.63518  0.38520  Biso   1.000  Cd
  N7       1.0000 0.26600  0.58240  0.60400  Biso   1.000  N
  N8       1.0000 0.25700  0.58080  0.16100  Biso   1.000  N
  N9       1.0000 0.33600  0.69970  0.58500  Biso   1.000  N
  N10      1.0000 0.63100  0.66870  0.62000  Biso   1.000  N
  N11      1.0000 0.32100  0.69370  0.15600  Biso   1.000  N
  N12      1.0000 0.44600  0.62620  0.33100  Biso   1.000  N
  C7       1.0000 0.25800  0.54870  0.70700  Biso   1.000  C
  C8       1.0000 0.25200  0.54780  0.05400  Biso   1.000  C
  C9       1.0000 0.39100  0.71790  0.65300  Biso   1.000  C
  C10      1.0000 0.57900  0.69910  0.66800  Biso   1.000  C
  C11      1.0000 0.41700  0.68900  0.12200  Biso   1.000  C
  C12      1.0000 0.46500  0.64800  0.16900  Biso   1.000  C
  Cd3      1.0000 0.22020  0.86482  0.88520  Biso   1.000  Cd
  N13      1.0000 0.23400  0.91760  0.10400  Biso   1.000  N
  N14      1.0000 0.24300  0.91920  0.66100  Biso   1.000  N
  N15      1.0000 0.16400  0.80030  0.08500  Biso   1.000  N
  N16      1.0000 0.86900  0.83130  0.12000  Biso   1.000  N
  N17      1.0000 0.17900  0.80630  0.65600  Biso   1.000  N
  N18      1.0000 0.05400  0.87380  0.83100  Biso   1.000  N
  C13      1.0000 0.24200  0.95130  0.20700  Biso   1.000  C
  C14      1.0000 0.24800  0.95220  0.55400  Biso   1.000  C
  C15      1.0000 0.10900  0.78210  0.15300  Biso   1.000  C
  C16      1.0000 0.92100  0.80090  0.16800  Biso   1.000  C
  C17      1.0000 0.08300  0.81100  0.62200  Biso   1.000  C
  C18      1.0000 0.03500  0.85200  0.66900  Biso   1.000  C
  Cd4      1.0000 0.22020  0.36482  0.38520  Biso   1.000  Cd
  N19      1.0000 0.23400  0.41760  0.60400  Biso   1.000  N
  N20      1.0000 0.24300  0.41920  0.16100  Biso   1.000  N
  N21      1.0000 0.16400  0.30030  0.58500  Biso   1.000  N
  N22      1.0000 0.86900  0.33130  0.62000  Biso   1.000  N
  N23      1.0000 0.17900  0.30630  0.15600  Biso   1.000  N
  N24      1.0000 0.05400  0.37380  0.33100  Biso   1.000  N
  C19      1.0000 0.24200  0.45130  0.70700  Biso   1.000  C
  C20      1.0000 0.24800  0.45220  0.05400  Biso   1.000  C
  C21      1.0000 0.10900  0.28210  0.65300  Biso   1.000  C
  C22      1.0000 0.92100  0.30090  0.66800  Biso   1.000  C
  C23      1.0000 0.08300  0.31100  0.12200  Biso   1.000  C
  C24      1.0000 0.03500  0.35200  0.16900  Biso   1.000  C
  Cd5      1.0000 0.72020  0.86482  0.11480  Biso   1.000  Cd
  N25      1.0000 0.73400  0.91760  0.89600  Biso   1.000  N
  N26      1.0000 0.74300  0.91920  0.33900  Biso   1.000  N
  N27      1.0000 0.66400  0.80030  0.91500  Biso   1.000  N
  N28      1.0000 0.36900  0.83130  0.88000  Biso   1.000  N
  N29      1.0000 0.67900  0.80630  0.34400  Biso   1.000  N
  N30      1.0000 0.55400  0.87380  0.16900  Biso   1.000  N
  C25      1.0000 0.74200  0.95130  0.79300  Biso   1.000  C
  C26      1.0000 0.74800  0.95220  0.44600  Biso   1.000  C
  C27      1.0000 0.60900  0.78210  0.84700  Biso   1.000  C
  C28      1.0000 0.42100  0.80090  0.83200  Biso   1.000  C
  C29      1.0000 0.58300  0.81100  0.37800  Biso   1.000  C
  C30      1.0000 0.53500  0.85200  0.33100  Biso   1.000  C
  Cd6      1.0000 0.72020  0.36482  0.61480  Biso   1.000  Cd
  N31      1.0000 0.73400  0.41760  0.39600  Biso   1.000  N
  N32      1.0000 0.74300  0.41920  0.83900  Biso   1.000  N
  N33      1.0000 0.66400  0.30030  0.41500  Biso   1.000  N
  N34      1.0000 0.36900  0.33130  0.38000  Biso   1.000  N
  N35      1.0000 0.67900  0.30630  0.84400  Biso   1.000  N
  N36      1.0000 0.55400  0.37380  0.66900  Biso   1.000  N
  C31      1.0000 0.74200  0.45130  0.29300  Biso   1.000  C
  C32      1.0000 0.74800  0.45220  0.94600  Biso   1.000  C
  C33      1.0000 0.60900  0.28210  0.34700  Biso   1.000  C
  C34      1.0000 0.42100  0.30090  0.33200  Biso   1.000  C
  C35      1.0000 0.58300  0.31100  0.87800  Biso   1.000  C
  C36      1.0000 0.53500  0.35200  0.83100  Biso   1.000  C
  Cd7      1.0000 0.77980  0.13518  0.11480  Biso   1.000  Cd
  N37      1.0000 0.76600  0.08240  0.89600  Biso   1.000  N
  N38      1.0000 0.75700  0.08080  0.33900  Biso   1.000  N
  N39      1.0000 0.83600  0.19970  0.91500  Biso   1.000  N
  N40      1.0000 0.13100  0.16870  0.88000  Biso   1.000  N
  N41      1.0000 0.82100  0.19370  0.34400  Biso   1.000  N
  N42      1.0000 0.94600  0.12620  0.16900  Biso   1.000  N
  C37      1.0000 0.75800  0.04870  0.79300  Biso   1.000  C
  C38      1.0000 0.75200  0.04780  0.44600  Biso   1.000  C
  C39      1.0000 0.89100  0.21790  0.84700  Biso   1.000  C
  C40      1.0000 0.07900  0.19910  0.83200  Biso   1.000  C
  C41      1.0000 0.91700  0.18900  0.37800  Biso   1.000  C
  C42      1.0000 0.96500  0.14800  0.33100  Biso   1.000  C
  Cd8      1.0000 0.77980  0.63518  0.61480  Biso   1.000  Cd
  N43      1.0000 0.76600  0.58240  0.39600  Biso   1.000  N
  N44      1.0000 0.75700  0.58080  0.83900  Biso   1.000  N
  N45      1.0000 0.83600  0.69970  0.41500  Biso   1.000  N
  N46      1.0000 0.13100  0.66870  0.38000  Biso   1.000  N
  N47      1.0000 0.82100  0.69370  0.84400  Biso   1.000  N
  N48      1.0000 0.94600  0.62620  0.66900  Biso   1.000  N
  C43      1.0000 0.75800  0.54870  0.29300  Biso   1.000  C
  C44      1.0000 0.75200  0.54780  0.94600  Biso   1.000  C
  C45      1.0000 0.89100  0.71790  0.34700  Biso   1.000  C
  C46      1.0000 0.07900  0.69910  0.33200  Biso   1.000  C
  C47      1.0000 0.91700  0.68900  0.87800  Biso   1.000  C
  C48      1.0000 0.96500  0.64800  0.83100  Biso   1.000  C
  Ni1      1.0000 0.25000  0.00000  0.37990  Biso   1.000  Ni
  Ni2      1.0000 0.25000  0.50000  0.87990  Biso   1.000  Ni
  Ni3      1.0000 0.75000  0.00000  0.62010  Biso   1.000  Ni
  Ni4      1.0000 0.75000  0.50000  0.12010  Biso   1.000  Ni
  Ni5      1.0000 0.50000  0.25000  0.25000  Biso   1.000  Ni
  Ni6      1.0000 0.00000  0.75000  0.25000  Biso   1.000  Ni
  Ni7      1.0000 0.50000  0.75000  0.75000  Biso   1.000  Ni
  Ni8      1.0000 0.00000  0.25000  0.75000  Biso   1.000  Ni
