data_image0
_cell_length_a       14.082
_cell_length_b       26.943
_cell_length_c       7.602
_cell_angle_alpha    90
_cell_angle_beta     90
_cell_angle_gamma    90.43

_symmetry_space_group_name_H-M    "P 1"
_symmetry_int_tables_number       1

loop_
  _symmetry_equiv_pos_as_xyz
  'x, y, z'

loop_
  _atom_site_label
  _atom_site_occupancy
  _atom_site_fract_x
  _atom_site_fract_y
  _atom_site_fract_z
  _atom_site_thermal_displace_type
  _atom_site_B_iso_or_equiv
  _atom_site_type_symbol
  Cd1      1.0000 0.27933  0.13524  0.88250  Biso   1.000  Cd
  N1       1.0000 0.26700  0.08120  0.10000  Biso   1.000  N
  N2       1.0000 0.26100  0.07950  0.65600  Biso   1.000  N
  N3       1.0000 0.32800  0.19870  0.09100  Biso   1.000  N
  N4       1.0000 0.62400  0.16620  0.12500  Biso   1.000  N
  N5       1.0000 0.31700  0.19110  0.65200  Biso   1.000  N
  N6       1.0000 0.44900  0.12680  0.83700  Biso   1.000  N
  C1       1.0000 0.26000  0.04980  0.20300  Biso   1.000  C
  C2       1.0000 0.25700  0.04920  0.55000  Biso   1.000  C
  C3       1.0000 0.39400  0.21910  0.15300  Biso   1.000  C
  C4       1.0000 0.57500  0.19920  0.17100  Biso   1.000  C
  C5       1.0000 0.42400  0.19200  0.63200  Biso   1.000  C
  C6       1.0000 0.47700  0.15600  0.68900  Biso   1.000  C
  C7       1.0000 0.58000  0.15610  0.65300  Biso   1.000  C
  Cd2      1.0000 0.27933  0.63524  0.38250  Biso   1.000  Cd
  N7       1.0000 0.26700  0.58120  0.60000  Biso   1.000  N
  N8       1.0000 0.26100  0.57950  0.15600  Biso   1.000  N
  N9       1.0000 0.32800  0.69870  0.59100  Biso   1.000  N
  N10      1.0000 0.62400  0.66620  0.62500  Biso   1.000  N
  N11      1.0000 0.31700  0.69110  0.15200  Biso   1.000  N
  N12      1.0000 0.44900  0.62680  0.33700  Biso   1.000  N
  C8       1.0000 0.26000  0.54980  0.70300  Biso   1.000  C
  C9       1.0000 0.25700  0.54920  0.05000  Biso   1.000  C
  C10      1.0000 0.39400  0.71910  0.65300  Biso   1.000  C
  C11      1.0000 0.57500  0.69920  0.67100  Biso   1.000  C
  C12      1.0000 0.42400  0.69200  0.13200  Biso   1.000  C
  C13      1.0000 0.47700  0.65600  0.18900  Biso   1.000  C
  C14      1.0000 0.58000  0.65610  0.15300  Biso   1.000  C
  Cd3      1.0000 0.22067  0.86476  0.88250  Biso   1.000  Cd
  N13      1.0000 0.23300  0.91880  0.10000  Biso   1.000  N
  N14      1.0000 0.23900  0.92050  0.65600  Biso   1.000  N
  N15      1.0000 0.17200  0.80130  0.09100  Biso   1.000  N
  N16      1.0000 0.87600  0.83380  0.12500  Biso   1.000  N
  N17      1.0000 0.18300  0.80890  0.65200  Biso   1.000  N
  N18      1.0000 0.05100  0.87320  0.83700  Biso   1.000  N
  C15      1.0000 0.24000  0.95020  0.20300  Biso   1.000  C
  C16      1.0000 0.24300  0.95080  0.55000  Biso   1.000  C
  C17      1.0000 0.10600  0.78090  0.15300  Biso   1.000  C
  C18      1.0000 0.92500  0.80080  0.17100  Biso   1.000  C
  C19      1.0000 0.07600  0.80800  0.63200  Biso   1.000  C
  C20      1.0000 0.02300  0.84400  0.68900  Biso   1.000  C
  C21      1.0000 0.92000  0.84390  0.65300  Biso   1.000  C
  Cd4      1.0000 0.22067  0.36476  0.38250  Biso   1.000  Cd
  N19      1.0000 0.23300  0.41880  0.60000  Biso   1.000  N
  N20      1.0000 0.23900  0.42050  0.15600  Biso   1.000  N
  N21      1.0000 0.17200  0.30130  0.59100  Biso   1.000  N
  N22      1.0000 0.87600  0.33380  0.62500  Biso   1.000  N
  N23      1.0000 0.18300  0.30890  0.15200  Biso   1.000  N
  N24      1.0000 0.05100  0.37320  0.33700  Biso   1.000  N
  C22      1.0000 0.24000  0.45020  0.70300  Biso   1.000  C
  C23      1.0000 0.24300  0.45080  0.05000  Biso   1.000  C
  C24      1.0000 0.10600  0.28090  0.65300  Biso   1.000  C
  C25      1.0000 0.92500  0.30080  0.67100  Biso   1.000  C
  C26      1.0000 0.07600  0.30800  0.13200  Biso   1.000  C
  C27      1.0000 0.02300  0.34400  0.18900  Biso   1.000  C
  C28      1.0000 0.92000  0.34390  0.15300  Biso   1.000  C
  Cd5      1.0000 0.72067  0.86476  0.11750  Biso   1.000  Cd
  N25      1.0000 0.73300  0.91880  0.90000  Biso   1.000  N
  N26      1.0000 0.73900  0.92050  0.34400  Biso   1.000  N
  N27      1.0000 0.67200  0.80130  0.90900  Biso   1.000  N
  N28      1.0000 0.37600  0.83380  0.87500  Biso   1.000  N
  N29      1.0000 0.68300  0.80890  0.34800  Biso   1.000  N
  N30      1.0000 0.55100  0.87320  0.16300  Biso   1.000  N
  C29      1.0000 0.74000  0.95020  0.79700  Biso   1.000  C
  C30      1.0000 0.74300  0.95080  0.45000  Biso   1.000  C
  C31      1.0000 0.60600  0.78090  0.84700  Biso   1.000  C
  C32      1.0000 0.42500  0.80080  0.82900  Biso   1.000  C
  C33      1.0000 0.57600  0.80800  0.36800  Biso   1.000  C
  C34      1.0000 0.52300  0.84400  0.31100  Biso   1.000  C
  C35      1.0000 0.42000  0.84390  0.34700  Biso   1.000  C
  Cd6      1.0000 0.72067  0.36476  0.61750  Biso   1.000  Cd
  N31      1.0000 0.73300  0.41880  0.40000  Biso   1.000  N
  N32      1.0000 0.73900  0.42050  0.84400  Biso   1.000  N
  N33      1.0000 0.67200  0.30130  0.40900  Biso   1.000  N
  N34      1.0000 0.37600  0.33380  0.37500  Biso   1.000  N
  N35      1.0000 0.68300  0.30890  0.84800  Biso   1.000  N
  N36      1.0000 0.55100  0.37320  0.66300  Biso   1.000  N
  C36      1.0000 0.74000  0.45020  0.29700  Biso   1.000  C
  C37      1.0000 0.74300  0.45080  0.95000  Biso   1.000  C
  C38      1.0000 0.60600  0.28090  0.34700  Biso   1.000  C
  C39      1.0000 0.42500  0.30080  0.32900  Biso   1.000  C
  C40      1.0000 0.57600  0.30800  0.86800  Biso   1.000  C
  C41      1.0000 0.52300  0.34400  0.81100  Biso   1.000  C
  C42      1.0000 0.42000  0.34390  0.84700  Biso   1.000  C
  Cd7      1.0000 0.77933  0.13524  0.11750  Biso   1.000  Cd
  N37      1.0000 0.76700  0.08120  0.90000  Biso   1.000  N
  N38      1.0000 0.76100  0.07950  0.34400  Biso   1.000  N
  N39      1.0000 0.82800  0.19870  0.90900  Biso   1.000  N
  N40      1.0000 0.12400  0.16620  0.87500  Biso   1.000  N
  N41      1.0000 0.81700  0.19110  0.34800  Biso   1.000  N
  N42      1.0000 0.94900  0.12680  0.16300  Biso   1.000  N
  C43      1.0000 0.76000  0.04980  0.79700  Biso   1.000  C
  C44      1.0000 0.75700  0.04920  0.45000  Biso   1.000  C
  C45      1.0000 0.89400  0.21910  0.84700  Biso   1.000  C
  C46      1.0000 0.07500  0.19920  0.82900  Biso   1.000  C
  C47      1.0000 0.92400  0.19200  0.36800  Biso   1.000  C
  C48      1.0000 0.97700  0.15600  0.31100  Biso   1.000  C
  C49      1.0000 0.08000  0.15610  0.34700  Biso   1.000  C
  Cd8      1.0000 0.77933  0.63524  0.61750  Biso   1.000  Cd
  N43      1.0000 0.76700  0.58120  0.40000  Biso   1.000  N
  N44      1.0000 0.76100  0.57950  0.84400  Biso   1.000  N
  N45      1.0000 0.82800  0.69870  0.40900  Biso   1.000  N
  N46      1.0000 0.12400  0.66620  0.37500  Biso   1.000  N
  N47      1.0000 0.81700  0.69110  0.84800  Biso   1.000  N
  N48      1.0000 0.94900  0.62680  0.66300  Biso   1.000  N
  C50      1.0000 0.76000  0.54980  0.29700  Biso   1.000  C
  C51      1.0000 0.75700  0.54920  0.95000  Biso   1.000  C
  C52      1.0000 0.89400  0.71910  0.34700  Biso   1.000  C
  C53      1.0000 0.07500  0.69920  0.32900  Biso   1.000  C
  C54      1.0000 0.92400  0.69200  0.86800  Biso   1.000  C
  C55      1.0000 0.97700  0.65600  0.81100  Biso   1.000  C
  C56      1.0000 0.08000  0.65610  0.84700  Biso   1.000  C
  Ni1      1.0000 0.25000  0.00000  0.37580  Biso   1.000  Ni
  Ni2      1.0000 0.25000  0.50000  0.87580  Biso   1.000  Ni
  Ni3      1.0000 0.75000  0.00000  0.62420  Biso   1.000  Ni
  Ni4      1.0000 0.75000  0.50000  0.12420  Biso   1.000  Ni
  Ni5      1.0000 0.50000  0.25000  0.25000  Biso   1.000  Ni
  Ni6      1.0000 0.00000  0.75000  0.25000  Biso   1.000  Ni
  Ni7      1.0000 0.50000  0.75000  0.75000  Biso   1.000  Ni
  Ni8      1.0000 0.00000  0.25000  0.75000  Biso   1.000  Ni
