data_image0
_cell_length_a       13.981
_cell_length_b       26.685
_cell_length_c       7.698
_cell_angle_alpha    90
_cell_angle_beta     90
_cell_angle_gamma    90

_symmetry_space_group_name_H-M    "P 1"
_symmetry_int_tables_number       1

loop_
  _symmetry_equiv_pos_as_xyz
  'x, y, z'

loop_
  _atom_site_label
  _atom_site_occupancy
  _atom_site_fract_x
  _atom_site_fract_y
  _atom_site_fract_z
  _atom_site_thermal_displace_type
  _atom_site_B_iso_or_equiv
  _atom_site_type_symbol
  Cd1      1.0000 0.21797  0.11487  0.13390  Biso   1.000  Cd
  N1       1.0000 0.24590  0.17240  0.91000  Biso   1.000  N
  N2       1.0000 0.23290  0.17030  0.35200  Biso   1.000  N
  N3       1.0000 0.17040  0.04850  0.33400  Biso   1.000  N
  N4       1.0000 0.12590  0.91640  0.62900  Biso   1.000  N
  N5       1.0000 0.18090  0.05770  0.90500  Biso   1.000  N
  N6       1.0000 0.05230  0.12580  0.08300  Biso   1.000  N
  C1       1.0000 0.24450  0.20130  0.80100  Biso   1.000  C
  C2       1.0000 0.23800  0.20050  0.45800  Biso   1.000  C
  C3       1.0000 0.10700  0.03040  0.40000  Biso   1.000  C
  C4       1.0000 0.07760  0.94750  0.57700  Biso   1.000  C
  C5       1.0000 0.08100  0.06020  0.87100  Biso   1.000  C
  C6       1.0000 0.02300  0.09270  0.93900  Biso   1.000  C
  C7       1.0000 0.91600  0.09480  0.89900  Biso   1.000  C
  Cd2      1.0000 0.28203  0.88513  0.63390  Biso   1.000  Cd
  N7       1.0000 0.25410  0.82760  0.41000  Biso   1.000  N
  N8       1.0000 0.26710  0.82970  0.85200  Biso   1.000  N
  N9       1.0000 0.32960  0.95150  0.83400  Biso   1.000  N
  N10      1.0000 0.37410  0.08360  0.12900  Biso   1.000  N
  N11      1.0000 0.31910  0.94230  0.40500  Biso   1.000  N
  N12      1.0000 0.44770  0.87420  0.58300  Biso   1.000  N
  C8       1.0000 0.25550  0.79870  0.30100  Biso   1.000  C
  C9       1.0000 0.26200  0.79950  0.95800  Biso   1.000  C
  C10      1.0000 0.39300  0.96960  0.90000  Biso   1.000  C
  C11      1.0000 0.42240  0.05250  0.07700  Biso   1.000  C
  C12      1.0000 0.41900  0.93980  0.37100  Biso   1.000  C
  C13      1.0000 0.47700  0.90730  0.43900  Biso   1.000  C
  C14      1.0000 0.58400  0.90520  0.39900  Biso   1.000  C
  Cd3      1.0000 0.78203  0.61487  0.86610  Biso   1.000  Cd
  N13      1.0000 0.75410  0.67240  0.09000  Biso   1.000  N
  N14      1.0000 0.76710  0.67030  0.64800  Biso   1.000  N
  N15      1.0000 0.82960  0.54850  0.66600  Biso   1.000  N
  N16      1.0000 0.87410  0.41640  0.37100  Biso   1.000  N
  N17      1.0000 0.81910  0.55770  0.09500  Biso   1.000  N
  N18      1.0000 0.94770  0.62580  0.91700  Biso   1.000  N
  C15      1.0000 0.75550  0.70130  0.19900  Biso   1.000  C
  C16      1.0000 0.76200  0.70050  0.54200  Biso   1.000  C
  C17      1.0000 0.89300  0.53040  0.60000  Biso   1.000  C
  C18      1.0000 0.92240  0.44750  0.42300  Biso   1.000  C
  C19      1.0000 0.91900  0.56020  0.12900  Biso   1.000  C
  C20      1.0000 0.97700  0.59270  0.06100  Biso   1.000  C
  C21      1.0000 0.08400  0.59480  0.10100  Biso   1.000  C
  Cd4      1.0000 0.71797  0.38513  0.36610  Biso   1.000  Cd
  N19      1.0000 0.74590  0.32760  0.59000  Biso   1.000  N
  N20      1.0000 0.73290  0.32970  0.14800  Biso   1.000  N
  N21      1.0000 0.67040  0.45150  0.16600  Biso   1.000  N
  N22      1.0000 0.62590  0.58360  0.87100  Biso   1.000  N
  N23      1.0000 0.68090  0.44230  0.59500  Biso   1.000  N
  N24      1.0000 0.55230  0.37420  0.41700  Biso   1.000  N
  C22      1.0000 0.74450  0.29870  0.69900  Biso   1.000  C
  C23      1.0000 0.73800  0.29950  0.04200  Biso   1.000  C
  C24      1.0000 0.60700  0.46960  0.10000  Biso   1.000  C
  C25      1.0000 0.57760  0.55250  0.92300  Biso   1.000  C
  C26      1.0000 0.58100  0.43980  0.62900  Biso   1.000  C
  C27      1.0000 0.52300  0.40730  0.56100  Biso   1.000  C
  C28      1.0000 0.41600  0.40520  0.60100  Biso   1.000  C
  Cd5      1.0000 0.78203  0.88513  0.86610  Biso   1.000  Cd
  N25      1.0000 0.75410  0.82760  0.09000  Biso   1.000  N
  N26      1.0000 0.76710  0.82970  0.64800  Biso   1.000  N
  N27      1.0000 0.82960  0.95150  0.66600  Biso   1.000  N
  N28      1.0000 0.87410  0.08360  0.37100  Biso   1.000  N
  N29      1.0000 0.81910  0.94230  0.09500  Biso   1.000  N
  N30      1.0000 0.94770  0.87420  0.91700  Biso   1.000  N
  C29      1.0000 0.75550  0.79870  0.19900  Biso   1.000  C
  C30      1.0000 0.76200  0.79950  0.54200  Biso   1.000  C
  C31      1.0000 0.89300  0.96960  0.60000  Biso   1.000  C
  C32      1.0000 0.92240  0.05250  0.42300  Biso   1.000  C
  C33      1.0000 0.91900  0.93980  0.12900  Biso   1.000  C
  C34      1.0000 0.97700  0.90730  0.06100  Biso   1.000  C
  C35      1.0000 0.08400  0.90520  0.10100  Biso   1.000  C
  Cd6      1.0000 0.71797  0.11487  0.36610  Biso   1.000  Cd
  N31      1.0000 0.74590  0.17240  0.59000  Biso   1.000  N
  N32      1.0000 0.73290  0.17030  0.14800  Biso   1.000  N
  N33      1.0000 0.67040  0.04850  0.16600  Biso   1.000  N
  N34      1.0000 0.62590  0.91640  0.87100  Biso   1.000  N
  N35      1.0000 0.68090  0.05770  0.59500  Biso   1.000  N
  N36      1.0000 0.55230  0.12580  0.41700  Biso   1.000  N
  C36      1.0000 0.74450  0.20130  0.69900  Biso   1.000  C
  C37      1.0000 0.73800  0.20050  0.04200  Biso   1.000  C
  C38      1.0000 0.60700  0.03040  0.10000  Biso   1.000  C
  C39      1.0000 0.57760  0.94750  0.92300  Biso   1.000  C
  C40      1.0000 0.58100  0.06020  0.62900  Biso   1.000  C
  C41      1.0000 0.52300  0.09270  0.56100  Biso   1.000  C
  C42      1.0000 0.41600  0.09480  0.60100  Biso   1.000  C
  Cd7      1.0000 0.21797  0.38513  0.13390  Biso   1.000  Cd
  N37      1.0000 0.24590  0.32760  0.91000  Biso   1.000  N
  N38      1.0000 0.23290  0.32970  0.35200  Biso   1.000  N
  N39      1.0000 0.17040  0.45150  0.33400  Biso   1.000  N
  N40      1.0000 0.12590  0.58360  0.62900  Biso   1.000  N
  N41      1.0000 0.18090  0.44230  0.90500  Biso   1.000  N
  N42      1.0000 0.05230  0.37420  0.08300  Biso   1.000  N
  C43      1.0000 0.24450  0.29870  0.80100  Biso   1.000  C
  C44      1.0000 0.23800  0.29950  0.45800  Biso   1.000  C
  C45      1.0000 0.10700  0.46960  0.40000  Biso   1.000  C
  C46      1.0000 0.07760  0.55250  0.57700  Biso   1.000  C
  C47      1.0000 0.08100  0.43980  0.87100  Biso   1.000  C
  C48      1.0000 0.02300  0.40730  0.93900  Biso   1.000  C
  C49      1.0000 0.91600  0.40520  0.89900  Biso   1.000  C
  Cd8      1.0000 0.28203  0.61487  0.63390  Biso   1.000  Cd
  N43      1.0000 0.25410  0.67240  0.41000  Biso   1.000  N
  N44      1.0000 0.26710  0.67030  0.85200  Biso   1.000  N
  N45      1.0000 0.32960  0.54850  0.83400  Biso   1.000  N
  N46      1.0000 0.37410  0.41640  0.12900  Biso   1.000  N
  N47      1.0000 0.31910  0.55770  0.40500  Biso   1.000  N
  N48      1.0000 0.44770  0.62580  0.58300  Biso   1.000  N
  C50      1.0000 0.25550  0.70130  0.30100  Biso   1.000  C
  C51      1.0000 0.26200  0.70050  0.95800  Biso   1.000  C
  C52      1.0000 0.39300  0.53040  0.90000  Biso   1.000  C
  C53      1.0000 0.42240  0.44750  0.07700  Biso   1.000  C
  C54      1.0000 0.41900  0.56020  0.37100  Biso   1.000  C
  C55      1.0000 0.47700  0.59270  0.43900  Biso   1.000  C
  C56      1.0000 0.58400  0.59480  0.39900  Biso   1.000  C
  Ni1      1.0000 0.24240  0.25000  0.62850  Biso   1.000  Ni
  Ni2      1.0000 0.25760  0.75000  0.12850  Biso   1.000  Ni
  Ni3      1.0000 0.75760  0.75000  0.37150  Biso   1.000  Ni
  Ni4      1.0000 0.74240  0.25000  0.87150  Biso   1.000  Ni
  Ni5      1.0000 0.00000  0.00000  0.50000  Biso   1.000  Ni
  Ni6      1.0000 0.50000  0.00000  0.00000  Biso   1.000  Ni
  Ni7      1.0000 0.00000  0.50000  0.50000  Biso   1.000  Ni
  Ni8      1.0000 0.50000  0.50000  0.00000  Biso   1.000  Ni
