data_image0
_cell_length_a       18.6924
_cell_length_b       18.6924
_cell_length_c       35.9196
_cell_angle_alpha    90
_cell_angle_beta     90
_cell_angle_gamma    90

_symmetry_space_group_name_H-M    "P 1"
_symmetry_int_tables_number       1

loop_
  _symmetry_equiv_pos_as_xyz
  'x, y, z'

loop_
  _atom_site_label
  _atom_site_occupancy
  _atom_site_fract_x
  _atom_site_fract_y
  _atom_site_fract_z
  _atom_site_thermal_displace_type
  _atom_site_B_iso_or_equiv
  _atom_site_type_symbol
  O1       1.0000 0.31633  0.78676  0.69907  Biso   1.000  O
  O2       1.0000 0.37393  0.73049  0.74553  Biso   1.000  O
  O3       1.0000 0.69365  0.79630  0.70290  Biso   1.000  O
  O4       1.0000 0.63569  0.73974  0.74896  Biso   1.000  O
  C1       1.0000 0.50521  0.92233  0.53538  Biso   1.000  C
  C2       1.0000 0.55866  0.93713  0.56093  Biso   1.000  C
  H1       1.0000 0.59470  0.97100  0.55490  Biso   1.000  H
  C3       1.0000 0.56033  0.90323  0.59529  Biso   1.000  C
  H2       1.0000 0.59750  0.91400  0.61250  Biso   1.000  H
  C4       1.0000 0.50840  0.85405  0.60465  Biso   1.000  C
  C5       1.0000 0.45653  0.83556  0.57823  Biso   1.000  C
  H3       1.0000 0.42190  0.80000  0.58380  Biso   1.000  H
  C6       1.0000 0.45589  0.86920  0.54389  Biso   1.000  C
  H4       1.0000 0.42120  0.85580  0.52590  Biso   1.000  H
  C7       1.0000 0.50651  0.82239  0.64300  Biso   1.000  C
  C8       1.0000 0.57038  0.81000  0.66211  Biso   1.000  C
  H5       1.0000 0.61480  0.82100  0.65060  Biso   1.000  H
  C9       1.0000 0.56948  0.78176  0.69770  Biso   1.000  C
  C10      1.0000 0.50482  0.76483  0.71463  Biso   1.000  C
  H6       1.0000 0.50440  0.74470  0.73890  Biso   1.000  H
  C11      1.0000 0.44147  0.77723  0.69628  Biso   1.000  C
  C12      1.0000 0.44286  0.80591  0.66001  Biso   1.000  C
  H7       1.0000 0.39920  0.81400  0.64720  Biso   1.000  H
  C13      1.0000 0.37165  0.76381  0.71482  Biso   1.000  C
  C14      1.0000 0.63848  0.77169  0.71820  Biso   1.000  C
  O5       1.0000 0.81633  0.28676  0.19907  Biso   1.000  O
  O6       1.0000 0.87393  0.23049  0.24553  Biso   1.000  O
  O7       1.0000 0.19365  0.29630  0.20290  Biso   1.000  O
  O8       1.0000 0.13569  0.23974  0.24896  Biso   1.000  O
  C15      1.0000 0.00521  0.42233  0.03538  Biso   1.000  C
  C16      1.0000 0.05866  0.43713  0.06093  Biso   1.000  C
  H8       1.0000 0.09470  0.47100  0.05490  Biso   1.000  H
  C17      1.0000 0.06033  0.40323  0.09529  Biso   1.000  C
  H9       1.0000 0.09750  0.41400  0.11250  Biso   1.000  H
  C18      1.0000 0.00840  0.35405  0.10465  Biso   1.000  C
  C19      1.0000 0.95653  0.33556  0.07823  Biso   1.000  C
  H10      1.0000 0.92190  0.30000  0.08380  Biso   1.000  H
  C20      1.0000 0.95589  0.36920  0.04389  Biso   1.000  C
  H11      1.0000 0.92120  0.35580  0.02590  Biso   1.000  H
  C21      1.0000 0.00651  0.32239  0.14300  Biso   1.000  C
  C22      1.0000 0.07038  0.31000  0.16211  Biso   1.000  C
  H12      1.0000 0.11480  0.32100  0.15060  Biso   1.000  H
  C23      1.0000 0.06948  0.28176  0.19770  Biso   1.000  C
  C24      1.0000 0.00482  0.26483  0.21463  Biso   1.000  C
  H13      1.0000 0.00440  0.24470  0.23890  Biso   1.000  H
  C25      1.0000 0.94147  0.27723  0.19628  Biso   1.000  C
  C26      1.0000 0.94286  0.30591  0.16001  Biso   1.000  C
  H14      1.0000 0.89920  0.31400  0.14720  Biso   1.000  H
  C27      1.0000 0.87165  0.26381  0.21482  Biso   1.000  C
  C28      1.0000 0.13848  0.27169  0.21820  Biso   1.000  C
  O9       1.0000 0.68367  0.21324  0.69907  Biso   1.000  O
  O10      1.0000 0.62607  0.26951  0.74553  Biso   1.000  O
  O11      1.0000 0.30635  0.20370  0.70290  Biso   1.000  O
  O12      1.0000 0.36431  0.26026  0.74896  Biso   1.000  O
  C29      1.0000 0.49479  0.07767  0.53538  Biso   1.000  C
  C30      1.0000 0.44134  0.06287  0.56093  Biso   1.000  C
  H15      1.0000 0.40530  0.02900  0.55490  Biso   1.000  H
  C31      1.0000 0.43967  0.09677  0.59529  Biso   1.000  C
  H16      1.0000 0.40250  0.08600  0.61250  Biso   1.000  H
  C32      1.0000 0.49160  0.14595  0.60465  Biso   1.000  C
  C33      1.0000 0.54347  0.16444  0.57823  Biso   1.000  C
  H17      1.0000 0.57810  0.20000  0.58380  Biso   1.000  H
  C34      1.0000 0.54411  0.13080  0.54389  Biso   1.000  C
  H18      1.0000 0.57880  0.14420  0.52590  Biso   1.000  H
  C35      1.0000 0.49349  0.17761  0.64300  Biso   1.000  C
  C36      1.0000 0.42962  0.19000  0.66211  Biso   1.000  C
  H19      1.0000 0.38520  0.17900  0.65060  Biso   1.000  H
  C37      1.0000 0.43052  0.21824  0.69770  Biso   1.000  C
  C38      1.0000 0.49518  0.23517  0.71463  Biso   1.000  C
  H20      1.0000 0.49560  0.25530  0.73890  Biso   1.000  H
  C39      1.0000 0.55853  0.22277  0.69628  Biso   1.000  C
  C40      1.0000 0.55714  0.19409  0.66001  Biso   1.000  C
  H21      1.0000 0.60080  0.18600  0.64720  Biso   1.000  H
  C41      1.0000 0.62835  0.23619  0.71482  Biso   1.000  C
  C42      1.0000 0.36152  0.22831  0.71820  Biso   1.000  C
  O13      1.0000 0.18367  0.71324  0.19907  Biso   1.000  O
  O14      1.0000 0.12607  0.76951  0.24553  Biso   1.000  O
  O15      1.0000 0.80635  0.70370  0.20290  Biso   1.000  O
  O16      1.0000 0.86431  0.76026  0.24896  Biso   1.000  O
  C43      1.0000 0.99479  0.57767  0.03538  Biso   1.000  C
  C44      1.0000 0.94134  0.56287  0.06093  Biso   1.000  C
  H22      1.0000 0.90530  0.52900  0.05490  Biso   1.000  H
  C45      1.0000 0.93967  0.59677  0.09529  Biso   1.000  C
  H23      1.0000 0.90250  0.58600  0.11250  Biso   1.000  H
  C46      1.0000 0.99160  0.64595  0.10465  Biso   1.000  C
  C47      1.0000 0.04347  0.66444  0.07823  Biso   1.000  C
  H24      1.0000 0.07810  0.70000  0.08380  Biso   1.000  H
  C48      1.0000 0.04411  0.63080  0.04389  Biso   1.000  C
  H25      1.0000 0.07880  0.64420  0.02590  Biso   1.000  H
  C49      1.0000 0.99349  0.67761  0.14300  Biso   1.000  C
  C50      1.0000 0.92962  0.69000  0.16211  Biso   1.000  C
  H26      1.0000 0.88520  0.67900  0.15060  Biso   1.000  H
  C51      1.0000 0.93052  0.71824  0.19770  Biso   1.000  C
  C52      1.0000 0.99518  0.73517  0.21463  Biso   1.000  C
  H27      1.0000 0.99560  0.75530  0.23890  Biso   1.000  H
  C53      1.0000 0.05853  0.72277  0.19628  Biso   1.000  C
  C54      1.0000 0.05714  0.69409  0.16001  Biso   1.000  C
  H28      1.0000 0.10080  0.68600  0.14720  Biso   1.000  H
  C55      1.0000 0.12835  0.73619  0.21482  Biso   1.000  C
  C56      1.0000 0.86152  0.72831  0.21820  Biso   1.000  C
  O17      1.0000 0.78676  0.68367  0.30093  Biso   1.000  O
  O18      1.0000 0.73049  0.62607  0.25447  Biso   1.000  O
  O19      1.0000 0.79630  0.30635  0.29710  Biso   1.000  O
  O20      1.0000 0.73974  0.36431  0.25104  Biso   1.000  O
  C57      1.0000 0.92233  0.49479  0.46462  Biso   1.000  C
  C58      1.0000 0.93713  0.44134  0.43907  Biso   1.000  C
  H29      1.0000 0.97100  0.40530  0.44510  Biso   1.000  H
  C59      1.0000 0.90323  0.43967  0.40471  Biso   1.000  C
  H30      1.0000 0.91400  0.40250  0.38750  Biso   1.000  H
  C60      1.0000 0.85405  0.49160  0.39535  Biso   1.000  C
  C61      1.0000 0.83556  0.54347  0.42177  Biso   1.000  C
  H31      1.0000 0.80000  0.57810  0.41620  Biso   1.000  H
  C62      1.0000 0.86920  0.54411  0.45611  Biso   1.000  C
  H32      1.0000 0.85580  0.57880  0.47410  Biso   1.000  H
  C63      1.0000 0.82239  0.49349  0.35700  Biso   1.000  C
  C64      1.0000 0.81000  0.42962  0.33789  Biso   1.000  C
  H33      1.0000 0.82100  0.38520  0.34940  Biso   1.000  H
  C65      1.0000 0.78176  0.43052  0.30230  Biso   1.000  C
  C66      1.0000 0.76483  0.49518  0.28537  Biso   1.000  C
  H34      1.0000 0.74470  0.49560  0.26110  Biso   1.000  H
  C67      1.0000 0.77723  0.55853  0.30372  Biso   1.000  C
  C68      1.0000 0.80591  0.55714  0.33999  Biso   1.000  C
  H35      1.0000 0.81400  0.60080  0.35280  Biso   1.000  H
  C69      1.0000 0.76381  0.62835  0.28518  Biso   1.000  C
  C70      1.0000 0.77169  0.36152  0.28180  Biso   1.000  C
  O21      1.0000 0.28676  0.18367  0.80093  Biso   1.000  O
  O22      1.0000 0.23049  0.12607  0.75447  Biso   1.000  O
  O23      1.0000 0.29630  0.80635  0.79710  Biso   1.000  O
  O24      1.0000 0.23974  0.86431  0.75104  Biso   1.000  O
  C71      1.0000 0.42233  0.99479  0.96462  Biso   1.000  C
  C72      1.0000 0.43713  0.94134  0.93907  Biso   1.000  C
  H36      1.0000 0.47100  0.90530  0.94510  Biso   1.000  H
  C73      1.0000 0.40323  0.93967  0.90471  Biso   1.000  C
  H37      1.0000 0.41400  0.90250  0.88750  Biso   1.000  H
  C74      1.0000 0.35405  0.99160  0.89535  Biso   1.000  C
  C75      1.0000 0.33556  0.04347  0.92177  Biso   1.000  C
  H38      1.0000 0.30000  0.07810  0.91620  Biso   1.000  H
  C76      1.0000 0.36920  0.04411  0.95611  Biso   1.000  C
  H39      1.0000 0.35580  0.07880  0.97410  Biso   1.000  H
  C77      1.0000 0.32239  0.99349  0.85700  Biso   1.000  C
  C78      1.0000 0.31000  0.92962  0.83789  Biso   1.000  C
  H40      1.0000 0.32100  0.88520  0.84940  Biso   1.000  H
  C79      1.0000 0.28176  0.93052  0.80230  Biso   1.000  C
  C80      1.0000 0.26483  0.99518  0.78537  Biso   1.000  C
  H41      1.0000 0.24470  0.99560  0.76110  Biso   1.000  H
  C81      1.0000 0.27723  0.05853  0.80372  Biso   1.000  C
  C82      1.0000 0.30591  0.05714  0.83999  Biso   1.000  C
  H42      1.0000 0.31400  0.10080  0.85280  Biso   1.000  H
  C83      1.0000 0.26381  0.12835  0.78518  Biso   1.000  C
  C84      1.0000 0.27169  0.86152  0.78180  Biso   1.000  C
  O25      1.0000 0.21324  0.31633  0.30093  Biso   1.000  O
  O26      1.0000 0.26951  0.37393  0.25447  Biso   1.000  O
  O27      1.0000 0.20370  0.69365  0.29710  Biso   1.000  O
  O28      1.0000 0.26026  0.63569  0.25104  Biso   1.000  O
  C85      1.0000 0.07767  0.50521  0.46462  Biso   1.000  C
  C86      1.0000 0.06287  0.55866  0.43907  Biso   1.000  C
  H43      1.0000 0.02900  0.59470  0.44510  Biso   1.000  H
  C87      1.0000 0.09677  0.56033  0.40471  Biso   1.000  C
  H44      1.0000 0.08600  0.59750  0.38750  Biso   1.000  H
  C88      1.0000 0.14595  0.50840  0.39535  Biso   1.000  C
  C89      1.0000 0.16444  0.45653  0.42177  Biso   1.000  C
  H45      1.0000 0.20000  0.42190  0.41620  Biso   1.000  H
  C90      1.0000 0.13080  0.45589  0.45611  Biso   1.000  C
  H46      1.0000 0.14420  0.42120  0.47410  Biso   1.000  H
  C91      1.0000 0.17761  0.50651  0.35700  Biso   1.000  C
  C92      1.0000 0.19000  0.57038  0.33789  Biso   1.000  C
  H47      1.0000 0.17900  0.61480  0.34940  Biso   1.000  H
  C93      1.0000 0.21824  0.56948  0.30230  Biso   1.000  C
  C94      1.0000 0.23517  0.50482  0.28537  Biso   1.000  C
  H48      1.0000 0.25530  0.50440  0.26110  Biso   1.000  H
  C95      1.0000 0.22277  0.44147  0.30372  Biso   1.000  C
  C96      1.0000 0.19409  0.44286  0.33999  Biso   1.000  C
  H49      1.0000 0.18600  0.39920  0.35280  Biso   1.000  H
  C97      1.0000 0.23619  0.37165  0.28518  Biso   1.000  C
  C98      1.0000 0.22831  0.63848  0.28180  Biso   1.000  C
  O29      1.0000 0.71324  0.81633  0.80093  Biso   1.000  O
  O30      1.0000 0.76951  0.87393  0.75447  Biso   1.000  O
  O31      1.0000 0.70370  0.19365  0.79710  Biso   1.000  O
  O32      1.0000 0.76026  0.13569  0.75104  Biso   1.000  O
  C99      1.0000 0.57767  0.00521  0.96462  Biso   1.000  C
  C100     1.0000 0.56287  0.05866  0.93907  Biso   1.000  C
  H50      1.0000 0.52900  0.09470  0.94510  Biso   1.000  H
  C101     1.0000 0.59677  0.06033  0.90471  Biso   1.000  C
  H51      1.0000 0.58600  0.09750  0.88750  Biso   1.000  H
  C102     1.0000 0.64595  0.00840  0.89535  Biso   1.000  C
  C103     1.0000 0.66444  0.95653  0.92177  Biso   1.000  C
  H52      1.0000 0.70000  0.92190  0.91620  Biso   1.000  H
  C104     1.0000 0.63080  0.95589  0.95611  Biso   1.000  C
  H53      1.0000 0.64420  0.92120  0.97410  Biso   1.000  H
  C105     1.0000 0.67761  0.00651  0.85700  Biso   1.000  C
  C106     1.0000 0.69000  0.07038  0.83789  Biso   1.000  C
  H54      1.0000 0.67900  0.11480  0.84940  Biso   1.000  H
  C107     1.0000 0.71824  0.06948  0.80230  Biso   1.000  C
  C108     1.0000 0.73517  0.00482  0.78537  Biso   1.000  C
  H55      1.0000 0.75530  0.00440  0.76110  Biso   1.000  H
  C109     1.0000 0.72277  0.94147  0.80372  Biso   1.000  C
  C110     1.0000 0.69409  0.94286  0.83999  Biso   1.000  C
  H56      1.0000 0.68600  0.89920  0.85280  Biso   1.000  H
  C111     1.0000 0.73619  0.87165  0.78518  Biso   1.000  C
  C112     1.0000 0.72831  0.13848  0.78180  Biso   1.000  C
  O33      1.0000 0.68367  0.78676  0.30093  Biso   1.000  O
  O34      1.0000 0.62607  0.73049  0.25447  Biso   1.000  O
  O35      1.0000 0.30635  0.79630  0.29710  Biso   1.000  O
  O36      1.0000 0.36431  0.73974  0.25104  Biso   1.000  O
  C113     1.0000 0.49479  0.92233  0.46462  Biso   1.000  C
  C114     1.0000 0.44134  0.93713  0.43907  Biso   1.000  C
  H57      1.0000 0.40530  0.97100  0.44510  Biso   1.000  H
  C115     1.0000 0.43967  0.90323  0.40471  Biso   1.000  C
  H58      1.0000 0.40250  0.91400  0.38750  Biso   1.000  H
  C116     1.0000 0.49160  0.85405  0.39535  Biso   1.000  C
  C117     1.0000 0.54347  0.83556  0.42177  Biso   1.000  C
  H59      1.0000 0.57810  0.80000  0.41620  Biso   1.000  H
  C118     1.0000 0.54411  0.86920  0.45611  Biso   1.000  C
  H60      1.0000 0.57880  0.85580  0.47410  Biso   1.000  H
  C119     1.0000 0.49349  0.82239  0.35700  Biso   1.000  C
  C120     1.0000 0.42962  0.81000  0.33789  Biso   1.000  C
  H61      1.0000 0.38520  0.82100  0.34940  Biso   1.000  H
  C121     1.0000 0.43052  0.78176  0.30230  Biso   1.000  C
  C122     1.0000 0.49518  0.76483  0.28537  Biso   1.000  C
  H62      1.0000 0.49560  0.74470  0.26110  Biso   1.000  H
  C123     1.0000 0.55853  0.77723  0.30372  Biso   1.000  C
  C124     1.0000 0.55714  0.80591  0.33999  Biso   1.000  C
  H63      1.0000 0.60080  0.81400  0.35280  Biso   1.000  H
  C125     1.0000 0.62835  0.76381  0.28518  Biso   1.000  C
  C126     1.0000 0.36152  0.77169  0.28180  Biso   1.000  C
  O37      1.0000 0.18367  0.28676  0.80093  Biso   1.000  O
  O38      1.0000 0.12607  0.23049  0.75447  Biso   1.000  O
  O39      1.0000 0.80635  0.29630  0.79710  Biso   1.000  O
  O40      1.0000 0.86431  0.23974  0.75104  Biso   1.000  O
  C127     1.0000 0.99479  0.42233  0.96462  Biso   1.000  C
  C128     1.0000 0.94134  0.43713  0.93907  Biso   1.000  C
  H64      1.0000 0.90530  0.47100  0.94510  Biso   1.000  H
  C129     1.0000 0.93967  0.40323  0.90471  Biso   1.000  C
  H65      1.0000 0.90250  0.41400  0.88750  Biso   1.000  H
  C130     1.0000 0.99160  0.35405  0.89535  Biso   1.000  C
  C131     1.0000 0.04347  0.33556  0.92177  Biso   1.000  C
  H66      1.0000 0.07810  0.30000  0.91620  Biso   1.000  H
  C132     1.0000 0.04411  0.36920  0.95611  Biso   1.000  C
  H67      1.0000 0.07880  0.35580  0.97410  Biso   1.000  H
  C133     1.0000 0.99349  0.32239  0.85700  Biso   1.000  C
  C134     1.0000 0.92962  0.31000  0.83789  Biso   1.000  C
  H68      1.0000 0.88520  0.32100  0.84940  Biso   1.000  H
  C135     1.0000 0.93052  0.28176  0.80230  Biso   1.000  C
  C136     1.0000 0.99518  0.26483  0.78537  Biso   1.000  C
  H69      1.0000 0.99560  0.24470  0.76110  Biso   1.000  H
  C137     1.0000 0.05853  0.27723  0.80372  Biso   1.000  C
  C138     1.0000 0.05714  0.30591  0.83999  Biso   1.000  C
  H70      1.0000 0.10080  0.31400  0.85280  Biso   1.000  H
  C139     1.0000 0.12835  0.26381  0.78518  Biso   1.000  C
  C140     1.0000 0.86152  0.27169  0.78180  Biso   1.000  C
  O41      1.0000 0.31633  0.21324  0.30093  Biso   1.000  O
  O42      1.0000 0.37393  0.26951  0.25447  Biso   1.000  O
  O43      1.0000 0.69365  0.20370  0.29710  Biso   1.000  O
  O44      1.0000 0.63569  0.26026  0.25104  Biso   1.000  O
  C141     1.0000 0.50521  0.07767  0.46462  Biso   1.000  C
  C142     1.0000 0.55866  0.06287  0.43907  Biso   1.000  C
  H71      1.0000 0.59470  0.02900  0.44510  Biso   1.000  H
  C143     1.0000 0.56033  0.09677  0.40471  Biso   1.000  C
  H72      1.0000 0.59750  0.08600  0.38750  Biso   1.000  H
  C144     1.0000 0.50840  0.14595  0.39535  Biso   1.000  C
  C145     1.0000 0.45653  0.16444  0.42177  Biso   1.000  C
  H73      1.0000 0.42190  0.20000  0.41620  Biso   1.000  H
  C146     1.0000 0.45589  0.13080  0.45611  Biso   1.000  C
  H74      1.0000 0.42120  0.14420  0.47410  Biso   1.000  H
  C147     1.0000 0.50651  0.17761  0.35700  Biso   1.000  C
  C148     1.0000 0.57038  0.19000  0.33789  Biso   1.000  C
  H75      1.0000 0.61480  0.17900  0.34940  Biso   1.000  H
  C149     1.0000 0.56948  0.21824  0.30230  Biso   1.000  C
  C150     1.0000 0.50482  0.23517  0.28537  Biso   1.000  C
  H76      1.0000 0.50440  0.25530  0.26110  Biso   1.000  H
  C151     1.0000 0.44147  0.22277  0.30372  Biso   1.000  C
  C152     1.0000 0.44286  0.19409  0.33999  Biso   1.000  C
  H77      1.0000 0.39920  0.18600  0.35280  Biso   1.000  H
  C153     1.0000 0.37165  0.23619  0.28518  Biso   1.000  C
  C154     1.0000 0.63848  0.22831  0.28180  Biso   1.000  C
  O45      1.0000 0.81633  0.71324  0.80093  Biso   1.000  O
  O46      1.0000 0.87393  0.76951  0.75447  Biso   1.000  O
  O47      1.0000 0.19365  0.70370  0.79710  Biso   1.000  O
  O48      1.0000 0.13569  0.76026  0.75104  Biso   1.000  O
  C155     1.0000 0.00521  0.57767  0.96462  Biso   1.000  C
  C156     1.0000 0.05866  0.56287  0.93907  Biso   1.000  C
  H78      1.0000 0.09470  0.52900  0.94510  Biso   1.000  H
  C157     1.0000 0.06033  0.59677  0.90471  Biso   1.000  C
  H79      1.0000 0.09750  0.58600  0.88750  Biso   1.000  H
  C158     1.0000 0.00840  0.64595  0.89535  Biso   1.000  C
  C159     1.0000 0.95653  0.66444  0.92177  Biso   1.000  C
  H80      1.0000 0.92190  0.70000  0.91620  Biso   1.000  H
  C160     1.0000 0.95589  0.63080  0.95611  Biso   1.000  C
  H81      1.0000 0.92120  0.64420  0.97410  Biso   1.000  H
  C161     1.0000 0.00651  0.67761  0.85700  Biso   1.000  C
  C162     1.0000 0.07038  0.69000  0.83789  Biso   1.000  C
  H82      1.0000 0.11480  0.67900  0.84940  Biso   1.000  H
  C163     1.0000 0.06948  0.71824  0.80230  Biso   1.000  C
  C164     1.0000 0.00482  0.73517  0.78537  Biso   1.000  C
  H83      1.0000 0.00440  0.75530  0.76110  Biso   1.000  H
  C165     1.0000 0.94147  0.72277  0.80372  Biso   1.000  C
  C166     1.0000 0.94286  0.69409  0.83999  Biso   1.000  C
  H84      1.0000 0.89920  0.68600  0.85280  Biso   1.000  H
  C167     1.0000 0.87165  0.73619  0.78518  Biso   1.000  C
  C168     1.0000 0.13848  0.72831  0.78180  Biso   1.000  C
  O49      1.0000 0.21324  0.68367  0.69907  Biso   1.000  O
  O50      1.0000 0.26951  0.62607  0.74553  Biso   1.000  O
  O51      1.0000 0.20370  0.30635  0.70290  Biso   1.000  O
  O52      1.0000 0.26026  0.36431  0.74896  Biso   1.000  O
  C169     1.0000 0.07767  0.49479  0.53538  Biso   1.000  C
  C170     1.0000 0.06287  0.44134  0.56093  Biso   1.000  C
  H85      1.0000 0.02900  0.40530  0.55490  Biso   1.000  H
  C171     1.0000 0.09677  0.43967  0.59529  Biso   1.000  C
  H86      1.0000 0.08600  0.40250  0.61250  Biso   1.000  H
  C172     1.0000 0.14595  0.49160  0.60465  Biso   1.000  C
  C173     1.0000 0.16444  0.54347  0.57823  Biso   1.000  C
  H87      1.0000 0.20000  0.57810  0.58380  Biso   1.000  H
  C174     1.0000 0.13080  0.54411  0.54389  Biso   1.000  C
  H88      1.0000 0.14420  0.57880  0.52590  Biso   1.000  H
  C175     1.0000 0.17761  0.49349  0.64300  Biso   1.000  C
  C176     1.0000 0.19000  0.42962  0.66211  Biso   1.000  C
  H89      1.0000 0.17900  0.38520  0.65060  Biso   1.000  H
  C177     1.0000 0.21824  0.43052  0.69770  Biso   1.000  C
  C178     1.0000 0.23517  0.49518  0.71463  Biso   1.000  C
  H90      1.0000 0.25530  0.49560  0.73890  Biso   1.000  H
  C179     1.0000 0.22277  0.55853  0.69628  Biso   1.000  C
  C180     1.0000 0.19409  0.55714  0.66001  Biso   1.000  C
  H91      1.0000 0.18600  0.60080  0.64720  Biso   1.000  H
  C181     1.0000 0.23619  0.62835  0.71482  Biso   1.000  C
  C182     1.0000 0.22831  0.36152  0.71820  Biso   1.000  C
  O53      1.0000 0.71324  0.18367  0.19907  Biso   1.000  O
  O54      1.0000 0.76951  0.12607  0.24553  Biso   1.000  O
  O55      1.0000 0.70370  0.80635  0.20290  Biso   1.000  O
  O56      1.0000 0.76026  0.86431  0.24896  Biso   1.000  O
  C183     1.0000 0.57767  0.99479  0.03538  Biso   1.000  C
  C184     1.0000 0.56287  0.94134  0.06093  Biso   1.000  C
  H92      1.0000 0.52900  0.90530  0.05490  Biso   1.000  H
  C185     1.0000 0.59677  0.93967  0.09529  Biso   1.000  C
  H93      1.0000 0.58600  0.90250  0.11250  Biso   1.000  H
  C186     1.0000 0.64595  0.99160  0.10465  Biso   1.000  C
  C187     1.0000 0.66444  0.04347  0.07823  Biso   1.000  C
  H94      1.0000 0.70000  0.07810  0.08380  Biso   1.000  H
  C188     1.0000 0.63080  0.04411  0.04389  Biso   1.000  C
  H95      1.0000 0.64420  0.07880  0.02590  Biso   1.000  H
  C189     1.0000 0.67761  0.99349  0.14300  Biso   1.000  C
  C190     1.0000 0.69000  0.92962  0.16211  Biso   1.000  C
  H96      1.0000 0.67900  0.88520  0.15060  Biso   1.000  H
  C191     1.0000 0.71824  0.93052  0.19770  Biso   1.000  C
  C192     1.0000 0.73517  0.99518  0.21463  Biso   1.000  C
  H97      1.0000 0.75530  0.99560  0.23890  Biso   1.000  H
  C193     1.0000 0.72277  0.05853  0.19628  Biso   1.000  C
  C194     1.0000 0.69409  0.05714  0.16001  Biso   1.000  C
  H98      1.0000 0.68600  0.10080  0.14720  Biso   1.000  H
  C195     1.0000 0.73619  0.12835  0.21482  Biso   1.000  C
  C196     1.0000 0.72831  0.86152  0.21820  Biso   1.000  C
  O57      1.0000 0.78676  0.31633  0.69907  Biso   1.000  O
  O58      1.0000 0.73049  0.37393  0.74553  Biso   1.000  O
  O59      1.0000 0.79630  0.69365  0.70290  Biso   1.000  O
  O60      1.0000 0.73974  0.63569  0.74896  Biso   1.000  O
  C197     1.0000 0.92233  0.50521  0.53538  Biso   1.000  C
  C198     1.0000 0.93713  0.55866  0.56093  Biso   1.000  C
  H99      1.0000 0.97100  0.59470  0.55490  Biso   1.000  H
  C199     1.0000 0.90323  0.56033  0.59529  Biso   1.000  C
  H100     1.0000 0.91400  0.59750  0.61250  Biso   1.000  H
  C200     1.0000 0.85405  0.50840  0.60465  Biso   1.000  C
  C201     1.0000 0.83556  0.45653  0.57823  Biso   1.000  C
  H101     1.0000 0.80000  0.42190  0.58380  Biso   1.000  H
  C202     1.0000 0.86920  0.45589  0.54389  Biso   1.000  C
  H102     1.0000 0.85580  0.42120  0.52590  Biso   1.000  H
  C203     1.0000 0.82239  0.50651  0.64300  Biso   1.000  C
  C204     1.0000 0.81000  0.57038  0.66211  Biso   1.000  C
  H103     1.0000 0.82100  0.61480  0.65060  Biso   1.000  H
  C205     1.0000 0.78176  0.56948  0.69770  Biso   1.000  C
  C206     1.0000 0.76483  0.50482  0.71463  Biso   1.000  C
  H104     1.0000 0.74470  0.50440  0.73890  Biso   1.000  H
  C207     1.0000 0.77723  0.44147  0.69628  Biso   1.000  C
  C208     1.0000 0.80591  0.44286  0.66001  Biso   1.000  C
  H105     1.0000 0.81400  0.39920  0.64720  Biso   1.000  H
  C209     1.0000 0.76381  0.37165  0.71482  Biso   1.000  C
  C210     1.0000 0.77169  0.63848  0.71820  Biso   1.000  C
  O61      1.0000 0.28676  0.81633  0.19907  Biso   1.000  O
  O62      1.0000 0.23049  0.87393  0.24553  Biso   1.000  O
  O63      1.0000 0.29630  0.19365  0.20290  Biso   1.000  O
  O64      1.0000 0.23974  0.13569  0.24896  Biso   1.000  O
  C211     1.0000 0.42233  0.00521  0.03538  Biso   1.000  C
  C212     1.0000 0.43713  0.05866  0.06093  Biso   1.000  C
  H106     1.0000 0.47100  0.09470  0.05490  Biso   1.000  H
  C213     1.0000 0.40323  0.06033  0.09529  Biso   1.000  C
  H107     1.0000 0.41400  0.09750  0.11250  Biso   1.000  H
  C214     1.0000 0.35405  0.00840  0.10465  Biso   1.000  C
  C215     1.0000 0.33556  0.95653  0.07823  Biso   1.000  C
  H108     1.0000 0.30000  0.92190  0.08380  Biso   1.000  H
  C216     1.0000 0.36920  0.95589  0.04389  Biso   1.000  C
  H109     1.0000 0.35580  0.92120  0.02590  Biso   1.000  H
  C217     1.0000 0.32239  0.00651  0.14300  Biso   1.000  C
  C218     1.0000 0.31000  0.07038  0.16211  Biso   1.000  C
  H110     1.0000 0.32100  0.11480  0.15060  Biso   1.000  H
  C219     1.0000 0.28176  0.06948  0.19770  Biso   1.000  C
  C220     1.0000 0.26483  0.00482  0.21463  Biso   1.000  C
  H111     1.0000 0.24470  0.00440  0.23890  Biso   1.000  H
  C221     1.0000 0.27723  0.94147  0.19628  Biso   1.000  C
  C222     1.0000 0.30591  0.94286  0.16001  Biso   1.000  C
  H112     1.0000 0.31400  0.89920  0.14720  Biso   1.000  H
  C223     1.0000 0.26381  0.87165  0.21482  Biso   1.000  C
  C224     1.0000 0.27169  0.13848  0.21820  Biso   1.000  C
  Cu1      1.0000 0.22091  0.77909  0.72097  Biso   1.000  Cu
  Cu2      1.0000 0.72091  0.27909  0.22097  Biso   1.000  Cu
  Cu3      1.0000 0.77909  0.22091  0.72097  Biso   1.000  Cu
  Cu4      1.0000 0.27909  0.72091  0.22097  Biso   1.000  Cu
  Cu5      1.0000 0.77909  0.77909  0.27903  Biso   1.000  Cu
  Cu6      1.0000 0.27909  0.27909  0.77903  Biso   1.000  Cu
  Cu7      1.0000 0.22091  0.22091  0.27903  Biso   1.000  Cu
  Cu8      1.0000 0.72091  0.72091  0.77903  Biso   1.000  Cu
  Cu9      1.0000 0.78887  0.78887  0.72457  Biso   1.000  Cu
  Cu10     1.0000 0.28887  0.28887  0.22457  Biso   1.000  Cu
  Cu11     1.0000 0.21113  0.21113  0.72457  Biso   1.000  Cu
  Cu12     1.0000 0.71113  0.71113  0.22457  Biso   1.000  Cu
  Cu13     1.0000 0.78887  0.21113  0.27543  Biso   1.000  Cu
  Cu14     1.0000 0.28887  0.71113  0.77543  Biso   1.000  Cu
  Cu15     1.0000 0.21113  0.78887  0.27543  Biso   1.000  Cu
  Cu16     1.0000 0.71113  0.28887  0.77543  Biso   1.000  Cu
  C225     1.0000 0.50000  0.96410  0.50000  Biso   1.000  C
  C226     1.0000 0.00000  0.46410  0.00000  Biso   1.000  C
  C227     1.0000 0.50000  0.03590  0.50000  Biso   1.000  C
  C228     1.0000 0.00000  0.53590  0.00000  Biso   1.000  C
  C229     1.0000 0.96410  0.50000  0.50000  Biso   1.000  C
  C230     1.0000 0.46410  0.00000  0.00000  Biso   1.000  C
  C231     1.0000 0.03590  0.50000  0.50000  Biso   1.000  C
  C232     1.0000 0.53590  0.00000  0.00000  Biso   1.000  C
