data_image0
_cell_length_a       25.5147
_cell_length_b       13.4137
_cell_length_c       14.6329
_cell_angle_alpha    90
_cell_angle_beta     101.966
_cell_angle_gamma    90

_symmetry_space_group_name_H-M    "P 1"
_symmetry_int_tables_number       1

loop_
  _symmetry_equiv_pos_as_xyz
  'x, y, z'

loop_
  _atom_site_label
  _atom_site_occupancy
  _atom_site_fract_x
  _atom_site_fract_y
  _atom_site_fract_z
  _atom_site_thermal_displace_type
  _atom_site_B_iso_or_equiv
  _atom_site_type_symbol
  Ce1      1.0000 0.32595  0.30895  0.54866  Biso   1.000  Ce
  O1       1.0000 0.22380  0.34680  0.44790  Biso   1.000  O
  O2       1.0000 0.28910  0.45070  0.44290  Biso   1.000  O
  O3       1.0000 0.26280  0.64440  0.14510  Biso   1.000  O
  O4       1.0000 0.18710  0.72930  0.10560  Biso   1.000  O
  O5       1.0000 0.40990  0.34470  0.47670  Biso   1.000  O
  O6       1.0000 0.41170  0.20080  0.53950  Biso   1.000  O
  O7       1.0000 0.47180  0.23350  0.46380  Biso   1.000  O
  N1       1.0000 0.43140  0.25940  0.49410  Biso   1.000  N
  C1       1.0000 0.24200  0.42560  0.41790  Biso   1.000  C
  C2       1.0000 0.20440  0.48660  0.34770  Biso   1.000  C
  C3       1.0000 0.22630  0.54830  0.28810  Biso   1.000  C
  H1       1.0000 0.26320  0.55320  0.29500  Biso   1.000  H
  C4       1.0000 0.19270  0.60260  0.21830  Biso   1.000  C
  C5       1.0000 0.13760  0.59670  0.21070  Biso   1.000  C
  H2       1.0000 0.11540  0.63410  0.16500  Biso   1.000  H
  C6       1.0000 0.11480  0.53730  0.26870  Biso   1.000  C
  C7       1.0000 0.14950  0.48250  0.33980  Biso   1.000  C
  H3       1.0000 0.13510  0.44370  0.38120  Biso   1.000  H
  C8       1.0000 0.21570  0.66350  0.15150  Biso   1.000  C
  C9       1.0000 0.05590  0.53440  0.26060  Biso   1.000  C
  C10      1.0000 0.03300  0.53230  0.33710  Biso   1.000  C
  H4       1.0000 0.05460  0.53080  0.39670  Biso   1.000  H
  C11      1.0000 0.97760  0.53250  0.32610  Biso   1.000  C
  H5       1.0000 0.96270  0.53130  0.37890  Biso   1.000  H
  Ce2      1.0000 0.82595  0.80895  0.54866  Biso   1.000  Ce
  O8       1.0000 0.72380  0.84680  0.44790  Biso   1.000  O
  O9       1.0000 0.78910  0.95070  0.44290  Biso   1.000  O
  O10      1.0000 0.76280  0.14440  0.14510  Biso   1.000  O
  O11      1.0000 0.68710  0.22930  0.10560  Biso   1.000  O
  O12      1.0000 0.90990  0.84470  0.47670  Biso   1.000  O
  O13      1.0000 0.91170  0.70080  0.53950  Biso   1.000  O
  O14      1.0000 0.97180  0.73350  0.46380  Biso   1.000  O
  N2       1.0000 0.93140  0.75940  0.49410  Biso   1.000  N
  C12      1.0000 0.74200  0.92560  0.41790  Biso   1.000  C
  C13      1.0000 0.70440  0.98660  0.34770  Biso   1.000  C
  C14      1.0000 0.72630  0.04830  0.28810  Biso   1.000  C
  H6       1.0000 0.76320  0.05320  0.29500  Biso   1.000  H
  C15      1.0000 0.69270  0.10260  0.21830  Biso   1.000  C
  C16      1.0000 0.63760  0.09670  0.21070  Biso   1.000  C
  H7       1.0000 0.61540  0.13410  0.16500  Biso   1.000  H
  C17      1.0000 0.61480  0.03730  0.26870  Biso   1.000  C
  C18      1.0000 0.64950  0.98250  0.33980  Biso   1.000  C
  H8       1.0000 0.63510  0.94370  0.38120  Biso   1.000  H
  C19      1.0000 0.71570  0.16350  0.15150  Biso   1.000  C
  C20      1.0000 0.55590  0.03440  0.26060  Biso   1.000  C
  C21      1.0000 0.53300  0.03230  0.33710  Biso   1.000  C
  H9       1.0000 0.55460  0.03080  0.39670  Biso   1.000  H
  C22      1.0000 0.47760  0.03250  0.32610  Biso   1.000  C
  H10      1.0000 0.46270  0.03130  0.37890  Biso   1.000  H
  Ce3      1.0000 0.67405  0.30895  0.95134  Biso   1.000  Ce
  O15      1.0000 0.77620  0.34680  0.05210  Biso   1.000  O
  O16      1.0000 0.71090  0.45070  0.05710  Biso   1.000  O
  O17      1.0000 0.73720  0.64440  0.35490  Biso   1.000  O
  O18      1.0000 0.81290  0.72930  0.39440  Biso   1.000  O
  O19      1.0000 0.59010  0.34470  0.02330  Biso   1.000  O
  O20      1.0000 0.58830  0.20080  0.96050  Biso   1.000  O
  O21      1.0000 0.52820  0.23350  0.03620  Biso   1.000  O
  N3       1.0000 0.56860  0.25940  0.00590  Biso   1.000  N
  C23      1.0000 0.75800  0.42560  0.08210  Biso   1.000  C
  C24      1.0000 0.79560  0.48660  0.15230  Biso   1.000  C
  C25      1.0000 0.77370  0.54830  0.21190  Biso   1.000  C
  H11      1.0000 0.73680  0.55320  0.20500  Biso   1.000  H
  C26      1.0000 0.80730  0.60260  0.28170  Biso   1.000  C
  C27      1.0000 0.86240  0.59670  0.28930  Biso   1.000  C
  H12      1.0000 0.88460  0.63410  0.33500  Biso   1.000  H
  C28      1.0000 0.88520  0.53730  0.23130  Biso   1.000  C
  C29      1.0000 0.85050  0.48250  0.16020  Biso   1.000  C
  H13      1.0000 0.86490  0.44370  0.11880  Biso   1.000  H
  C30      1.0000 0.78430  0.66350  0.34850  Biso   1.000  C
  C31      1.0000 0.94410  0.53440  0.23940  Biso   1.000  C
  C32      1.0000 0.96700  0.53230  0.16290  Biso   1.000  C
  H14      1.0000 0.94540  0.53080  0.10330  Biso   1.000  H
  C33      1.0000 0.02240  0.53250  0.17390  Biso   1.000  C
  H15      1.0000 0.03730  0.53130  0.12110  Biso   1.000  H
  Ce4      1.0000 0.17405  0.80895  0.95134  Biso   1.000  Ce
  O22      1.0000 0.27620  0.84680  0.05210  Biso   1.000  O
  O23      1.0000 0.21090  0.95070  0.05710  Biso   1.000  O
  O24      1.0000 0.23720  0.14440  0.35490  Biso   1.000  O
  O25      1.0000 0.31290  0.22930  0.39440  Biso   1.000  O
  O26      1.0000 0.09010  0.84470  0.02330  Biso   1.000  O
  O27      1.0000 0.08830  0.70080  0.96050  Biso   1.000  O
  O28      1.0000 0.02820  0.73350  0.03620  Biso   1.000  O
  N4       1.0000 0.06860  0.75940  0.00590  Biso   1.000  N
  C34      1.0000 0.25800  0.92560  0.08210  Biso   1.000  C
  C35      1.0000 0.29560  0.98660  0.15230  Biso   1.000  C
  C36      1.0000 0.27370  0.04830  0.21190  Biso   1.000  C
  H16      1.0000 0.23680  0.05320  0.20500  Biso   1.000  H
  C37      1.0000 0.30730  0.10260  0.28170  Biso   1.000  C
  C38      1.0000 0.36240  0.09670  0.28930  Biso   1.000  C
  H17      1.0000 0.38460  0.13410  0.33500  Biso   1.000  H
  C39      1.0000 0.38520  0.03730  0.23130  Biso   1.000  C
  C40      1.0000 0.35050  0.98250  0.16020  Biso   1.000  C
  H18      1.0000 0.36490  0.94370  0.11880  Biso   1.000  H
  C41      1.0000 0.28430  0.16350  0.34850  Biso   1.000  C
  C42      1.0000 0.44410  0.03440  0.23940  Biso   1.000  C
  C43      1.0000 0.46700  0.03230  0.16290  Biso   1.000  C
  H19      1.0000 0.44540  0.03080  0.10330  Biso   1.000  H
  C44      1.0000 0.52240  0.03250  0.17390  Biso   1.000  C
  H20      1.0000 0.53730  0.03130  0.12110  Biso   1.000  H
  Ce5      1.0000 0.67405  0.69105  0.45134  Biso   1.000  Ce
  O29      1.0000 0.77620  0.65320  0.55210  Biso   1.000  O
  O30      1.0000 0.71090  0.54930  0.55710  Biso   1.000  O
  O31      1.0000 0.73720  0.35560  0.85490  Biso   1.000  O
  O32      1.0000 0.81290  0.27070  0.89440  Biso   1.000  O
  O33      1.0000 0.59010  0.65530  0.52330  Biso   1.000  O
  O34      1.0000 0.58830  0.79920  0.46050  Biso   1.000  O
  O35      1.0000 0.52820  0.76650  0.53620  Biso   1.000  O
  N5       1.0000 0.56860  0.74060  0.50590  Biso   1.000  N
  C45      1.0000 0.75800  0.57440  0.58210  Biso   1.000  C
  C46      1.0000 0.79560  0.51340  0.65230  Biso   1.000  C
  C47      1.0000 0.77370  0.45170  0.71190  Biso   1.000  C
  H21      1.0000 0.73680  0.44680  0.70500  Biso   1.000  H
  C48      1.0000 0.80730  0.39740  0.78170  Biso   1.000  C
  C49      1.0000 0.86240  0.40330  0.78930  Biso   1.000  C
  H22      1.0000 0.88460  0.36590  0.83500  Biso   1.000  H
  C50      1.0000 0.88520  0.46270  0.73130  Biso   1.000  C
  C51      1.0000 0.85050  0.51750  0.66020  Biso   1.000  C
  H23      1.0000 0.86490  0.55630  0.61880  Biso   1.000  H
  C52      1.0000 0.78430  0.33650  0.84850  Biso   1.000  C
  C53      1.0000 0.94410  0.46560  0.73940  Biso   1.000  C
  C54      1.0000 0.96700  0.46770  0.66290  Biso   1.000  C
  H24      1.0000 0.94540  0.46920  0.60330  Biso   1.000  H
  C55      1.0000 0.02240  0.46750  0.67390  Biso   1.000  C
  H25      1.0000 0.03730  0.46870  0.62110  Biso   1.000  H
  Ce6      1.0000 0.17405  0.19105  0.45134  Biso   1.000  Ce
  O36      1.0000 0.27620  0.15320  0.55210  Biso   1.000  O
  O37      1.0000 0.21090  0.04930  0.55710  Biso   1.000  O
  O38      1.0000 0.23720  0.85560  0.85490  Biso   1.000  O
  O39      1.0000 0.31290  0.77070  0.89440  Biso   1.000  O
  O40      1.0000 0.09010  0.15530  0.52330  Biso   1.000  O
  O41      1.0000 0.08830  0.29920  0.46050  Biso   1.000  O
  O42      1.0000 0.02820  0.26650  0.53620  Biso   1.000  O
  N6       1.0000 0.06860  0.24060  0.50590  Biso   1.000  N
  C56      1.0000 0.25800  0.07440  0.58210  Biso   1.000  C
  C57      1.0000 0.29560  0.01340  0.65230  Biso   1.000  C
  C58      1.0000 0.27370  0.95170  0.71190  Biso   1.000  C
  H26      1.0000 0.23680  0.94680  0.70500  Biso   1.000  H
  C59      1.0000 0.30730  0.89740  0.78170  Biso   1.000  C
  C60      1.0000 0.36240  0.90330  0.78930  Biso   1.000  C
  H27      1.0000 0.38460  0.86590  0.83500  Biso   1.000  H
  C61      1.0000 0.38520  0.96270  0.73130  Biso   1.000  C
  C62      1.0000 0.35050  0.01750  0.66020  Biso   1.000  C
  H28      1.0000 0.36490  0.05630  0.61880  Biso   1.000  H
  C63      1.0000 0.28430  0.83650  0.84850  Biso   1.000  C
  C64      1.0000 0.44410  0.96560  0.73940  Biso   1.000  C
  C65      1.0000 0.46700  0.96770  0.66290  Biso   1.000  C
  H29      1.0000 0.44540  0.96920  0.60330  Biso   1.000  H
  C66      1.0000 0.52240  0.96750  0.67390  Biso   1.000  C
  H30      1.0000 0.53730  0.96870  0.62110  Biso   1.000  H
  Ce7      1.0000 0.32595  0.69105  0.04866  Biso   1.000  Ce
  O43      1.0000 0.22380  0.65320  0.94790  Biso   1.000  O
  O44      1.0000 0.28910  0.54930  0.94290  Biso   1.000  O
  O45      1.0000 0.26280  0.35560  0.64510  Biso   1.000  O
  O46      1.0000 0.18710  0.27070  0.60560  Biso   1.000  O
  O47      1.0000 0.40990  0.65530  0.97670  Biso   1.000  O
  O48      1.0000 0.41170  0.79920  0.03950  Biso   1.000  O
  O49      1.0000 0.47180  0.76650  0.96380  Biso   1.000  O
  N7       1.0000 0.43140  0.74060  0.99410  Biso   1.000  N
  C67      1.0000 0.24200  0.57440  0.91790  Biso   1.000  C
  C68      1.0000 0.20440  0.51340  0.84770  Biso   1.000  C
  C69      1.0000 0.22630  0.45170  0.78810  Biso   1.000  C
  H31      1.0000 0.26320  0.44680  0.79500  Biso   1.000  H
  C70      1.0000 0.19270  0.39740  0.71830  Biso   1.000  C
  C71      1.0000 0.13760  0.40330  0.71070  Biso   1.000  C
  H32      1.0000 0.11540  0.36590  0.66500  Biso   1.000  H
  C72      1.0000 0.11480  0.46270  0.76870  Biso   1.000  C
  C73      1.0000 0.14950  0.51750  0.83980  Biso   1.000  C
  H33      1.0000 0.13510  0.55630  0.88120  Biso   1.000  H
  C74      1.0000 0.21570  0.33650  0.65150  Biso   1.000  C
  C75      1.0000 0.05590  0.46560  0.76060  Biso   1.000  C
  C76      1.0000 0.03300  0.46770  0.83710  Biso   1.000  C
  H34      1.0000 0.05460  0.46920  0.89670  Biso   1.000  H
  C77      1.0000 0.97760  0.46750  0.82610  Biso   1.000  C
  H35      1.0000 0.96270  0.46870  0.87890  Biso   1.000  H
  Ce8      1.0000 0.82595  0.19105  0.04866  Biso   1.000  Ce
  O50      1.0000 0.72380  0.15320  0.94790  Biso   1.000  O
  O51      1.0000 0.78910  0.04930  0.94290  Biso   1.000  O
  O52      1.0000 0.76280  0.85560  0.64510  Biso   1.000  O
  O53      1.0000 0.68710  0.77070  0.60560  Biso   1.000  O
  O54      1.0000 0.90990  0.15530  0.97670  Biso   1.000  O
  O55      1.0000 0.91170  0.29920  0.03950  Biso   1.000  O
  O56      1.0000 0.97180  0.26650  0.96380  Biso   1.000  O
  N8       1.0000 0.93140  0.24060  0.99410  Biso   1.000  N
  C78      1.0000 0.74200  0.07440  0.91790  Biso   1.000  C
  C79      1.0000 0.70440  0.01340  0.84770  Biso   1.000  C
  C80      1.0000 0.72630  0.95170  0.78810  Biso   1.000  C
  H36      1.0000 0.76320  0.94680  0.79500  Biso   1.000  H
  C81      1.0000 0.69270  0.89740  0.71830  Biso   1.000  C
  C82      1.0000 0.63760  0.90330  0.71070  Biso   1.000  C
  H37      1.0000 0.61540  0.86590  0.66500  Biso   1.000  H
  C83      1.0000 0.61480  0.96270  0.76870  Biso   1.000  C
  C84      1.0000 0.64950  0.01750  0.83980  Biso   1.000  C
  H38      1.0000 0.63510  0.05630  0.88120  Biso   1.000  H
  C85      1.0000 0.71570  0.83650  0.65150  Biso   1.000  C
  C86      1.0000 0.55590  0.96560  0.76060  Biso   1.000  C
  C87      1.0000 0.53300  0.96770  0.83710  Biso   1.000  C
  H39      1.0000 0.55460  0.96920  0.89670  Biso   1.000  H
  C88      1.0000 0.47760  0.96750  0.82610  Biso   1.000  C
  H40      1.0000 0.46270  0.96870  0.87890  Biso   1.000  H
