data_image0
_cell_length_a       19.053
_cell_length_b       18.801
_cell_length_c       22.9434
_cell_angle_alpha    90
_cell_angle_beta     90
_cell_angle_gamma    90

_symmetry_space_group_name_H-M    "P 1"
_symmetry_int_tables_number       1

loop_
  _symmetry_equiv_pos_as_xyz
  'x, y, z'

loop_
  _atom_site_label
  _atom_site_occupancy
  _atom_site_fract_x
  _atom_site_fract_y
  _atom_site_fract_z
  _atom_site_thermal_displace_type
  _atom_site_B_iso_or_equiv
  _atom_site_type_symbol
  Zn1      1.0000 0.35443  0.76280  0.21658  Biso   1.000  Zn
  Zn2      1.0000 0.22837  0.73772  0.37421  Biso   1.000  Zn
  Zn3      1.0000 0.22864  0.73381  0.12111  Biso   1.000  Zn
  Zn4      1.0000 0.25461  0.10766  0.46896  Biso   1.000  Zn
  C1       1.0000 0.25610  0.91020  0.26930  Biso   1.000  C
  C2       1.0000 0.25670  0.96690  0.30870  Biso   1.000  C
  H1       1.0000 0.25890  0.95700  0.34840  Biso   1.000  H
  C3       1.0000 0.25410  0.03770  0.29070  Biso   1.000  C
  C4       1.0000 0.25090  0.05260  0.23150  Biso   1.000  C
  C5       1.0000 0.25210  0.99620  0.19220  Biso   1.000  C
  H2       1.0000 0.25170  0.00640  0.15260  Biso   1.000  H
  C6       1.0000 0.25380  0.92560  0.20950  Biso   1.000  C
  C7       1.0000 0.25570  0.83810  0.29790  Biso   1.000  C
  C8       1.0000 0.25760  0.09300  0.33860  Biso   1.000  C
  C9       1.0000 0.23960  0.12700  0.20670  Biso   1.000  C
  C10      1.0000 0.24950  0.86940  0.16280  Biso   1.000  C
  C11      1.0000 0.42800  0.72850  0.03860  Biso   1.000  C
  C12      1.0000 0.49610  0.71350  0.05390  Biso   1.000  C
  H3       1.0000 0.50640  0.70420  0.09280  Biso   1.000  H
  C13      1.0000 0.54980  0.71160  0.01360  Biso   1.000  C
  C14      1.0000 0.53560  0.72530  0.95520  Biso   1.000  C
  C15      1.0000 0.46790  0.73910  0.93910  Biso   1.000  C
  H4       1.0000 0.45790  0.74560  0.89980  Biso   1.000  H
  C16      1.0000 0.41370  0.74380  0.97890  Biso   1.000  C
  C17      1.0000 0.37130  0.73000  0.08370  Biso   1.000  C
  C18      1.0000 0.62190  0.69530  0.03560  Biso   1.000  C
  C19      1.0000 0.59430  0.73310  0.91050  Biso   1.000  C
  C20      1.0000 0.34370  0.77360  0.95970  Biso   1.000  C
  O1       1.0000 0.30530  0.79430  0.29220  Biso   1.000  O
  O2       1.0000 0.20620  0.82680  0.33250  Biso   1.000  O
  O3       1.0000 0.25670  0.80430  0.18020  Biso   1.000  O
  O4       1.0000 0.23710  0.88560  0.11270  Biso   1.000  O
  O5       1.0000 0.27780  0.15380  0.32450  Biso   1.000  O
  O6       1.0000 0.24100  0.07360  0.38840  Biso   1.000  O
  O7       1.0000 0.28170  0.14510  0.16670  Biso   1.000  O
  O8       1.0000 0.18840  0.16140  0.22460  Biso   1.000  O
  O9       1.0000 0.30930  0.71960  0.06840  Biso   1.000  O
  O10      1.0000 0.39260  0.74100  0.13500  Biso   1.000  O
  O11      1.0000 0.64530  0.73540  0.07490  Biso   1.000  O
  O12      1.0000 0.65190  0.64110  0.01530  Biso   1.000  O
  O13      1.0000 0.65000  0.75900  0.93090  Biso   1.000  O
  O14      1.0000 0.58470  0.71640  0.86020  Biso   1.000  O
  O15      1.0000 0.32540  0.83110  0.98310  Biso   1.000  O
  O16      1.0000 0.31230  0.74220  0.92070  Biso   1.000  O
  Zn5      1.0000 0.14557  0.23720  0.71658  Biso   1.000  Zn
  Zn6      1.0000 0.27163  0.26228  0.87421  Biso   1.000  Zn
  Zn7      1.0000 0.27136  0.26619  0.62111  Biso   1.000  Zn
  Zn8      1.0000 0.24539  0.89234  0.96896  Biso   1.000  Zn
  C21      1.0000 0.24390  0.08980  0.76930  Biso   1.000  C
  C22      1.0000 0.24330  0.03310  0.80870  Biso   1.000  C
  H5       1.0000 0.24110  0.04300  0.84840  Biso   1.000  H
  C23      1.0000 0.24590  0.96230  0.79070  Biso   1.000  C
  C24      1.0000 0.24910  0.94740  0.73150  Biso   1.000  C
  C25      1.0000 0.24790  0.00380  0.69220  Biso   1.000  C
  H6       1.0000 0.24830  0.99360  0.65260  Biso   1.000  H
  C26      1.0000 0.24620  0.07440  0.70950  Biso   1.000  C
  C27      1.0000 0.24430  0.16190  0.79790  Biso   1.000  C
  C28      1.0000 0.24240  0.90700  0.83860  Biso   1.000  C
  C29      1.0000 0.26040  0.87300  0.70670  Biso   1.000  C
  C30      1.0000 0.25050  0.13060  0.66280  Biso   1.000  C
  C31      1.0000 0.07200  0.27150  0.53860  Biso   1.000  C
  C32      1.0000 0.00390  0.28650  0.55390  Biso   1.000  C
  H7       1.0000 0.99360  0.29580  0.59280  Biso   1.000  H
  C33      1.0000 0.95020  0.28840  0.51360  Biso   1.000  C
  C34      1.0000 0.96440  0.27470  0.45520  Biso   1.000  C
  C35      1.0000 0.03210  0.26090  0.43910  Biso   1.000  C
  H8       1.0000 0.04210  0.25440  0.39980  Biso   1.000  H
  C36      1.0000 0.08630  0.25620  0.47890  Biso   1.000  C
  C37      1.0000 0.12870  0.27000  0.58370  Biso   1.000  C
  C38      1.0000 0.87810  0.30470  0.53560  Biso   1.000  C
  C39      1.0000 0.90570  0.26690  0.41050  Biso   1.000  C
  C40      1.0000 0.15630  0.22640  0.45970  Biso   1.000  C
  O17      1.0000 0.19470  0.20570  0.79220  Biso   1.000  O
  O18      1.0000 0.29380  0.17320  0.83250  Biso   1.000  O
  O19      1.0000 0.24330  0.19570  0.68020  Biso   1.000  O
  O20      1.0000 0.26290  0.11440  0.61270  Biso   1.000  O
  O21      1.0000 0.22220  0.84620  0.82450  Biso   1.000  O
  O22      1.0000 0.25900  0.92640  0.88840  Biso   1.000  O
  O23      1.0000 0.21830  0.85490  0.66670  Biso   1.000  O
  O24      1.0000 0.31160  0.83860  0.72460  Biso   1.000  O
  O25      1.0000 0.19070  0.28040  0.56840  Biso   1.000  O
  O26      1.0000 0.10740  0.25900  0.63500  Biso   1.000  O
  O27      1.0000 0.85470  0.26460  0.57490  Biso   1.000  O
  O28      1.0000 0.84810  0.35890  0.51530  Biso   1.000  O
  O29      1.0000 0.85000  0.24100  0.43090  Biso   1.000  O
  O30      1.0000 0.91530  0.28360  0.36020  Biso   1.000  O
  O31      1.0000 0.17460  0.16890  0.48310  Biso   1.000  O
  O32      1.0000 0.18770  0.25780  0.42070  Biso   1.000  O
  Zn9      1.0000 0.64557  0.26280  0.28342  Biso   1.000  Zn
  Zn10     1.0000 0.77163  0.23772  0.12579  Biso   1.000  Zn
  Zn11     1.0000 0.77136  0.23381  0.37889  Biso   1.000  Zn
  Zn12     1.0000 0.74539  0.60766  0.03104  Biso   1.000  Zn
  C41      1.0000 0.74390  0.41020  0.23070  Biso   1.000  C
  C42      1.0000 0.74330  0.46690  0.19130  Biso   1.000  C
  H9       1.0000 0.74110  0.45700  0.15160  Biso   1.000  H
  C43      1.0000 0.74590  0.53770  0.20930  Biso   1.000  C
  C44      1.0000 0.74910  0.55260  0.26850  Biso   1.000  C
  C45      1.0000 0.74790  0.49620  0.30780  Biso   1.000  C
  H10      1.0000 0.74830  0.50640  0.34740  Biso   1.000  H
  C46      1.0000 0.74620  0.42560  0.29050  Biso   1.000  C
  C47      1.0000 0.74430  0.33810  0.20210  Biso   1.000  C
  C48      1.0000 0.74240  0.59300  0.16140  Biso   1.000  C
  C49      1.0000 0.76040  0.62700  0.29330  Biso   1.000  C
  C50      1.0000 0.75050  0.36940  0.33720  Biso   1.000  C
  C51      1.0000 0.57200  0.22850  0.46140  Biso   1.000  C
  C52      1.0000 0.50390  0.21350  0.44610  Biso   1.000  C
  H11      1.0000 0.49360  0.20420  0.40720  Biso   1.000  H
  C53      1.0000 0.45020  0.21160  0.48640  Biso   1.000  C
  C54      1.0000 0.46440  0.22530  0.54480  Biso   1.000  C
  C55      1.0000 0.53210  0.23910  0.56090  Biso   1.000  C
  H12      1.0000 0.54210  0.24560  0.60020  Biso   1.000  H
  C56      1.0000 0.58630  0.24380  0.52110  Biso   1.000  C
  C57      1.0000 0.62870  0.23000  0.41630  Biso   1.000  C
  C58      1.0000 0.37810  0.19530  0.46440  Biso   1.000  C
  C59      1.0000 0.40570  0.23310  0.58950  Biso   1.000  C
  C60      1.0000 0.65630  0.27360  0.54030  Biso   1.000  C
  O33      1.0000 0.69470  0.29430  0.20780  Biso   1.000  O
  O34      1.0000 0.79380  0.32680  0.16750  Biso   1.000  O
  O35      1.0000 0.74330  0.30430  0.31980  Biso   1.000  O
  O36      1.0000 0.76290  0.38560  0.38730  Biso   1.000  O
  O37      1.0000 0.72220  0.65380  0.17550  Biso   1.000  O
  O38      1.0000 0.75900  0.57360  0.11160  Biso   1.000  O
  O39      1.0000 0.71830  0.64510  0.33330  Biso   1.000  O
  O40      1.0000 0.81160  0.66140  0.27540  Biso   1.000  O
  O41      1.0000 0.69070  0.21960  0.43160  Biso   1.000  O
  O42      1.0000 0.60740  0.24100  0.36500  Biso   1.000  O
  O43      1.0000 0.35470  0.23540  0.42510  Biso   1.000  O
  O44      1.0000 0.34810  0.14110  0.48470  Biso   1.000  O
  O45      1.0000 0.35000  0.25900  0.56910  Biso   1.000  O
  O46      1.0000 0.41530  0.21640  0.63980  Biso   1.000  O
  O47      1.0000 0.67460  0.33110  0.51690  Biso   1.000  O
  O48      1.0000 0.68770  0.24220  0.57930  Biso   1.000  O
  Zn13     1.0000 0.85443  0.73720  0.78342  Biso   1.000  Zn
  Zn14     1.0000 0.72837  0.76228  0.62579  Biso   1.000  Zn
  Zn15     1.0000 0.72864  0.76619  0.87889  Biso   1.000  Zn
  Zn16     1.0000 0.75461  0.39234  0.53104  Biso   1.000  Zn
  C61      1.0000 0.75610  0.58980  0.73070  Biso   1.000  C
  C62      1.0000 0.75670  0.53310  0.69130  Biso   1.000  C
  H13      1.0000 0.75890  0.54300  0.65160  Biso   1.000  H
  C63      1.0000 0.75410  0.46230  0.70930  Biso   1.000  C
  C64      1.0000 0.75090  0.44740  0.76850  Biso   1.000  C
  C65      1.0000 0.75210  0.50380  0.80780  Biso   1.000  C
  H14      1.0000 0.75170  0.49360  0.84740  Biso   1.000  H
  C66      1.0000 0.75380  0.57440  0.79050  Biso   1.000  C
  C67      1.0000 0.75570  0.66190  0.70210  Biso   1.000  C
  C68      1.0000 0.75760  0.40700  0.66140  Biso   1.000  C
  C69      1.0000 0.73960  0.37300  0.79330  Biso   1.000  C
  C70      1.0000 0.74950  0.63060  0.83720  Biso   1.000  C
  C71      1.0000 0.92800  0.77150  0.96140  Biso   1.000  C
  C72      1.0000 0.99610  0.78650  0.94610  Biso   1.000  C
  H15      1.0000 0.00640  0.79580  0.90720  Biso   1.000  H
  C73      1.0000 0.04980  0.78840  0.98640  Biso   1.000  C
  C74      1.0000 0.03560  0.77470  0.04480  Biso   1.000  C
  C75      1.0000 0.96790  0.76090  0.06090  Biso   1.000  C
  H16      1.0000 0.95790  0.75440  0.10020  Biso   1.000  H
  C76      1.0000 0.91370  0.75620  0.02110  Biso   1.000  C
  C77      1.0000 0.87130  0.77000  0.91630  Biso   1.000  C
  C78      1.0000 0.12190  0.80470  0.96440  Biso   1.000  C
  C79      1.0000 0.09430  0.76690  0.08950  Biso   1.000  C
  C80      1.0000 0.84370  0.72640  0.04030  Biso   1.000  C
  O49      1.0000 0.80530  0.70570  0.70780  Biso   1.000  O
  O50      1.0000 0.70620  0.67320  0.66750  Biso   1.000  O
  O51      1.0000 0.75670  0.69570  0.81980  Biso   1.000  O
  O52      1.0000 0.73710  0.61440  0.88730  Biso   1.000  O
  O53      1.0000 0.77780  0.34620  0.67550  Biso   1.000  O
  O54      1.0000 0.74100  0.42640  0.61160  Biso   1.000  O
  O55      1.0000 0.78170  0.35490  0.83330  Biso   1.000  O
  O56      1.0000 0.68840  0.33860  0.77540  Biso   1.000  O
  O57      1.0000 0.80930  0.78040  0.93160  Biso   1.000  O
  O58      1.0000 0.89260  0.75900  0.86500  Biso   1.000  O
  O59      1.0000 0.14530  0.76460  0.92510  Biso   1.000  O
  O60      1.0000 0.15190  0.85890  0.98470  Biso   1.000  O
  O61      1.0000 0.15000  0.74100  0.06910  Biso   1.000  O
  O62      1.0000 0.08470  0.78360  0.13980  Biso   1.000  O
  O63      1.0000 0.82540  0.66890  0.01690  Biso   1.000  O
  O64      1.0000 0.81230  0.75780  0.07930  Biso   1.000  O
  Zn17     1.0000 0.64557  0.23720  0.78342  Biso   1.000  Zn
  Zn18     1.0000 0.77163  0.26228  0.62579  Biso   1.000  Zn
  Zn19     1.0000 0.77136  0.26619  0.87889  Biso   1.000  Zn
  Zn20     1.0000 0.74539  0.89234  0.53104  Biso   1.000  Zn
  C81      1.0000 0.74390  0.08980  0.73070  Biso   1.000  C
  C82      1.0000 0.74330  0.03310  0.69130  Biso   1.000  C
  H17      1.0000 0.74110  0.04300  0.65160  Biso   1.000  H
  C83      1.0000 0.74590  0.96230  0.70930  Biso   1.000  C
  C84      1.0000 0.74910  0.94740  0.76850  Biso   1.000  C
  C85      1.0000 0.74790  0.00380  0.80780  Biso   1.000  C
  H18      1.0000 0.74830  0.99360  0.84740  Biso   1.000  H
  C86      1.0000 0.74620  0.07440  0.79050  Biso   1.000  C
  C87      1.0000 0.74430  0.16190  0.70210  Biso   1.000  C
  C88      1.0000 0.74240  0.90700  0.66140  Biso   1.000  C
  C89      1.0000 0.76040  0.87300  0.79330  Biso   1.000  C
  C90      1.0000 0.75050  0.13060  0.83720  Biso   1.000  C
  C91      1.0000 0.57200  0.27150  0.96140  Biso   1.000  C
  C92      1.0000 0.50390  0.28650  0.94610  Biso   1.000  C
  H19      1.0000 0.49360  0.29580  0.90720  Biso   1.000  H
  C93      1.0000 0.45020  0.28840  0.98640  Biso   1.000  C
  C94      1.0000 0.46440  0.27470  0.04480  Biso   1.000  C
  C95      1.0000 0.53210  0.26090  0.06090  Biso   1.000  C
  H20      1.0000 0.54210  0.25440  0.10020  Biso   1.000  H
  C96      1.0000 0.58630  0.25620  0.02110  Biso   1.000  C
  C97      1.0000 0.62870  0.27000  0.91630  Biso   1.000  C
  C98      1.0000 0.37810  0.30470  0.96440  Biso   1.000  C
  C99      1.0000 0.40570  0.26690  0.08950  Biso   1.000  C
  C100     1.0000 0.65630  0.22640  0.04030  Biso   1.000  C
  O65      1.0000 0.69470  0.20570  0.70780  Biso   1.000  O
  O66      1.0000 0.79380  0.17320  0.66750  Biso   1.000  O
  O67      1.0000 0.74330  0.19570  0.81980  Biso   1.000  O
  O68      1.0000 0.76290  0.11440  0.88730  Biso   1.000  O
  O69      1.0000 0.72220  0.84620  0.67550  Biso   1.000  O
  O70      1.0000 0.75900  0.92640  0.61160  Biso   1.000  O
  O71      1.0000 0.71830  0.85490  0.83330  Biso   1.000  O
  O72      1.0000 0.81160  0.83860  0.77540  Biso   1.000  O
  O73      1.0000 0.69070  0.28040  0.93160  Biso   1.000  O
  O74      1.0000 0.60740  0.25900  0.86500  Biso   1.000  O
  O75      1.0000 0.35470  0.26460  0.92510  Biso   1.000  O
  O76      1.0000 0.34810  0.35890  0.98470  Biso   1.000  O
  O77      1.0000 0.35000  0.24100  0.06910  Biso   1.000  O
  O78      1.0000 0.41530  0.28360  0.13980  Biso   1.000  O
  O79      1.0000 0.67460  0.16890  0.01690  Biso   1.000  O
  O80      1.0000 0.68770  0.25780  0.07930  Biso   1.000  O
  Zn21     1.0000 0.85443  0.76280  0.28342  Biso   1.000  Zn
  Zn22     1.0000 0.72837  0.73772  0.12579  Biso   1.000  Zn
  Zn23     1.0000 0.72864  0.73381  0.37889  Biso   1.000  Zn
  Zn24     1.0000 0.75461  0.10766  0.03104  Biso   1.000  Zn
  C101     1.0000 0.75610  0.91020  0.23070  Biso   1.000  C
  C102     1.0000 0.75670  0.96690  0.19130  Biso   1.000  C
  H21      1.0000 0.75890  0.95700  0.15160  Biso   1.000  H
  C103     1.0000 0.75410  0.03770  0.20930  Biso   1.000  C
  C104     1.0000 0.75090  0.05260  0.26850  Biso   1.000  C
  C105     1.0000 0.75210  0.99620  0.30780  Biso   1.000  C
  H22      1.0000 0.75170  0.00640  0.34740  Biso   1.000  H
  C106     1.0000 0.75380  0.92560  0.29050  Biso   1.000  C
  C107     1.0000 0.75570  0.83810  0.20210  Biso   1.000  C
  C108     1.0000 0.75760  0.09300  0.16140  Biso   1.000  C
  C109     1.0000 0.73960  0.12700  0.29330  Biso   1.000  C
  C110     1.0000 0.74950  0.86940  0.33720  Biso   1.000  C
  C111     1.0000 0.92800  0.72850  0.46140  Biso   1.000  C
  C112     1.0000 0.99610  0.71350  0.44610  Biso   1.000  C
  H23      1.0000 0.00640  0.70420  0.40720  Biso   1.000  H
  C113     1.0000 0.04980  0.71160  0.48640  Biso   1.000  C
  C114     1.0000 0.03560  0.72530  0.54480  Biso   1.000  C
  C115     1.0000 0.96790  0.73910  0.56090  Biso   1.000  C
  H24      1.0000 0.95790  0.74560  0.60020  Biso   1.000  H
  C116     1.0000 0.91370  0.74380  0.52110  Biso   1.000  C
  C117     1.0000 0.87130  0.73000  0.41630  Biso   1.000  C
  C118     1.0000 0.12190  0.69530  0.46440  Biso   1.000  C
  C119     1.0000 0.09430  0.73310  0.58950  Biso   1.000  C
  C120     1.0000 0.84370  0.77360  0.54030  Biso   1.000  C
  O81      1.0000 0.80530  0.79430  0.20780  Biso   1.000  O
  O82      1.0000 0.70620  0.82680  0.16750  Biso   1.000  O
  O83      1.0000 0.75670  0.80430  0.31980  Biso   1.000  O
  O84      1.0000 0.73710  0.88560  0.38730  Biso   1.000  O
  O85      1.0000 0.77780  0.15380  0.17550  Biso   1.000  O
  O86      1.0000 0.74100  0.07360  0.11160  Biso   1.000  O
  O87      1.0000 0.78170  0.14510  0.33330  Biso   1.000  O
  O88      1.0000 0.68840  0.16140  0.27540  Biso   1.000  O
  O89      1.0000 0.80930  0.71960  0.43160  Biso   1.000  O
  O90      1.0000 0.89260  0.74100  0.36500  Biso   1.000  O
  O91      1.0000 0.14530  0.73540  0.42510  Biso   1.000  O
  O92      1.0000 0.15190  0.64110  0.48470  Biso   1.000  O
  O93      1.0000 0.15000  0.75900  0.56910  Biso   1.000  O
  O94      1.0000 0.08470  0.71640  0.63980  Biso   1.000  O
  O95      1.0000 0.82540  0.83110  0.51690  Biso   1.000  O
  O96      1.0000 0.81230  0.74220  0.57930  Biso   1.000  O
  Zn25     1.0000 0.35443  0.73720  0.71658  Biso   1.000  Zn
  Zn26     1.0000 0.22837  0.76228  0.87421  Biso   1.000  Zn
  Zn27     1.0000 0.22864  0.76619  0.62111  Biso   1.000  Zn
  Zn28     1.0000 0.25461  0.39234  0.96896  Biso   1.000  Zn
  C121     1.0000 0.25610  0.58980  0.76930  Biso   1.000  C
  C122     1.0000 0.25670  0.53310  0.80870  Biso   1.000  C
  H25      1.0000 0.25890  0.54300  0.84840  Biso   1.000  H
  C123     1.0000 0.25410  0.46230  0.79070  Biso   1.000  C
  C124     1.0000 0.25090  0.44740  0.73150  Biso   1.000  C
  C125     1.0000 0.25210  0.50380  0.69220  Biso   1.000  C
  H26      1.0000 0.25170  0.49360  0.65260  Biso   1.000  H
  C126     1.0000 0.25380  0.57440  0.70950  Biso   1.000  C
  C127     1.0000 0.25570  0.66190  0.79790  Biso   1.000  C
  C128     1.0000 0.25760  0.40700  0.83860  Biso   1.000  C
  C129     1.0000 0.23960  0.37300  0.70670  Biso   1.000  C
  C130     1.0000 0.24950  0.63060  0.66280  Biso   1.000  C
  C131     1.0000 0.42800  0.77150  0.53860  Biso   1.000  C
  C132     1.0000 0.49610  0.78650  0.55390  Biso   1.000  C
  H27      1.0000 0.50640  0.79580  0.59280  Biso   1.000  H
  C133     1.0000 0.54980  0.78840  0.51360  Biso   1.000  C
  C134     1.0000 0.53560  0.77470  0.45520  Biso   1.000  C
  C135     1.0000 0.46790  0.76090  0.43910  Biso   1.000  C
  H28      1.0000 0.45790  0.75440  0.39980  Biso   1.000  H
  C136     1.0000 0.41370  0.75620  0.47890  Biso   1.000  C
  C137     1.0000 0.37130  0.77000  0.58370  Biso   1.000  C
  C138     1.0000 0.62190  0.80470  0.53560  Biso   1.000  C
  C139     1.0000 0.59430  0.76690  0.41050  Biso   1.000  C
  C140     1.0000 0.34370  0.72640  0.45970  Biso   1.000  C
  O97      1.0000 0.30530  0.70570  0.79220  Biso   1.000  O
  O98      1.0000 0.20620  0.67320  0.83250  Biso   1.000  O
  O99      1.0000 0.25670  0.69570  0.68020  Biso   1.000  O
  O100     1.0000 0.23710  0.61440  0.61270  Biso   1.000  O
  O101     1.0000 0.27780  0.34620  0.82450  Biso   1.000  O
  O102     1.0000 0.24100  0.42640  0.88840  Biso   1.000  O
  O103     1.0000 0.28170  0.35490  0.66670  Biso   1.000  O
  O104     1.0000 0.18840  0.33860  0.72460  Biso   1.000  O
  O105     1.0000 0.30930  0.78040  0.56840  Biso   1.000  O
  O106     1.0000 0.39260  0.75900  0.63500  Biso   1.000  O
  O107     1.0000 0.64530  0.76460  0.57490  Biso   1.000  O
  O108     1.0000 0.65190  0.85890  0.51530  Biso   1.000  O
  O109     1.0000 0.65000  0.74100  0.43090  Biso   1.000  O
  O110     1.0000 0.58470  0.78360  0.36020  Biso   1.000  O
  O111     1.0000 0.32540  0.66890  0.48310  Biso   1.000  O
  O112     1.0000 0.31230  0.75780  0.42070  Biso   1.000  O
  Zn29     1.0000 0.14557  0.26280  0.21658  Biso   1.000  Zn
  Zn30     1.0000 0.27163  0.23772  0.37421  Biso   1.000  Zn
  Zn31     1.0000 0.27136  0.23381  0.12111  Biso   1.000  Zn
  Zn32     1.0000 0.24539  0.60766  0.46896  Biso   1.000  Zn
  C141     1.0000 0.24390  0.41020  0.26930  Biso   1.000  C
  C142     1.0000 0.24330  0.46690  0.30870  Biso   1.000  C
  H29      1.0000 0.24110  0.45700  0.34840  Biso   1.000  H
  C143     1.0000 0.24590  0.53770  0.29070  Biso   1.000  C
  C144     1.0000 0.24910  0.55260  0.23150  Biso   1.000  C
  C145     1.0000 0.24790  0.49620  0.19220  Biso   1.000  C
  H30      1.0000 0.24830  0.50640  0.15260  Biso   1.000  H
  C146     1.0000 0.24620  0.42560  0.20950  Biso   1.000  C
  C147     1.0000 0.24430  0.33810  0.29790  Biso   1.000  C
  C148     1.0000 0.24240  0.59300  0.33860  Biso   1.000  C
  C149     1.0000 0.26040  0.62700  0.20670  Biso   1.000  C
  C150     1.0000 0.25050  0.36940  0.16280  Biso   1.000  C
  C151     1.0000 0.07200  0.22850  0.03860  Biso   1.000  C
  C152     1.0000 0.00390  0.21350  0.05390  Biso   1.000  C
  H31      1.0000 0.99360  0.20420  0.09280  Biso   1.000  H
  C153     1.0000 0.95020  0.21160  0.01360  Biso   1.000  C
  C154     1.0000 0.96440  0.22530  0.95520  Biso   1.000  C
  C155     1.0000 0.03210  0.23910  0.93910  Biso   1.000  C
  H32      1.0000 0.04210  0.24560  0.89980  Biso   1.000  H
  C156     1.0000 0.08630  0.24380  0.97890  Biso   1.000  C
  C157     1.0000 0.12870  0.23000  0.08370  Biso   1.000  C
  C158     1.0000 0.87810  0.19530  0.03560  Biso   1.000  C
  C159     1.0000 0.90570  0.23310  0.91050  Biso   1.000  C
  C160     1.0000 0.15630  0.27360  0.95970  Biso   1.000  C
  O113     1.0000 0.19470  0.29430  0.29220  Biso   1.000  O
  O114     1.0000 0.29380  0.32680  0.33250  Biso   1.000  O
  O115     1.0000 0.24330  0.30430  0.18020  Biso   1.000  O
  O116     1.0000 0.26290  0.38560  0.11270  Biso   1.000  O
  O117     1.0000 0.22220  0.65380  0.32450  Biso   1.000  O
  O118     1.0000 0.25900  0.57360  0.38840  Biso   1.000  O
  O119     1.0000 0.21830  0.64510  0.16670  Biso   1.000  O
  O120     1.0000 0.31160  0.66140  0.22460  Biso   1.000  O
  O121     1.0000 0.19070  0.21960  0.06840  Biso   1.000  O
  O122     1.0000 0.10740  0.24100  0.13500  Biso   1.000  O
  O123     1.0000 0.85470  0.23540  0.07490  Biso   1.000  O
  O124     1.0000 0.84810  0.14110  0.01530  Biso   1.000  O
  O125     1.0000 0.85000  0.25900  0.93090  Biso   1.000  O
  O126     1.0000 0.91530  0.21640  0.86020  Biso   1.000  O
  O127     1.0000 0.17460  0.33110  0.98310  Biso   1.000  O
  O128     1.0000 0.18770  0.24220  0.92070  Biso   1.000  O
