data_LARZEL_clean
_audit_creation_date              2015-05-18
_audit_creation_method            'Materials Studio'
_symmetry_space_group_name_H-M    'P1'
_symmetry_Int_Tables_number       1
_symmetry_cell_setting            triclinic
loop_
_symmetry_equiv_pos_as_xyz
  x,y,z
_cell_length_a                    16.3180
_cell_length_b                    16.3180
_cell_length_c                    6.5080
_cell_angle_alpha                 90.0000
_cell_angle_beta                  90.0000
_cell_angle_gamma                 90.0000
loop_
_atom_site_label
_atom_site_type_symbol
_atom_site_fract_x
_atom_site_fract_y
_atom_site_fract_z
_atom_site_U_iso_or_equiv
_atom_site_adp_type
_atom_site_occupancy
C1     C     0.60220   0.78460   0.36160   0.01267  Uiso   1.00
C2     C     0.54220   0.75400   0.21020   0.01267  Uiso   1.00
N3     N     0.56860   0.71410   0.03750   0.01267  Uiso   1.00
O4     O     0.67686   0.76715   0.32680   0.01267  Uiso   1.00
O5     O     0.57930   0.82530   0.51710   0.01267  Uiso   1.00
C6     C     0.39780   0.21540   0.36160   0.01267  Uiso   1.00
C7     C     0.45780   0.24600   0.21020   0.01267  Uiso   1.00
N8     N     0.43140   0.28590   0.03750   0.01267  Uiso   1.00
O9     O     0.32314   0.23285   0.32680   0.01267  Uiso   1.00
O10    O     0.42070   0.17470   0.51710   0.01267  Uiso   1.00
C11    C     0.71540   0.10220   0.86160   0.01267  Uiso   1.00
C12    C     0.74600   0.04220   0.71020   0.01267  Uiso   1.00
N13    N     0.78590   0.06860   0.53750   0.01267  Uiso   1.00
O14    O     0.73285   0.17686   0.82680   0.01267  Uiso   1.00
O15    O     0.67470   0.07930   0.01710   0.01267  Uiso   1.00
C16    C     0.28460   0.89780   0.86160   0.01267  Uiso   1.00
C17    C     0.25400   0.95780   0.71020   0.01267  Uiso   1.00
N18    N     0.21410   0.93140   0.53750   0.01267  Uiso   1.00
O19    O     0.26715   0.82314   0.82680   0.01267  Uiso   1.00
O20    O     0.32530   0.92070   0.01710   0.01267  Uiso   1.00
Cd21   Cd    0.70538   0.29462   0.00000   0.01267  Uiso   1.00
C22    C     0.50000   0.69160   0.93780   0.01267  Uiso   1.00
C23    C     0.50000   0.64160   0.74290   0.01267  Uiso   1.00
C24    C     0.50000   0.30840   0.93780   0.01267  Uiso   1.00
C25    C     0.50000   0.35840   0.74290   0.01267  Uiso   1.00
H26    H     0.56485   0.61932   0.70941   0.00000  Uiso   1.00
H27    H     0.47754   0.68108   0.60980   0.00000  Uiso   1.00
H28    H     0.45761   0.58661   0.76217   0.00000  Uiso   1.00
H29    H     0.56485   0.36132   0.67818   0.00000  Uiso   1.00
H30    H     0.47754   0.42307   0.77778   0.00000  Uiso   1.00
H31    H     0.45761   0.32860   0.62542   0.00000  Uiso   1.00
C32    C     0.78460   0.60220   0.63840   0.01267  Uiso   1.00
C33    C     0.75400   0.54220   0.78980   0.01267  Uiso   1.00
N34    N     0.71410   0.56860   0.96250   0.01267  Uiso   1.00
O35    O     0.76715   0.67686   0.67320   0.01267  Uiso   1.00
O36    O     0.82530   0.57930   0.48290   0.01267  Uiso   1.00
C37    C     0.21540   0.39780   0.63840   0.01267  Uiso   1.00
C38    C     0.24600   0.45780   0.78980   0.01267  Uiso   1.00
N39    N     0.28590   0.43140   0.96250   0.01267  Uiso   1.00
O40    O     0.23285   0.32314   0.67320   0.01267  Uiso   1.00
O41    O     0.17470   0.42070   0.48290   0.01267  Uiso   1.00
C42    C     0.10220   0.71540   0.13840   0.01267  Uiso   1.00
C43    C     0.04220   0.74600   0.28980   0.01267  Uiso   1.00
N44    N     0.06860   0.78590   0.46250   0.01267  Uiso   1.00
O45    O     0.17686   0.73285   0.17320   0.01267  Uiso   1.00
O46    O     0.07930   0.67470   0.98290   0.01267  Uiso   1.00
C47    C     0.89780   0.28460   0.13840   0.01267  Uiso   1.00
C48    C     0.95780   0.25400   0.28980   0.01267  Uiso   1.00
N49    N     0.93140   0.21410   0.46250   0.01267  Uiso   1.00
O50    O     0.82314   0.26715   0.17320   0.01267  Uiso   1.00
O51    O     0.92070   0.32530   0.98290   0.01267  Uiso   1.00
Cd52   Cd    0.29462   0.70538   0.00000   0.01267  Uiso   1.00
C53    C     0.69160   0.50000   0.06220   0.01267  Uiso   1.00
C54    C     0.64160   0.50000   0.25710   0.01267  Uiso   1.00
C55    C     0.30840   0.50000   0.06220   0.01267  Uiso   1.00
C56    C     0.35840   0.50000   0.25710   0.01267  Uiso   1.00
H57    H     0.61932   0.56485   0.29059   0.00000  Uiso   1.00
H58    H     0.68108   0.47754   0.39020   0.00000  Uiso   1.00
H59    H     0.58661   0.45761   0.23783   0.00000  Uiso   1.00
H60    H     0.36132   0.56485   0.32182   0.00000  Uiso   1.00
H61    H     0.42307   0.47754   0.22222   0.00000  Uiso   1.00
H62    H     0.32860   0.45761   0.37458   0.00000  Uiso   1.00
C63    C     0.28460   0.10220   0.86160   0.01267  Uiso   1.00
C64    C     0.25400   0.04220   0.71020   0.01267  Uiso   1.00
N65    N     0.21410   0.06860   0.53750   0.01267  Uiso   1.00
O66    O     0.26715   0.17686   0.82680   0.01267  Uiso   1.00
O67    O     0.32530   0.07930   0.01710   0.01267  Uiso   1.00
C68    C     0.71540   0.89780   0.86160   0.01267  Uiso   1.00
C69    C     0.74600   0.95780   0.71020   0.01267  Uiso   1.00
N70    N     0.78590   0.93140   0.53750   0.01267  Uiso   1.00
O71    O     0.73285   0.82314   0.82680   0.01267  Uiso   1.00
O72    O     0.67470   0.92070   0.01710   0.01267  Uiso   1.00
C73    C     0.60220   0.21540   0.36160   0.01267  Uiso   1.00
C74    C     0.54220   0.24600   0.21020   0.01267  Uiso   1.00
N75    N     0.56860   0.28590   0.03750   0.01267  Uiso   1.00
O76    O     0.67686   0.23285   0.32680   0.01267  Uiso   1.00
O77    O     0.57930   0.17470   0.51710   0.01267  Uiso   1.00
C78    C     0.39780   0.78460   0.36160   0.01267  Uiso   1.00
C79    C     0.45780   0.75400   0.21020   0.01267  Uiso   1.00
N80    N     0.43140   0.71410   0.03750   0.01267  Uiso   1.00
O81    O     0.32314   0.76715   0.32680   0.01267  Uiso   1.00
O82    O     0.42070   0.82530   0.51710   0.01267  Uiso   1.00
Cd83   Cd    0.79462   0.20538   0.50000   0.01267  Uiso   1.00
C84    C     0.19160   0.00000   0.43780   0.01267  Uiso   1.00
C85    C     0.14160   0.00000   0.24290   0.01267  Uiso   1.00
C86    C     0.80840   0.00000   0.43780   0.01267  Uiso   1.00
C87    C     0.85840   0.00000   0.24290   0.01267  Uiso   1.00
H88    H     0.11932   0.06485   0.20941   0.00000  Uiso   1.00
H89    H     0.18108   0.97754   0.10980   0.00000  Uiso   1.00
H90    H     0.08661   0.95761   0.26217   0.00000  Uiso   1.00
H91    H     0.86132   0.06485   0.17818   0.00000  Uiso   1.00
H92    H     0.92307   0.97754   0.27778   0.00000  Uiso   1.00
H93    H     0.82860   0.95761   0.12542   0.00000  Uiso   1.00
C94    C     0.10220   0.28460   0.13840   0.01267  Uiso   1.00
C95    C     0.04220   0.25400   0.28980   0.01267  Uiso   1.00
N96    N     0.06860   0.21410   0.46250   0.01267  Uiso   1.00
O97    O     0.17686   0.26715   0.17320   0.01267  Uiso   1.00
O98    O     0.07930   0.32530   0.98290   0.01267  Uiso   1.00
C99    C     0.89780   0.71540   0.13840   0.01267  Uiso   1.00
C100   C     0.95780   0.74600   0.28980   0.01267  Uiso   1.00
N101   N     0.93140   0.78590   0.46250   0.01267  Uiso   1.00
O102   O     0.82314   0.73285   0.17320   0.01267  Uiso   1.00
O103   O     0.92070   0.67470   0.98290   0.01267  Uiso   1.00
C104   C     0.21540   0.60220   0.63840   0.01267  Uiso   1.00
C105   C     0.24600   0.54220   0.78980   0.01267  Uiso   1.00
N106   N     0.28590   0.56860   0.96250   0.01267  Uiso   1.00
O107   O     0.23285   0.67686   0.67320   0.01267  Uiso   1.00
O108   O     0.17470   0.57930   0.48290   0.01267  Uiso   1.00
C109   C     0.78460   0.39780   0.63840   0.01267  Uiso   1.00
C110   C     0.75400   0.45780   0.78980   0.01267  Uiso   1.00
N111   N     0.71410   0.43140   0.96250   0.01267  Uiso   1.00
O112   O     0.76715   0.32314   0.67320   0.01267  Uiso   1.00
O113   O     0.82530   0.42070   0.48290   0.01267  Uiso   1.00
Cd114  Cd    0.20538   0.79462   0.50000   0.01267  Uiso   1.00
C115   C     0.00000   0.19160   0.56220   0.01267  Uiso   1.00
C116   C     0.00000   0.14160   0.75710   0.01267  Uiso   1.00
C117   C     0.00000   0.80840   0.56220   0.01267  Uiso   1.00
C118   C     0.00000   0.85840   0.75710   0.01267  Uiso   1.00
H119   H     0.06485   0.11932   0.79059   0.00000  Uiso   1.00
H120   H     0.97754   0.18108   0.89020   0.00000  Uiso   1.00
H121   H     0.95761   0.08661   0.73783   0.00000  Uiso   1.00
H122   H     0.06485   0.86132   0.82182   0.00000  Uiso   1.00
H123   H     0.97754   0.92307   0.72222   0.00000  Uiso   1.00
H124   H     0.95761   0.82860   0.87458   0.00000  Uiso   1.00
Cd125  Cd    0.79462   0.79462   0.50000   0.01267  Uiso   1.00
Cd126  Cd    0.20538   0.20538   0.50000   0.01267  Uiso   1.00
Cd127  Cd    0.29462   0.29462   0.00000   0.01267  Uiso   1.00
Cd128  Cd    0.70538   0.70538   0.00000   0.01267  Uiso   1.00
