data_LASQON_clean
_audit_creation_date              2014-07-02
_audit_creation_method            'Materials Studio'
_symmetry_space_group_name_H-M    'P1'
_symmetry_Int_Tables_number       1
_symmetry_cell_setting            triclinic
loop_
_symmetry_equiv_pos_as_xyz
  x,y,z
_cell_length_a                    10.0470
_cell_length_b                    12.6580
_cell_length_c                    13.4940
_cell_angle_alpha                 86.5600
_cell_angle_beta                  71.4300
_cell_angle_gamma                 72.1600
loop_
_atom_site_label
_atom_site_type_symbol
_atom_site_fract_x
_atom_site_fract_y
_atom_site_fract_z
_atom_site_U_iso_or_equiv
_atom_site_adp_type
_atom_site_occupancy
Ni1    Ni    0.38359   0.92467   0.42128   0.01267  Uiso   1.00
Ni2    Ni    0.61641   0.07533   0.57872   0.01267  Uiso   1.00
Ni3    Ni    0.00000   0.50000  -0.00000   0.01267  Uiso   1.00
H1     H     0.08480   0.12390   0.44190   0.01267  Uiso   1.00
H2     H     0.48600   0.13700   0.30780   0.01267  Uiso   1.00
H3     H     0.32010   0.32460   0.30850   0.01267  Uiso   1.00
H4     H     0.94870   0.31450   0.56170   0.01267  Uiso   1.00
H5     H     0.05030   0.41220   0.26690   0.01267  Uiso   1.00
H6     H     0.66470   0.71770   0.37640   0.01267  Uiso   1.00
H7     H     0.29800   0.74040   0.60010   0.01267  Uiso   1.00
H8     H     0.47350   0.56280   0.61680   0.01267  Uiso   1.00
H9     H     0.72910   0.45900   0.60570   0.01267  Uiso   1.00
H10    H     0.82800   0.55300   0.30970   0.01267  Uiso   1.00
H11    H     0.70030   0.69400   0.02010   0.01267  Uiso   1.00
H12    H     0.09050   0.69820   0.84490   0.01267  Uiso   1.00
H13    H     0.92200   0.88320   0.84500   0.01267  Uiso   1.00
H14    H     0.55790   0.87520   0.12400   0.01267  Uiso   1.00
H15    H     0.65790   0.97830   0.82930   0.01267  Uiso   1.00
H16    H     0.92440   0.96900   0.39440   0.01267  Uiso   1.00
H17    H     0.24760   0.72670   0.20250   0.01267  Uiso   1.00
H18    H     0.82470   0.77270   0.22330   0.01267  Uiso   1.00
H19    H     0.91520   0.87610   0.55810   0.01267  Uiso   1.00
H20    H     0.51400   0.86300   0.69220   0.01267  Uiso   1.00
H21    H     0.67990   0.67540   0.69150   0.01267  Uiso   1.00
H22    H     0.05130   0.68550   0.43830   0.01267  Uiso   1.00
H23    H     0.94970   0.58780   0.73310   0.01267  Uiso   1.00
H24    H     0.33530   0.28230   0.62360   0.01267  Uiso   1.00
H25    H     0.70200   0.25960   0.39990   0.01267  Uiso   1.00
H26    H     0.52650   0.43720   0.38320   0.01267  Uiso   1.00
H27    H     0.27090   0.54100   0.39430   0.01267  Uiso   1.00
H28    H     0.17200   0.44700   0.69030   0.01267  Uiso   1.00
H29    H     0.29970   0.30600   0.97990   0.01267  Uiso   1.00
H30    H     0.90950   0.30180   0.15510   0.01267  Uiso   1.00
H31    H     0.07800   0.11680   0.15500   0.01267  Uiso   1.00
H32    H     0.44210   0.12480   0.87600   0.01267  Uiso   1.00
H33    H     0.34210   0.02170   0.17070   0.01267  Uiso   1.00
H34    H     0.07560   0.03100   0.60560   0.01267  Uiso   1.00
H35    H     0.75240   0.27330   0.79750   0.01267  Uiso   1.00
H36    H     0.17530   0.22730   0.77670   0.01267  Uiso   1.00
C1     C     0.16450   0.14980   0.40870   0.01267  Uiso   1.00
C2     C     0.38380   0.15780   0.33500   0.01267  Uiso   1.00
C3     C     0.29300   0.26210   0.33520   0.01267  Uiso   1.00
C4     C     0.01800   0.34800   0.40920   0.01267  Uiso   1.00
C5     C     0.92400   0.36250   0.51090   0.01267  Uiso   1.00
C6     C     0.98470   0.42020   0.33460   0.01267  Uiso   1.00
C7     C     0.59480   0.70160   0.43440   0.01267  Uiso   1.00
C8     C     0.39490   0.71340   0.55660   0.01267  Uiso   1.00
C9     C     0.49130   0.61490   0.56670   0.01267  Uiso   1.00
C10    C     0.75700   0.51890   0.46160   0.01267  Uiso   1.00
C11    C     0.79270   0.44870   0.53730   0.01267  Uiso   1.00
C12    C     0.85250   0.50510   0.36050   0.01267  Uiso   1.00
C13    C     0.77740   0.71770   0.97660   0.01267  Uiso   1.00
C14    C     0.98990   0.72050   0.88050   0.01267  Uiso   1.00
C15    C     0.89750   0.82320   0.88080   0.01267  Uiso   1.00
C16    C     0.62840   0.91300   0.97180   0.01267  Uiso   1.00
C17    C     0.53420   0.92550   0.07450   0.01267  Uiso   1.00
C18    C     0.59430   0.98730   0.89770   0.01267  Uiso   1.00
C19    C     0.84920   0.88310   0.31380   0.01267  Uiso   1.00
C20    C     0.95410   0.91050   0.34590   0.01267  Uiso   1.00
C21    C     0.10260   0.85080   0.30570   0.01267  Uiso   1.00
C22    C     0.14790   0.76440   0.23140   0.01267  Uiso   1.00
C23    C     0.04500   0.73430   0.20010   0.01267  Uiso   1.00
C24    C     0.89450   0.79340   0.24260   0.01267  Uiso   1.00
C25    C     0.68710   0.94460   0.36380   0.01267  Uiso   1.00
C26    C     0.21130   0.87270   0.35030   0.01267  Uiso   1.00
C27    C     0.09260   0.63530   0.12610   0.01267  Uiso   1.00
C28    C     0.83550   0.85020   0.59130   0.01267  Uiso   1.00
C29    C     0.61620   0.84220   0.66500   0.01267  Uiso   1.00
C30    C     0.70700   0.73790   0.66480   0.01267  Uiso   1.00
C31    C     0.98200   0.65200   0.59080   0.01267  Uiso   1.00
C32    C     0.07600   0.63750   0.48910   0.01267  Uiso   1.00
C33    C     0.01530   0.57980   0.66540   0.01267  Uiso   1.00
C34    C     0.40520   0.29840   0.56560   0.01267  Uiso   1.00
C35    C     0.60510   0.28660   0.44340   0.01267  Uiso   1.00
C36    C     0.50870   0.38510   0.43330   0.01267  Uiso   1.00
C37    C     0.24300   0.48110   0.53840   0.01267  Uiso   1.00
C38    C     0.20730   0.55130   0.46270   0.01267  Uiso   1.00
C39    C     0.14750   0.49490   0.63950   0.01267  Uiso   1.00
C40    C     0.22260   0.28230   0.02340   0.01267  Uiso   1.00
C41    C     0.01010   0.27950   0.11950   0.01267  Uiso   1.00
C42    C     0.10250   0.17680   0.11920   0.01267  Uiso   1.00
C43    C     0.37160   0.08700   0.02820   0.01267  Uiso   1.00
C44    C     0.46580   0.07450   0.92550   0.01267  Uiso   1.00
C45    C     0.40570   0.01270   0.10230   0.01267  Uiso   1.00
C46    C     0.15080   0.11690   0.68620   0.01267  Uiso   1.00
C47    C     0.04590   0.08950   0.65410   0.01267  Uiso   1.00
C48    C     0.89740   0.14920   0.69430   0.01267  Uiso   1.00
C49    C     0.85210   0.23560   0.76860   0.01267  Uiso   1.00
C50    C     0.95500   0.26570   0.79990   0.01267  Uiso   1.00
C51    C     0.10550   0.20660   0.75740   0.01267  Uiso   1.00
C52    C     0.31290   0.05540   0.63620   0.01267  Uiso   1.00
C53    C     0.78870   0.12730   0.64970   0.01267  Uiso   1.00
C54    C     0.90740   0.36470   0.87390   0.01267  Uiso   1.00
N1     N     0.30340   0.08730   0.38070   0.01267  Uiso   1.00
N2     N     0.15270   0.25650   0.38280   0.01267  Uiso   1.00
N3     N     0.46010   0.76750   0.47370   0.01267  Uiso   1.00
N4     N     0.62100   0.60740   0.48750   0.01267  Uiso   1.00
N5     N     0.91370   0.65360   0.94040   0.01267  Uiso   1.00
N6     N     0.76170   0.82250   0.94340   0.01267  Uiso   1.00
N7     N     0.69660   0.91270   0.61930   0.01267  Uiso   1.00
N8     N     0.84730   0.74350   0.61720   0.01267  Uiso   1.00
N9     N     0.53990   0.23250   0.52630   0.01267  Uiso   1.00
N10    N     0.37900   0.39260   0.51250   0.01267  Uiso   1.00
N11    N     0.08630   0.34640   0.05960   0.01267  Uiso   1.00
N12    N     0.23830   0.17750   0.05660   0.01267  Uiso   1.00
O1     O     0.59720   0.91060   0.33610   0.01267  Uiso   1.00
O2     O     0.65210   0.02160   0.42890   0.01267  Uiso   1.00
O3     O     0.16680   0.91020   0.44350   0.01267  Uiso   1.00
O4     O     0.34500   0.85290   0.29490   0.01267  Uiso   1.00
O5     O     0.22830   0.59830   0.07480   0.01267  Uiso   1.00
O6     O     0.99560   0.59600   0.12040   0.01267  Uiso   1.00
O7     O     0.40280   0.08940   0.66390   0.01267  Uiso   1.00
O8     O     0.34790   0.97840   0.57110   0.01267  Uiso   1.00
O9     O     0.83320   0.08980   0.55650   0.01267  Uiso   1.00
O10    O     0.65500   0.14710   0.70510   0.01267  Uiso   1.00
O11    O     0.77170   0.40170   0.92520   0.01267  Uiso   1.00
O12    O     0.00440   0.40400   0.87960   0.01267  Uiso   1.00
