data_image0
_cell_length_a       17.5123
_cell_length_b       18.1004
_cell_length_c       18.1084
_cell_angle_alpha    90
_cell_angle_beta     92.118
_cell_angle_gamma    90

_symmetry_space_group_name_H-M    "P 1"
_symmetry_int_tables_number       1

loop_
  _symmetry_equiv_pos_as_xyz
  'x, y, z'

loop_
  _atom_site_label
  _atom_site_occupancy
  _atom_site_fract_x
  _atom_site_fract_y
  _atom_site_fract_z
  _atom_site_thermal_displace_type
  _atom_site_B_iso_or_equiv
  _atom_site_type_symbol
  C1       1.0000 0.67670  0.87980  0.99310  Biso   1.000  C
  C2       1.0000 0.48340  0.18080  0.93390  Biso   1.000  C
  C3       1.0000 0.74860  0.08670  0.70330  Biso   1.000  C
  C4       1.0000 0.82000  0.93700  0.49900  Biso   1.000  C
  C5       1.0000 0.03070  0.64520  0.43440  Biso   1.000  C
  C6       1.0000 0.74530  0.73460  0.20420  Biso   1.000  C
  C7       1.0000 0.59620  0.90550  0.97210  Biso   1.000  C
  C8       1.0000 0.49130  0.15280  0.85280  Biso   1.000  C
  C9       1.0000 0.71950  0.00690  0.72510  Biso   1.000  C
  C10      1.0000 0.90020  0.91060  0.47980  Biso   1.000  C
  C11      1.0000 0.01390  0.67150  0.35230  Biso   1.000  C
  C12      1.0000 0.77200  0.81280  0.22720  Biso   1.000  C
  C13      1.0000 0.55590  0.93480  0.03940  Biso   1.000  C
  C14      1.0000 0.51790  0.21910  0.80530  Biso   1.000  C
  C15      1.0000 0.78770  0.96010  0.75260  Biso   1.000  C
  C16      1.0000 0.94640  0.88290  0.55170  Biso   1.000  C
  C17      1.0000 0.98610  0.61070  0.30340  Biso   1.000  C
  C18      1.0000 0.70340  0.86140  0.25200  Biso   1.000  C
  O1       1.0000 0.72830  0.89470  0.95030  Biso   1.000  O
  O2       1.0000 0.51520  0.14180  0.98460  Biso   1.000  O
  O3       1.0000 0.70820  0.14090  0.72420  Biso   1.000  O
  O4       1.0000 0.76690  0.91580  0.45600  Biso   1.000  O
  O5       1.0000 0.00180  0.68220  0.48550  Biso   1.000  O
  O6       1.0000 0.78440  0.68070  0.22890  Biso   1.000  O
  O7       1.0000 0.68840  0.84040  0.05130  Biso   1.000  O
  O8       1.0000 0.44280  0.23630  0.94590  Biso   1.000  O
  O9       1.0000 0.80540  0.09450  0.66450  Biso   1.000  O
  O10      1.0000 0.80760  0.97340  0.55620  Biso   1.000  O
  O11      1.0000 0.07160  0.58800  0.44510  Biso   1.000  O
  O12      1.0000 0.68710  0.72830  0.16240  Biso   1.000  O
  O13      1.0000 0.59850  0.95970  0.91640  Biso   1.000  O
  O14      1.0000 0.54470  0.09610  0.85100  Biso   1.000  O
  O15      1.0000 0.66510  0.01340  0.77690  Biso   1.000  O
  O16      1.0000 0.89890  0.85980  0.42540  Biso   1.000  O
  O17      1.0000 0.95970  0.72890  0.35430  Biso   1.000  O
  O18      1.0000 0.82930  0.80980  0.28070  Biso   1.000  O
  O19      1.0000 0.55470  0.84500  0.94160  Biso   1.000  O
  H1       1.0000 0.55380  0.81150  0.97210  Biso   1.000  H
  O20      1.0000 0.42190  0.12420  0.82830  Biso   1.000  O
  H2       1.0000 0.38920  0.15650  0.82920  Biso   1.000  H
  O21      1.0000 0.68860  0.97480  0.66070  Biso   1.000  O
  H3       1.0000 0.72120  0.97340  0.62940  Biso   1.000  H
  O22      1.0000 0.93920  0.97600  0.45330  Biso   1.000  O
  H4       1.0000 0.94110  0.00740  0.48590  Biso   1.000  H
  O23      1.0000 0.08230  0.70380  0.32840  Biso   1.000  O
  H5       1.0000 0.11580  0.67220  0.32740  Biso   1.000  H
  O24      1.0000 0.80380  0.84590  0.16440  Biso   1.000  O
  H6       1.0000 0.77090  0.84880  0.13100  Biso   1.000  H
  O25      1.0000 0.54060  0.89220  0.09040  Biso   1.000  O
  O26      1.0000 0.47570  0.27340  0.79660  Biso   1.000  O
  O27      1.0000 0.78200  0.92970  0.81630  Biso   1.000  O
  O28      1.0000 0.95760  0.92770  0.60250  Biso   1.000  O
  O29      1.0000 0.03050  0.55490  0.29380  Biso   1.000  O
  O30      1.0000 0.64900  0.87440  0.20940  Biso   1.000  O
  O31      1.0000 0.53570  0.00340  0.03970  Biso   1.000  O
  O32      1.0000 0.58080  0.20990  0.77390  Biso   1.000  O
  O33      1.0000 0.84450  0.94880  0.71520  Biso   1.000  O
  O34      1.0000 0.96490  0.81710  0.54890  Biso   1.000  O
  O35      1.0000 0.92190  0.61620  0.27350  Biso   1.000  O
  O36      1.0000 0.70990  0.88450  0.31990  Biso   1.000  O
  Cu1      1.0000 0.69372  0.95805  0.86792  Biso   1.000  Cu
  Cu2      1.0000 0.56111  0.05332  0.94901  Biso   1.000  Cu
  Cu3      1.0000 0.63049  0.11478  0.79196  Biso   1.000  Cu
  Cu4      1.0000 0.80276  0.86189  0.37050  Biso   1.000  Cu
  Cu5      1.0000 0.94458  0.76664  0.45514  Biso   1.000  Cu
  Cu6      1.0000 0.86839  0.70681  0.29550  Biso   1.000  Cu
  Zn1      1.0000 0.60639  0.80806  0.12973  Biso   1.000  Zn
  Zn2      1.0000 0.88863  0.01352  0.63458  Biso   1.000  Zn
  Br1      1.0000 0.79656  0.70412  0.42520  Biso   1.000  Br
  C19      1.0000 0.32330  0.37980  0.00690  Biso   1.000  C
  C20      1.0000 0.51660  0.68080  0.06610  Biso   1.000  C
  C21      1.0000 0.25140  0.58670  0.29670  Biso   1.000  C
  C22      1.0000 0.18000  0.43700  0.50100  Biso   1.000  C
  C23      1.0000 0.96930  0.14520  0.56560  Biso   1.000  C
  C24      1.0000 0.25470  0.23460  0.79580  Biso   1.000  C
  C25      1.0000 0.40380  0.40550  0.02790  Biso   1.000  C
  C26      1.0000 0.50870  0.65280  0.14720  Biso   1.000  C
  C27      1.0000 0.28050  0.50690  0.27490  Biso   1.000  C
  C28      1.0000 0.09980  0.41060  0.52020  Biso   1.000  C
  C29      1.0000 0.98610  0.17150  0.64770  Biso   1.000  C
  C30      1.0000 0.22800  0.31280  0.77280  Biso   1.000  C
  C31      1.0000 0.44410  0.43480  0.96060  Biso   1.000  C
  C32      1.0000 0.48210  0.71910  0.19470  Biso   1.000  C
  C33      1.0000 0.21230  0.46010  0.24740  Biso   1.000  C
  C34      1.0000 0.05360  0.38290  0.44830  Biso   1.000  C
  C35      1.0000 0.01390  0.11070  0.69660  Biso   1.000  C
  C36      1.0000 0.29660  0.36140  0.74800  Biso   1.000  C
  O37      1.0000 0.27170  0.39470  0.04970  Biso   1.000  O
  O38      1.0000 0.48480  0.64180  0.01540  Biso   1.000  O
  O39      1.0000 0.29180  0.64090  0.27580  Biso   1.000  O
  O40      1.0000 0.23310  0.41580  0.54400  Biso   1.000  O
  O41      1.0000 0.99820  0.18220  0.51450  Biso   1.000  O
  O42      1.0000 0.21560  0.18070  0.77110  Biso   1.000  O
  O43      1.0000 0.31160  0.34040  0.94870  Biso   1.000  O
  O44      1.0000 0.55720  0.73630  0.05410  Biso   1.000  O
  O45      1.0000 0.19460  0.59450  0.33550  Biso   1.000  O
  O46      1.0000 0.19240  0.47340  0.44380  Biso   1.000  O
  O47      1.0000 0.92840  0.08800  0.55490  Biso   1.000  O
  O48      1.0000 0.31290  0.22830  0.83760  Biso   1.000  O
  O49      1.0000 0.40150  0.45970  0.08360  Biso   1.000  O
  O50      1.0000 0.45530  0.59610  0.14900  Biso   1.000  O
  O51      1.0000 0.33490  0.51340  0.22310  Biso   1.000  O
  O52      1.0000 0.10110  0.35980  0.57460  Biso   1.000  O
  O53      1.0000 0.04030  0.22890  0.64570  Biso   1.000  O
  O54      1.0000 0.17070  0.30980  0.71930  Biso   1.000  O
  O55      1.0000 0.44530  0.34500  0.05840  Biso   1.000  O
  H7       1.0000 0.44620  0.31150  0.02790  Biso   1.000  H
  O56      1.0000 0.57810  0.62420  0.17170  Biso   1.000  O
  H8       1.0000 0.61080  0.65650  0.17080  Biso   1.000  H
  O57      1.0000 0.31140  0.47480  0.33930  Biso   1.000  O
  H9       1.0000 0.27880  0.47340  0.37060  Biso   1.000  H
  O58      1.0000 0.06080  0.47600  0.54670  Biso   1.000  O
  H10      1.0000 0.05890  0.50740  0.51410  Biso   1.000  H
  O59      1.0000 0.91770  0.20380  0.67160  Biso   1.000  O
  H11      1.0000 0.88420  0.17220  0.67260  Biso   1.000  H
  O60      1.0000 0.19620  0.34590  0.83560  Biso   1.000  O
  H12      1.0000 0.22910  0.34880  0.86900  Biso   1.000  H
  O61      1.0000 0.45940  0.39220  0.90960  Biso   1.000  O
  O62      1.0000 0.52430  0.77340  0.20340  Biso   1.000  O
  O63      1.0000 0.21800  0.42970  0.18370  Biso   1.000  O
  O64      1.0000 0.04240  0.42770  0.39750  Biso   1.000  O
  O65      1.0000 0.96950  0.05490  0.70620  Biso   1.000  O
  O66      1.0000 0.35100  0.37440  0.79060  Biso   1.000  O
  O67      1.0000 0.46430  0.50340  0.96030  Biso   1.000  O
  O68      1.0000 0.41920  0.70990  0.22610  Biso   1.000  O
  O69      1.0000 0.15550  0.44880  0.28480  Biso   1.000  O
  O70      1.0000 0.03510  0.31710  0.45110  Biso   1.000  O
  O71      1.0000 0.07810  0.11620  0.72650  Biso   1.000  O
  O72      1.0000 0.29010  0.38450  0.68010  Biso   1.000  O
  Cu7      1.0000 0.30628  0.45805  0.13208  Biso   1.000  Cu
  Cu8      1.0000 0.43889  0.55332  0.05099  Biso   1.000  Cu
  Cu9      1.0000 0.36951  0.61478  0.20804  Biso   1.000  Cu
  Cu10     1.0000 0.19724  0.36189  0.62950  Biso   1.000  Cu
  Cu11     1.0000 0.05542  0.26664  0.54486  Biso   1.000  Cu
  Cu12     1.0000 0.13161  0.20681  0.70450  Biso   1.000  Cu
  Zn3      1.0000 0.39361  0.30806  0.87027  Biso   1.000  Zn
  Zn4      1.0000 0.11137  0.51352  0.36542  Biso   1.000  Zn
  Br2      1.0000 0.20344  0.20412  0.57480  Biso   1.000  Br
