data_image0
_cell_length_a       16.217
_cell_length_b       17.9831
_cell_length_c       19.6402
_cell_angle_alpha    90
_cell_angle_beta     90
_cell_angle_gamma    90

_symmetry_space_group_name_H-M    "P 1"
_symmetry_int_tables_number       1

loop_
  _symmetry_equiv_pos_as_xyz
  'x, y, z'

loop_
  _atom_site_label
  _atom_site_occupancy
  _atom_site_fract_x
  _atom_site_fract_y
  _atom_site_fract_z
  _atom_site_thermal_displace_type
  _atom_site_B_iso_or_equiv
  _atom_site_type_symbol
  Mn1      1.0000 0.89764  0.42820  0.89729  Biso   1.000  Mn
  Cu1      1.0000 0.21909  0.06905  0.84918  Biso   1.000  Cu
  Cu2      1.0000 0.02992  0.14915  0.80037  Biso   1.000  Cu
  Cu3      1.0000 0.15529  0.21203  0.93119  Biso   1.000  Cu
  Br1      1.0000 0.25342  0.21412  0.81867  Biso   1.000  Br
  C1       1.0000 0.19044  0.00419  0.72530  Biso   1.000  C
  C2       1.0000 0.30720  0.04132  0.96584  Biso   1.000  C
  C3       1.0000 0.04316  0.32496  0.93090  Biso   1.000  C
  C4       1.0000 0.10361  0.01833  0.75560  Biso   1.000  C
  C5       1.0000 0.23289  0.08820  0.99120  Biso   1.000  C
  C6       1.0000 0.99982  0.26012  0.89265  Biso   1.000  C
  C7       1.0000 0.04059  0.04489  0.70240  Biso   1.000  C
  C8       1.0000 0.26523  0.16124  0.02328  Biso   1.000  C
  C9       1.0000 0.96466  0.28523  0.82296  Biso   1.000  C
  O1       1.0000 0.25021  0.02169  0.76334  Biso   1.000  O
  O2       1.0000 0.31097  0.02859  0.90225  Biso   1.000  O
  O3       1.0000 0.11758  0.31326  0.94798  Biso   1.000  O
  O4       1.0000 0.19786  0.97502  0.66752  Biso   1.000  O
  O5       1.0000 0.35823  0.01820  0.00834  Biso   1.000  O
  O6       1.0000 0.00468  0.38227  0.94433  Biso   1.000  O
  O7       1.0000 0.10919  0.06984  0.80730  Biso   1.000  O
  O8       1.0000 0.17896  0.10389  0.93875  Biso   1.000  O
  O9       1.0000 0.05352  0.20206  0.88267  Biso   1.000  O
  O10      1.0000 0.07532  0.95076  0.78531  Biso   1.000  O
  H1       1.0000 0.07020  0.91910  0.75560  Biso   1.000  H
  O11      1.0000 0.18996  0.04772  0.04208  Biso   1.000  O
  H2       1.0000 0.22140  0.03820  0.07360  Biso   1.000  H
  O12      1.0000 0.93322  0.23390  0.93303  Biso   1.000  O
  H3       1.0000 0.89960  0.26750  0.93840  Biso   1.000  H
  O13      1.0000 0.02861  0.00813  0.64980  Biso   1.000  O
  O14      1.0000 0.31553  0.15754  0.07128  Biso   1.000  O
  O15      1.0000 0.92983  0.34618  0.81659  Biso   1.000  O
  O16      1.0000 0.99971  0.10187  0.71568  Biso   1.000  O
  O17      1.0000 0.23934  0.22142  0.00068  Biso   1.000  O
  O18      1.0000 0.97110  0.23926  0.77542  Biso   1.000  O
  Mn2      1.0000 0.60236  0.57180  0.39729  Biso   1.000  Mn
  Cu4      1.0000 0.28091  0.93095  0.34918  Biso   1.000  Cu
  Cu5      1.0000 0.47008  0.85085  0.30037  Biso   1.000  Cu
  Cu6      1.0000 0.34471  0.78797  0.43119  Biso   1.000  Cu
  Br2      1.0000 0.24658  0.78588  0.31867  Biso   1.000  Br
  C10      1.0000 0.30956  0.99581  0.22530  Biso   1.000  C
  C11      1.0000 0.19280  0.95868  0.46584  Biso   1.000  C
  C12      1.0000 0.45684  0.67504  0.43090  Biso   1.000  C
  C13      1.0000 0.39639  0.98167  0.25560  Biso   1.000  C
  C14      1.0000 0.26711  0.91180  0.49120  Biso   1.000  C
  C15      1.0000 0.50018  0.73988  0.39265  Biso   1.000  C
  C16      1.0000 0.45941  0.95511  0.20240  Biso   1.000  C
  C17      1.0000 0.23477  0.83876  0.52328  Biso   1.000  C
  C18      1.0000 0.53534  0.71477  0.32296  Biso   1.000  C
  O19      1.0000 0.24979  0.97831  0.26334  Biso   1.000  O
  O20      1.0000 0.18903  0.97141  0.40225  Biso   1.000  O
  O21      1.0000 0.38242  0.68674  0.44798  Biso   1.000  O
  O22      1.0000 0.30214  0.02498  0.16752  Biso   1.000  O
  O23      1.0000 0.14177  0.98180  0.50834  Biso   1.000  O
  O24      1.0000 0.49532  0.61773  0.44433  Biso   1.000  O
  O25      1.0000 0.39081  0.93016  0.30730  Biso   1.000  O
  O26      1.0000 0.32104  0.89611  0.43875  Biso   1.000  O
  O27      1.0000 0.44648  0.79794  0.38267  Biso   1.000  O
  O28      1.0000 0.42468  0.04924  0.28531  Biso   1.000  O
  H4       1.0000 0.42980  0.08090  0.25560  Biso   1.000  H
  O29      1.0000 0.31004  0.95228  0.54208  Biso   1.000  O
  H5       1.0000 0.27860  0.96180  0.57360  Biso   1.000  H
  O30      1.0000 0.56678  0.76610  0.43303  Biso   1.000  O
  H6       1.0000 0.60040  0.73250  0.43840  Biso   1.000  H
  O31      1.0000 0.47139  0.99187  0.14980  Biso   1.000  O
  O32      1.0000 0.18447  0.84246  0.57128  Biso   1.000  O
  O33      1.0000 0.57017  0.65382  0.31659  Biso   1.000  O
  O34      1.0000 0.50029  0.89813  0.21568  Biso   1.000  O
  O35      1.0000 0.26066  0.77858  0.50068  Biso   1.000  O
  O36      1.0000 0.52890  0.76074  0.27542  Biso   1.000  O
  Mn3      1.0000 0.10236  0.92820  0.60271  Biso   1.000  Mn
  Cu7      1.0000 0.78091  0.56905  0.65082  Biso   1.000  Cu
  Cu8      1.0000 0.97008  0.64915  0.69963  Biso   1.000  Cu
  Cu9      1.0000 0.84471  0.71203  0.56881  Biso   1.000  Cu
  Br3      1.0000 0.74658  0.71412  0.68133  Biso   1.000  Br
  C19      1.0000 0.80956  0.50419  0.77470  Biso   1.000  C
  C20      1.0000 0.69280  0.54132  0.53416  Biso   1.000  C
  C21      1.0000 0.95684  0.82496  0.56910  Biso   1.000  C
  C22      1.0000 0.89639  0.51833  0.74440  Biso   1.000  C
  C23      1.0000 0.76711  0.58820  0.50880  Biso   1.000  C
  C24      1.0000 0.00018  0.76012  0.60735  Biso   1.000  C
  C25      1.0000 0.95941  0.54489  0.79760  Biso   1.000  C
  C26      1.0000 0.73477  0.66124  0.47672  Biso   1.000  C
  C27      1.0000 0.03534  0.78523  0.67704  Biso   1.000  C
  O37      1.0000 0.74979  0.52169  0.73666  Biso   1.000  O
  O38      1.0000 0.68903  0.52859  0.59775  Biso   1.000  O
  O39      1.0000 0.88242  0.81326  0.55202  Biso   1.000  O
  O40      1.0000 0.80214  0.47502  0.83248  Biso   1.000  O
  O41      1.0000 0.64177  0.51820  0.49166  Biso   1.000  O
  O42      1.0000 0.99532  0.88227  0.55567  Biso   1.000  O
  O43      1.0000 0.89081  0.56984  0.69270  Biso   1.000  O
  O44      1.0000 0.82104  0.60389  0.56125  Biso   1.000  O
  O45      1.0000 0.94648  0.70206  0.61733  Biso   1.000  O
  O46      1.0000 0.92468  0.45076  0.71469  Biso   1.000  O
  H7       1.0000 0.92980  0.41910  0.74440  Biso   1.000  H
  O47      1.0000 0.81004  0.54772  0.45792  Biso   1.000  O
  H8       1.0000 0.77860  0.53820  0.42640  Biso   1.000  H
  O48      1.0000 0.06678  0.73390  0.56697  Biso   1.000  O
  H9       1.0000 0.10040  0.76750  0.56160  Biso   1.000  H
  O49      1.0000 0.97139  0.50813  0.85020  Biso   1.000  O
  O50      1.0000 0.68447  0.65754  0.42872  Biso   1.000  O
  O51      1.0000 0.07017  0.84618  0.68341  Biso   1.000  O
  O52      1.0000 0.00029  0.60187  0.78432  Biso   1.000  O
  O53      1.0000 0.76066  0.72142  0.49932  Biso   1.000  O
  O54      1.0000 0.02890  0.73926  0.72458  Biso   1.000  O
  Mn4      1.0000 0.39764  0.07180  0.10271  Biso   1.000  Mn
  Cu10     1.0000 0.71909  0.43095  0.15082  Biso   1.000  Cu
  Cu11     1.0000 0.52992  0.35085  0.19963  Biso   1.000  Cu
  Cu12     1.0000 0.65529  0.28797  0.06881  Biso   1.000  Cu
  Br4      1.0000 0.75342  0.28588  0.18133  Biso   1.000  Br
  C28      1.0000 0.69044  0.49581  0.27470  Biso   1.000  C
  C29      1.0000 0.80720  0.45868  0.03416  Biso   1.000  C
  C30      1.0000 0.54316  0.17504  0.06910  Biso   1.000  C
  C31      1.0000 0.60361  0.48167  0.24440  Biso   1.000  C
  C32      1.0000 0.73289  0.41180  0.00880  Biso   1.000  C
  C33      1.0000 0.49982  0.23988  0.10735  Biso   1.000  C
  C34      1.0000 0.54059  0.45511  0.29760  Biso   1.000  C
  C35      1.0000 0.76523  0.33876  0.97672  Biso   1.000  C
  C36      1.0000 0.46466  0.21477  0.17704  Biso   1.000  C
  O55      1.0000 0.75021  0.47831  0.23666  Biso   1.000  O
  O56      1.0000 0.81097  0.47141  0.09775  Biso   1.000  O
  O57      1.0000 0.61758  0.18674  0.05202  Biso   1.000  O
  O58      1.0000 0.69786  0.52498  0.33248  Biso   1.000  O
  O59      1.0000 0.85823  0.48180  0.99166  Biso   1.000  O
  O60      1.0000 0.50468  0.11773  0.05567  Biso   1.000  O
  O61      1.0000 0.60919  0.43016  0.19270  Biso   1.000  O
  O62      1.0000 0.67896  0.39611  0.06125  Biso   1.000  O
  O63      1.0000 0.55352  0.29794  0.11733  Biso   1.000  O
  O64      1.0000 0.57532  0.54924  0.21469  Biso   1.000  O
  H10      1.0000 0.57020  0.58090  0.24440  Biso   1.000  H
  O65      1.0000 0.68996  0.45228  0.95792  Biso   1.000  O
  H11      1.0000 0.72140  0.46180  0.92640  Biso   1.000  H
  O66      1.0000 0.43322  0.26610  0.06697  Biso   1.000  O
  H12      1.0000 0.39960  0.23250  0.06160  Biso   1.000  H
  O67      1.0000 0.52861  0.49187  0.35020  Biso   1.000  O
  O68      1.0000 0.81553  0.34246  0.92872  Biso   1.000  O
  O69      1.0000 0.42983  0.15382  0.18341  Biso   1.000  O
  O70      1.0000 0.49971  0.39813  0.28432  Biso   1.000  O
  O71      1.0000 0.73934  0.27858  0.99932  Biso   1.000  O
  O72      1.0000 0.47110  0.26074  0.22458  Biso   1.000  O
