data_image0
_cell_length_a       17.9181
_cell_length_b       17.9181
_cell_length_c       17.9181
_cell_angle_alpha    90
_cell_angle_beta     90
_cell_angle_gamma    90

_symmetry_space_group_name_H-M    "P 1"
_symmetry_int_tables_number       1

loop_
  _symmetry_equiv_pos_as_xyz
  'x, y, z'

loop_
  _atom_site_label
  _atom_site_occupancy
  _atom_site_fract_x
  _atom_site_fract_y
  _atom_site_fract_z
  _atom_site_thermal_displace_type
  _atom_site_B_iso_or_equiv
  _atom_site_type_symbol
  Cu1      1.0000 0.20336  0.05267  0.13614  Biso   1.000  Cu
  O1       1.0000 0.23280  0.99170  0.22000  Biso   1.000  O
  O2       1.0000 0.18660  0.93310  0.31790  Biso   1.000  O
  O3       1.0000 0.10680  0.04140  0.17950  Biso   1.000  O
  O4       1.0000 0.06990  0.92720  0.20110  Biso   1.000  O
  H1       1.0000 0.06452  0.89414  0.23230  Biso   1.000  H
  O5       1.0000 0.03870  0.97840  0.35480  Biso   1.000  O
  O6       1.0000 0.03040  0.08350  0.29690  Biso   1.000  O
  C1       1.0000 0.17640  0.96880  0.26240  Biso   1.000  C
  C2       1.0000 0.10420  0.99110  0.23540  Biso   1.000  C
  C3       1.0000 0.05210  0.01430  0.29350  Biso   1.000  C
  Cu2      1.0000 0.29664  0.94733  0.63614  Biso   1.000  Cu
  O7       1.0000 0.26720  0.00830  0.72000  Biso   1.000  O
  O8       1.0000 0.31340  0.06690  0.81790  Biso   1.000  O
  O9       1.0000 0.39320  0.95860  0.67950  Biso   1.000  O
  O10      1.0000 0.43010  0.07280  0.70110  Biso   1.000  O
  H2       1.0000 0.43548  0.10586  0.73230  Biso   1.000  H
  O11      1.0000 0.46130  0.02160  0.85480  Biso   1.000  O
  O12      1.0000 0.46960  0.91650  0.79690  Biso   1.000  O
  C4       1.0000 0.32360  0.03120  0.76240  Biso   1.000  C
  C5       1.0000 0.39580  0.00890  0.73540  Biso   1.000  C
  C6       1.0000 0.44790  0.98570  0.79350  Biso   1.000  C
  Cu3      1.0000 0.79664  0.55267  0.36386  Biso   1.000  Cu
  O13      1.0000 0.76720  0.49170  0.28000  Biso   1.000  O
  O14      1.0000 0.81340  0.43310  0.18210  Biso   1.000  O
  O15      1.0000 0.89320  0.54140  0.32050  Biso   1.000  O
  O16      1.0000 0.93010  0.42720  0.29890  Biso   1.000  O
  H3       1.0000 0.93548  0.39414  0.26770  Biso   1.000  H
  O17      1.0000 0.96130  0.47840  0.14520  Biso   1.000  O
  O18      1.0000 0.96960  0.58350  0.20310  Biso   1.000  O
  C7       1.0000 0.82360  0.46880  0.23760  Biso   1.000  C
  C8       1.0000 0.89580  0.49110  0.26460  Biso   1.000  C
  C9       1.0000 0.94790  0.51430  0.20650  Biso   1.000  C
  Cu4      1.0000 0.70336  0.44733  0.86386  Biso   1.000  Cu
  O19      1.0000 0.73280  0.50830  0.78000  Biso   1.000  O
  O20      1.0000 0.68660  0.56690  0.68210  Biso   1.000  O
  O21      1.0000 0.60680  0.45860  0.82050  Biso   1.000  O
  O22      1.0000 0.56990  0.57280  0.79890  Biso   1.000  O
  H4       1.0000 0.56452  0.60586  0.76770  Biso   1.000  H
  O23      1.0000 0.53870  0.52160  0.64520  Biso   1.000  O
  O24      1.0000 0.53040  0.41650  0.70310  Biso   1.000  O
  C10      1.0000 0.67640  0.53120  0.73760  Biso   1.000  C
  C11      1.0000 0.60420  0.50890  0.76460  Biso   1.000  C
  C12      1.0000 0.55210  0.48570  0.70650  Biso   1.000  C
  Cu5      1.0000 0.13614  0.20336  0.05267  Biso   1.000  Cu
  O25      1.0000 0.22000  0.23280  0.99170  Biso   1.000  O
  O26      1.0000 0.31790  0.18660  0.93310  Biso   1.000  O
  O27      1.0000 0.17950  0.10680  0.04140  Biso   1.000  O
  O28      1.0000 0.20110  0.06990  0.92720  Biso   1.000  O
  H5       1.0000 0.23230  0.06452  0.89414  Biso   1.000  H
  O29      1.0000 0.35480  0.03870  0.97840  Biso   1.000  O
  O30      1.0000 0.29690  0.03040  0.08350  Biso   1.000  O
  C13      1.0000 0.26240  0.17640  0.96880  Biso   1.000  C
  C14      1.0000 0.23540  0.10420  0.99110  Biso   1.000  C
  C15      1.0000 0.29350  0.05210  0.01430  Biso   1.000  C
  Cu6      1.0000 0.63614  0.29664  0.94733  Biso   1.000  Cu
  O31      1.0000 0.72000  0.26720  0.00830  Biso   1.000  O
  O32      1.0000 0.81790  0.31340  0.06690  Biso   1.000  O
  O33      1.0000 0.67950  0.39320  0.95860  Biso   1.000  O
  O34      1.0000 0.70110  0.43010  0.07280  Biso   1.000  O
  H6       1.0000 0.73230  0.43548  0.10586  Biso   1.000  H
  O35      1.0000 0.85480  0.46130  0.02160  Biso   1.000  O
  O36      1.0000 0.79690  0.46960  0.91650  Biso   1.000  O
  C16      1.0000 0.76240  0.32360  0.03120  Biso   1.000  C
  C17      1.0000 0.73540  0.39580  0.00890  Biso   1.000  C
  C18      1.0000 0.79350  0.44790  0.98570  Biso   1.000  C
  Cu7      1.0000 0.36386  0.79664  0.55267  Biso   1.000  Cu
  O37      1.0000 0.28000  0.76720  0.49170  Biso   1.000  O
  O38      1.0000 0.18210  0.81340  0.43310  Biso   1.000  O
  O39      1.0000 0.32050  0.89320  0.54140  Biso   1.000  O
  O40      1.0000 0.29890  0.93010  0.42720  Biso   1.000  O
  H7       1.0000 0.26770  0.93548  0.39414  Biso   1.000  H
  O41      1.0000 0.14520  0.96130  0.47840  Biso   1.000  O
  O42      1.0000 0.20310  0.96960  0.58350  Biso   1.000  O
  C19      1.0000 0.23760  0.82360  0.46880  Biso   1.000  C
  C20      1.0000 0.26460  0.89580  0.49110  Biso   1.000  C
  C21      1.0000 0.20650  0.94790  0.51430  Biso   1.000  C
  Cu8      1.0000 0.86386  0.70336  0.44733  Biso   1.000  Cu
  O43      1.0000 0.78000  0.73280  0.50830  Biso   1.000  O
  O44      1.0000 0.68210  0.68660  0.56690  Biso   1.000  O
  O45      1.0000 0.82050  0.60680  0.45860  Biso   1.000  O
  O46      1.0000 0.79890  0.56990  0.57280  Biso   1.000  O
  H8       1.0000 0.76770  0.56452  0.60586  Biso   1.000  H
  O47      1.0000 0.64520  0.53870  0.52160  Biso   1.000  O
  O48      1.0000 0.70310  0.53040  0.41650  Biso   1.000  O
  C22      1.0000 0.73760  0.67640  0.53120  Biso   1.000  C
  C23      1.0000 0.76460  0.60420  0.50890  Biso   1.000  C
  C24      1.0000 0.70650  0.55210  0.48570  Biso   1.000  C
  Cu9      1.0000 0.05267  0.13614  0.20336  Biso   1.000  Cu
  O49      1.0000 0.99170  0.22000  0.23280  Biso   1.000  O
  O50      1.0000 0.93310  0.31790  0.18660  Biso   1.000  O
  O51      1.0000 0.04140  0.17950  0.10680  Biso   1.000  O
  O52      1.0000 0.92720  0.20110  0.06990  Biso   1.000  O
  H9       1.0000 0.89414  0.23230  0.06452  Biso   1.000  H
  O53      1.0000 0.97840  0.35480  0.03870  Biso   1.000  O
  O54      1.0000 0.08350  0.29690  0.03040  Biso   1.000  O
  C25      1.0000 0.96880  0.26240  0.17640  Biso   1.000  C
  C26      1.0000 0.99110  0.23540  0.10420  Biso   1.000  C
  C27      1.0000 0.01430  0.29350  0.05210  Biso   1.000  C
  Cu10     1.0000 0.94733  0.63614  0.29664  Biso   1.000  Cu
  O55      1.0000 0.00830  0.72000  0.26720  Biso   1.000  O
  O56      1.0000 0.06690  0.81790  0.31340  Biso   1.000  O
  O57      1.0000 0.95860  0.67950  0.39320  Biso   1.000  O
  O58      1.0000 0.07280  0.70110  0.43010  Biso   1.000  O
  H10      1.0000 0.10586  0.73230  0.43548  Biso   1.000  H
  O59      1.0000 0.02160  0.85480  0.46130  Biso   1.000  O
  O60      1.0000 0.91650  0.79690  0.46960  Biso   1.000  O
  C28      1.0000 0.03120  0.76240  0.32360  Biso   1.000  C
  C29      1.0000 0.00890  0.73540  0.39580  Biso   1.000  C
  C30      1.0000 0.98570  0.79350  0.44790  Biso   1.000  C
  Cu11     1.0000 0.55267  0.36386  0.79664  Biso   1.000  Cu
  O61      1.0000 0.49170  0.28000  0.76720  Biso   1.000  O
  O62      1.0000 0.43310  0.18210  0.81340  Biso   1.000  O
  O63      1.0000 0.54140  0.32050  0.89320  Biso   1.000  O
  O64      1.0000 0.42720  0.29890  0.93010  Biso   1.000  O
  H11      1.0000 0.39414  0.26770  0.93548  Biso   1.000  H
  O65      1.0000 0.47840  0.14520  0.96130  Biso   1.000  O
  O66      1.0000 0.58350  0.20310  0.96960  Biso   1.000  O
  C31      1.0000 0.46880  0.23760  0.82360  Biso   1.000  C
  C32      1.0000 0.49110  0.26460  0.89580  Biso   1.000  C
  C33      1.0000 0.51430  0.20650  0.94790  Biso   1.000  C
  Cu12     1.0000 0.44733  0.86386  0.70336  Biso   1.000  Cu
  O67      1.0000 0.50830  0.78000  0.73280  Biso   1.000  O
  O68      1.0000 0.56690  0.68210  0.68660  Biso   1.000  O
  O69      1.0000 0.45860  0.82050  0.60680  Biso   1.000  O
  O70      1.0000 0.57280  0.79890  0.56990  Biso   1.000  O
  H12      1.0000 0.60586  0.76770  0.56452  Biso   1.000  H
  O71      1.0000 0.52160  0.64520  0.53870  Biso   1.000  O
  O72      1.0000 0.41650  0.70310  0.53040  Biso   1.000  O
  C34      1.0000 0.53120  0.73760  0.67640  Biso   1.000  C
  C35      1.0000 0.50890  0.76460  0.60420  Biso   1.000  C
  C36      1.0000 0.48570  0.70650  0.55210  Biso   1.000  C
  Co1      1.0000 0.10651  0.89349  0.39349  Biso   1.000  Co
  Co2      1.0000 0.39349  0.10651  0.89349  Biso   1.000  Co
  Co3      1.0000 0.89349  0.39349  0.10651  Biso   1.000  Co
  Co4      1.0000 0.60651  0.60651  0.60651  Biso   1.000  Co
