data_LASWEJ_clean
_audit_creation_date              2014-07-02
_audit_creation_method            'Materials Studio'
_symmetry_space_group_name_H-M    'P1'
_symmetry_Int_Tables_number       1
_symmetry_cell_setting            triclinic
loop_
_symmetry_equiv_pos_as_xyz
  x,y,z
_cell_length_a                    8.8102
_cell_length_b                    15.6323
_cell_length_c                    16.3592
_cell_angle_alpha                 103.5440
_cell_angle_beta                  100.8110
_cell_angle_gamma                 90.1909
loop_
_atom_site_label
_atom_site_type_symbol
_atom_site_fract_x
_atom_site_fract_y
_atom_site_fract_z
_atom_site_U_iso_or_equiv
_atom_site_adp_type
_atom_site_occupancy
Co1    Co    0.35538   0.95035   0.35973   0.01267  Uiso   1.00
Co2    Co    0.81166   0.79012   0.73236   0.01267  Uiso   1.00
Co3    Co    0.64462   0.04965   0.64027   0.01267  Uiso   1.00
Co4    Co    0.18834   0.20988   0.26764   0.01267  Uiso   1.00
H1     H     0.37050   0.82800   0.75490   0.01267  Uiso   1.00
H2     H     0.07410   0.00280   0.60430   0.01267  Uiso   1.00
H3     H     0.26390   0.95690   0.16420   0.01267  Uiso   1.00
H4     H     0.34770   0.91840   0.03730   0.01267  Uiso   1.00
H5     H     0.73700   0.84710   0.16390   0.01267  Uiso   1.00
H6     H     0.63430   0.87730   0.28420   0.01267  Uiso   1.00
H7     H     0.14840   0.79100   0.24480   0.01267  Uiso   1.00
H8     H     0.11200   0.64200   0.22510   0.01267  Uiso   1.00
H9     H     0.46700   0.65150   0.41900   0.01267  Uiso   1.00
H10    H     0.48900   0.79990   0.43590   0.01267  Uiso   1.00
H11    H     0.16000   0.50170   0.18100   0.01267  Uiso   1.00
H12    H     0.12930   0.35270   0.16740   0.01267  Uiso   1.00
H13    H     0.32730   0.37430   0.40310   0.01267  Uiso   1.00
H14    H     0.36190   0.52320   0.42480   0.01267  Uiso   1.00
H15    H     0.81270   0.93700   0.04740   0.01267  Uiso   1.00
H16    H     0.90150   0.90070   0.91980   0.01267  Uiso   1.00
H17    H     0.55130   0.73490   0.81430   0.01267  Uiso   1.00
H18    H     0.44540   0.77210   0.93450   0.01267  Uiso   1.00
H19    H     0.62950   0.17200   0.24510   0.01267  Uiso   1.00
H20    H     0.92590   0.99720   0.39570   0.01267  Uiso   1.00
H21    H     0.73610   0.04310   0.83580   0.01267  Uiso   1.00
H22    H     0.65230   0.08160   0.96270   0.01267  Uiso   1.00
H23    H     0.26300   0.15290   0.83610   0.01267  Uiso   1.00
H24    H     0.36570   0.12270   0.71580   0.01267  Uiso   1.00
H25    H     0.85160   0.20900   0.75520   0.01267  Uiso   1.00
H26    H     0.88800   0.35800   0.77490   0.01267  Uiso   1.00
H27    H     0.53300   0.34850   0.58100   0.01267  Uiso   1.00
H28    H     0.51100   0.20010   0.56410   0.01267  Uiso   1.00
H29    H     0.84000   0.49830   0.81900   0.01267  Uiso   1.00
H30    H     0.87070   0.64730   0.83260   0.01267  Uiso   1.00
H31    H     0.67270   0.62570   0.59690   0.01267  Uiso   1.00
H32    H     0.63810   0.47680   0.57520   0.01267  Uiso   1.00
H33    H     0.18730   0.06300   0.95260   0.01267  Uiso   1.00
H34    H     0.09850   0.09930   0.08020   0.01267  Uiso   1.00
H35    H     0.44870   0.26510   0.18570   0.01267  Uiso   1.00
H36    H     0.55460   0.22790   0.06550   0.01267  Uiso   1.00
C1     C     0.33100   0.98447   0.54857   0.01267  Uiso   1.00
C2     C     0.53010   0.86696   0.64850   0.01267  Uiso   1.00
C3     C     0.12390   0.85563   0.81836   0.01267  Uiso   1.00
C4     C     0.92440   0.97048   0.71873   0.01267  Uiso   1.00
C5     C     0.27940   0.94615   0.61589   0.01267  Uiso   1.00
C6     C     0.36920   0.89303   0.66261   0.01267  Uiso   1.00
C7     C     0.31150   0.86448   0.72536   0.01267  Uiso   1.00
C8     C     0.16900   0.88820   0.74588   0.01267  Uiso   1.00
C9     C     0.07990   0.94169   0.70012   0.01267  Uiso   1.00
C10    C     0.13540   0.96857   0.63553   0.01267  Uiso   1.00
C11    C     0.35980   0.93240   0.16402   0.01267  Uiso   1.00
C12    C     0.41050   0.91110   0.08740   0.01267  Uiso   1.00
C13    C     0.55670   0.87858   0.08583   0.01267  Uiso   1.00
C14    C     0.63790   0.86800   0.16133   0.01267  Uiso   1.00
C15    C     0.57610   0.88760   0.23409   0.01267  Uiso   1.00
C16    C     0.21390   0.76247   0.28030   0.01267  Uiso   1.00
C17    C     0.19150   0.67264   0.26780   0.01267  Uiso   1.00
C18    C     0.28840   0.62795   0.31922   0.01267  Uiso   1.00
C19    C     0.40030   0.67821   0.38242   0.01267  Uiso   1.00
C20    C     0.41380   0.76753   0.39174   0.01267  Uiso   1.00
C21    C     0.26660   0.53119   0.30730   0.01267  Uiso   1.00
C22    C     0.19490   0.47750   0.22760   0.01267  Uiso   1.00
C23    C     0.17750   0.38780   0.22010   0.01267  Uiso   1.00
C24    C     0.29250   0.39990   0.35750   0.01267  Uiso   1.00
C25    C     0.31400   0.49020   0.37100   0.01267  Uiso   1.00
C26    C     0.61820   0.85659   0.00555   0.01267  Uiso   1.00
C27    C     0.75670   0.89630   0.00040   0.01267  Uiso   1.00
C28    C     0.80960   0.87370   0.92330   0.01267  Uiso   1.00
C29    C     0.60350   0.77740   0.86105   0.01267  Uiso   1.00
C30    C     0.54030   0.79790   0.93400   0.01267  Uiso   1.00
C31    C     0.66900   0.01553   0.45143   0.01267  Uiso   1.00
C32    C     0.46990   0.13304   0.35150   0.01267  Uiso   1.00
C33    C     0.87610   0.14437   0.18164   0.01267  Uiso   1.00
C34    C     0.07560   0.02952   0.28127   0.01267  Uiso   1.00
C35    C     0.72060   0.05385   0.38411   0.01267  Uiso   1.00
C36    C     0.63080   0.10697   0.33739   0.01267  Uiso   1.00
C37    C     0.68850   0.13552   0.27464   0.01267  Uiso   1.00
C38    C     0.83100   0.11180   0.25412   0.01267  Uiso   1.00
C39    C     0.92010   0.05831   0.29988   0.01267  Uiso   1.00
C40    C     0.86460   0.03143   0.36447   0.01267  Uiso   1.00
C41    C     0.64020   0.06760   0.83598   0.01267  Uiso   1.00
C42    C     0.58950   0.08890   0.91260   0.01267  Uiso   1.00
C43    C     0.44330   0.12142   0.91417   0.01267  Uiso   1.00
C44    C     0.36210   0.13200   0.83867   0.01267  Uiso   1.00
C45    C     0.42390   0.11240   0.76591   0.01267  Uiso   1.00
C46    C     0.78610   0.23753   0.71970   0.01267  Uiso   1.00
C47    C     0.80850   0.32736   0.73220   0.01267  Uiso   1.00
C48    C     0.71160   0.37205   0.68078   0.01267  Uiso   1.00
C49    C     0.59970   0.32179   0.61758   0.01267  Uiso   1.00
C50    C     0.58620   0.23247   0.60826   0.01267  Uiso   1.00
C51    C     0.73340   0.46881   0.69270   0.01267  Uiso   1.00
C52    C     0.80510   0.52250   0.77240   0.01267  Uiso   1.00
C53    C     0.82250   0.61220   0.77990   0.01267  Uiso   1.00
C54    C     0.70750   0.60010   0.64250   0.01267  Uiso   1.00
C55    C     0.68600   0.50980   0.62900   0.01267  Uiso   1.00
C56    C     0.38180   0.14341   0.99445   0.01267  Uiso   1.00
C57    C     0.24330   0.10370   0.99960   0.01267  Uiso   1.00
C58    C     0.19040   0.12630   0.07670   0.01267  Uiso   1.00
C59    C     0.39650   0.22260   0.13895   0.01267  Uiso   1.00
C60    C     0.45970   0.20210   0.06600   0.01267  Uiso   1.00
N1     N     0.43800   0.92032   0.23717   0.01267  Uiso   1.00
N2     N     0.32450   0.81053   0.34061   0.01267  Uiso   1.00
N3     N     0.22600   0.34857   0.28418   0.01267  Uiso   1.00
N4     N     0.73390   0.81458   0.85372   0.01267  Uiso   1.00
N5     N     0.56200   0.07968   0.76283   0.01267  Uiso   1.00
N6     N     0.67550   0.18947   0.65939   0.01267  Uiso   1.00
N7     N     0.77400   0.65143   0.71582   0.01267  Uiso   1.00
N8     N     0.26610   0.18542   0.14628   0.01267  Uiso   1.00
O1     O     0.27066   0.95057   0.47267   0.01267  Uiso   1.00
O2     O     0.42235   0.05243   0.57379   0.01267  Uiso   1.00
O3     O     0.58203   0.80102   0.67447   0.01267  Uiso   1.00
O4     O     0.60176   0.91170   0.61239   0.01267  Uiso   1.00
O5     O     0.18280   0.89484   0.89237   0.01267  Uiso   1.00
O6     O     0.03507   0.78621   0.79921   0.01267  Uiso   1.00
O7     O     0.87277   0.03803   0.69525   0.01267  Uiso   1.00
O8     O     0.85505   0.92660   0.75678   0.01267  Uiso   1.00
O9     O     0.72934   0.04943   0.52733   0.01267  Uiso   1.00
O10    O     0.57765   0.94757   0.42621   0.01267  Uiso   1.00
O11    O     0.41797   0.19898   0.32553   0.01267  Uiso   1.00
O12    O     0.39824   0.08830   0.38761   0.01267  Uiso   1.00
O13    O     0.81720   0.10516   0.10763   0.01267  Uiso   1.00
O14    O     0.96493   0.21379   0.20079   0.01267  Uiso   1.00
O15    O     0.12723   0.96197   0.30475   0.01267  Uiso   1.00
O16    O     0.14495   0.07340   0.24322   0.01267  Uiso   1.00
