data_LASWIN_clean
_audit_creation_date              2014-07-02
_audit_creation_method            'Materials Studio'
_symmetry_space_group_name_H-M    'P1'
_symmetry_Int_Tables_number       1
_symmetry_cell_setting            triclinic
loop_
_symmetry_equiv_pos_as_xyz
  x,y,z
_cell_length_a                    10.2537
_cell_length_b                    10.9320
_cell_length_c                    13.3383
_cell_angle_alpha                 90.0000
_cell_angle_beta                  90.0000
_cell_angle_gamma                 113.1490
loop_
_atom_site_label
_atom_site_type_symbol
_atom_site_fract_x
_atom_site_fract_y
_atom_site_fract_z
_atom_site_U_iso_or_equiv
_atom_site_adp_type
_atom_site_occupancy
Co1    Co    0.28865   0.51223   0.16323   0.01267  Uiso   1.00
Co2    Co    0.21135   0.98777   0.66323   0.01267  Uiso   1.00
Co3    Co    0.71135   0.48777   0.83677   0.01267  Uiso   1.00
Co4    Co    0.78865   0.01223   0.33677   0.01267  Uiso   1.00
H1     H     0.15520   0.68460   0.41760   0.01267  Uiso   1.00
H2     H     0.99160   0.31560   0.11930   0.01267  Uiso   1.00
H3     H     0.87070   0.10870   0.05690   0.01267  Uiso   1.00
H4     H     0.23900   0.08320   0.99750   0.01267  Uiso   1.00
H5     H     0.35080   0.29550   0.05370   0.01267  Uiso   1.00
H6     H     0.34480   0.81540   0.91760   0.01267  Uiso   1.00
H7     H     0.50840   0.18440   0.61930   0.01267  Uiso   1.00
H8     H     0.62930   0.39130   0.55690   0.01267  Uiso   1.00
H9     H     0.26100   0.41680   0.49750   0.01267  Uiso   1.00
H10    H     0.14920   0.20450   0.55370   0.01267  Uiso   1.00
H11    H     0.84480   0.31540   0.58240   0.01267  Uiso   1.00
H12    H     0.00840   0.68440   0.88070   0.01267  Uiso   1.00
H13    H     0.12930   0.89130   0.94310   0.01267  Uiso   1.00
H14    H     0.76100   0.91680   0.00250   0.01267  Uiso   1.00
H15    H     0.64920   0.70450   0.94630   0.01267  Uiso   1.00
H16    H     0.65520   0.18460   0.08240   0.01267  Uiso   1.00
H17    H     0.49160   0.81560   0.38070   0.01267  Uiso   1.00
H18    H     0.37070   0.60870   0.44310   0.01267  Uiso   1.00
H19    H     0.73900   0.58320   0.50250   0.01267  Uiso   1.00
H20    H     0.85080   0.79550   0.44630   0.01267  Uiso   1.00
C1     C     0.11760   0.48110   0.30430   0.01267  Uiso   1.00
C2     C     0.04780   0.48800   0.40323   0.01267  Uiso   1.00
C3     C     0.95240   0.37570   0.45331   0.01267  Uiso   1.00
C4     C     0.89450   0.24130   0.40430   0.01267  Uiso   1.00
C5     C     0.09260   0.60970   0.45085   0.01267  Uiso   1.00
C6     C     0.04280   0.26900   0.09340   0.01267  Uiso   1.00
C7     C     0.96930   0.14360   0.05650   0.01267  Uiso   1.00
C8     C     0.03860   0.06840   0.01910   0.01267  Uiso   1.00
C9     C     0.18550   0.12910   0.02060   0.01267  Uiso   1.00
C10    C     0.25220   0.25660   0.05620   0.01267  Uiso   1.00
C11    C     0.38240   0.01890   0.80430   0.01267  Uiso   1.00
C12    C     0.45220   0.01200   0.90323   0.01267  Uiso   1.00
C13    C     0.54760   0.12430   0.95331   0.01267  Uiso   1.00
C14    C     0.60550   0.25870   0.90430   0.01267  Uiso   1.00
C15    C     0.40740   0.89030   0.95085   0.01267  Uiso   1.00
C16    C     0.45720   0.23100   0.59340   0.01267  Uiso   1.00
C17    C     0.53070   0.35640   0.55650   0.01267  Uiso   1.00
C18    C     0.46140   0.43160   0.51910   0.01267  Uiso   1.00
C19    C     0.31450   0.37090   0.52060   0.01267  Uiso   1.00
C20    C     0.24780   0.24340   0.55620   0.01267  Uiso   1.00
C21    C     0.88240   0.51890   0.69570   0.01267  Uiso   1.00
C22    C     0.95220   0.51200   0.59677   0.01267  Uiso   1.00
C23    C     0.04760   0.62430   0.54669   0.01267  Uiso   1.00
C24    C     0.10550   0.75870   0.59570   0.01267  Uiso   1.00
C25    C     0.90740   0.39030   0.54915   0.01267  Uiso   1.00
C26    C     0.95720   0.73100   0.90660   0.01267  Uiso   1.00
C27    C     0.03070   0.85640   0.94350   0.01267  Uiso   1.00
C28    C     0.96140   0.93160   0.98090   0.01267  Uiso   1.00
C29    C     0.81450   0.87090   0.97940   0.01267  Uiso   1.00
C30    C     0.74780   0.74340   0.94380   0.01267  Uiso   1.00
C31    C     0.61760   0.98110   0.19570   0.01267  Uiso   1.00
C32    C     0.54780   0.98800   0.09677   0.01267  Uiso   1.00
C33    C     0.45240   0.87570   0.04669   0.01267  Uiso   1.00
C34    C     0.39450   0.74130   0.09570   0.01267  Uiso   1.00
C35    C     0.59260   0.10970   0.04915   0.01267  Uiso   1.00
C36    C     0.54280   0.76900   0.40660   0.01267  Uiso   1.00
C37    C     0.46930   0.64360   0.44350   0.01267  Uiso   1.00
C38    C     0.53860   0.56840   0.48090   0.01267  Uiso   1.00
C39    C     0.68550   0.62910   0.47940   0.01267  Uiso   1.00
C40    C     0.75220   0.75660   0.44380   0.01267  Uiso   1.00
N1     N     0.18420   0.32800   0.09397   0.01267  Uiso   1.00
N2     N     0.31580   0.17200   0.59397   0.01267  Uiso   1.00
N3     N     0.81580   0.67200   0.90603   0.01267  Uiso   1.00
N4     N     0.68420   0.82800   0.40603   0.01267  Uiso   1.00
O1     O     0.20929   0.43199   0.30630   0.01267  Uiso   1.00
O2     O     0.09651   0.53491   0.22746   0.01267  Uiso   1.00
O3     O     0.89803   0.23163   0.31097   0.01267  Uiso   1.00
O4     O     0.84095   0.13975   0.45840   0.01267  Uiso   1.00
O5     O     0.29071   0.06801   0.80630   0.01267  Uiso   1.00
O6     O     0.40349   0.96509   0.72746   0.01267  Uiso   1.00
O7     O     0.60197   0.26837   0.81097   0.01267  Uiso   1.00
O8     O     0.65905   0.36025   0.95840   0.01267  Uiso   1.00
O9     O     0.79071   0.56801   0.69370   0.01267  Uiso   1.00
O10    O     0.90349   0.46509   0.77254   0.01267  Uiso   1.00
O11    O     0.10197   0.76837   0.68903   0.01267  Uiso   1.00
O12    O     0.15905   0.86025   0.54160   0.01267  Uiso   1.00
O13    O     0.70929   0.93199   0.19370   0.01267  Uiso   1.00
O14    O     0.59651   0.03491   0.27254   0.01267  Uiso   1.00
O15    O     0.39803   0.73163   0.18903   0.01267  Uiso   1.00
O16    O     0.34095   0.63975   0.04160   0.01267  Uiso   1.00
