data_LASYOU_clean
_audit_creation_date              2014-07-02
_audit_creation_method            'Materials Studio'
_symmetry_space_group_name_H-M    'P1'
_symmetry_Int_Tables_number       1
_symmetry_cell_setting            triclinic
loop_
_symmetry_equiv_pos_as_xyz
  x,y,z
_cell_length_a                    13.4807
_cell_length_b                    13.4807
_cell_length_c                    13.4807
_cell_angle_alpha                 86.5535
_cell_angle_beta                  86.5535
_cell_angle_gamma                 86.5535
loop_
_atom_site_label
_atom_site_type_symbol
_atom_site_fract_x
_atom_site_fract_y
_atom_site_fract_z
_atom_site_U_iso_or_equiv
_atom_site_adp_type
_atom_site_occupancy
Cu1    Cu    0.01975   0.59171   0.01975   0.01267  Uiso   1.00
Cu2    Cu    0.01975   0.01975   0.59171   0.01267  Uiso   1.00
Cu3    Cu    0.59171   0.01975   0.01975   0.01267  Uiso   1.00
Cu4    Cu    0.40829   0.98025   0.98025   0.01267  Uiso   1.00
Cu5    Cu    0.98025   0.98025   0.40829   0.01267  Uiso   1.00
Cu6    Cu    0.98025   0.40829   0.98025   0.01267  Uiso   1.00
H1     H     0.99990   0.44150   0.65980   0.01267  Uiso   1.00
H2     H     0.65980   0.99990   0.44150   0.01267  Uiso   1.00
H3     H     0.44150   0.65980   0.99990   0.01267  Uiso   1.00
H4     H     0.55850   0.00010   0.34020   0.01267  Uiso   1.00
H5     H     0.00010   0.34020   0.55850   0.01267  Uiso   1.00
H6     H     0.34020   0.55850   0.00010   0.01267  Uiso   1.00
H7     H     0.00010   0.55850   0.34020   0.01267  Uiso   1.00
H8     H     0.34020   0.00010   0.55850   0.01267  Uiso   1.00
H9     H     0.55850   0.34020   0.00010   0.01267  Uiso   1.00
H10    H     0.44150   0.99990   0.65980   0.01267  Uiso   1.00
H11    H     0.99990   0.65980   0.44150   0.01267  Uiso   1.00
H12    H     0.65980   0.44150   0.99990   0.01267  Uiso   1.00
H13    H     0.01580   0.72780   0.72780   0.01267  Uiso   1.00
H14    H     0.72780   0.01580   0.72780   0.01267  Uiso   1.00
H15    H     0.72780   0.72780   0.01580   0.01267  Uiso   1.00
H16    H     0.27220   0.98420   0.27220   0.01267  Uiso   1.00
H17    H     0.98420   0.27220   0.27220   0.01267  Uiso   1.00
H18    H     0.27220   0.27220   0.98420   0.01267  Uiso   1.00
C1     C     0.00734   0.54835   0.81755   0.01267  Uiso   1.00
C2     C     0.00222   0.50996   0.63906   0.01267  Uiso   1.00
C3     C     0.00717   0.57969   0.70955   0.01267  Uiso   1.00
C4     C     0.81755   0.00734   0.54835   0.01267  Uiso   1.00
C5     C     0.63906   0.00222   0.50996   0.01267  Uiso   1.00
C6     C     0.70955   0.00717   0.57969   0.01267  Uiso   1.00
C7     C     0.54835   0.81755   0.00734   0.01267  Uiso   1.00
C8     C     0.50996   0.63906   0.00222   0.01267  Uiso   1.00
C9     C     0.57969   0.70955   0.00717   0.01267  Uiso   1.00
C10    C     0.45165   0.99266   0.18245   0.01267  Uiso   1.00
C11    C     0.49004   0.99778   0.36094   0.01267  Uiso   1.00
C12    C     0.42031   0.99283   0.29045   0.01267  Uiso   1.00
C13    C     0.99266   0.18245   0.45165   0.01267  Uiso   1.00
C14    C     0.99778   0.36094   0.49004   0.01267  Uiso   1.00
C15    C     0.99283   0.29045   0.42031   0.01267  Uiso   1.00
C16    C     0.18245   0.45165   0.99266   0.01267  Uiso   1.00
C17    C     0.36094   0.49004   0.99778   0.01267  Uiso   1.00
C18    C     0.29045   0.42031   0.99283   0.01267  Uiso   1.00
C19    C     0.99266   0.45165   0.18245   0.01267  Uiso   1.00
C20    C     0.99778   0.49004   0.36094   0.01267  Uiso   1.00
C21    C     0.99283   0.42031   0.29045   0.01267  Uiso   1.00
C22    C     0.18245   0.99266   0.45165   0.01267  Uiso   1.00
C23    C     0.36094   0.99778   0.49004   0.01267  Uiso   1.00
C24    C     0.29045   0.99283   0.42031   0.01267  Uiso   1.00
C25    C     0.45165   0.18245   0.99266   0.01267  Uiso   1.00
C26    C     0.49004   0.36094   0.99778   0.01267  Uiso   1.00
C27    C     0.42031   0.29045   0.99283   0.01267  Uiso   1.00
C28    C     0.54835   0.00734   0.81755   0.01267  Uiso   1.00
C29    C     0.50996   0.00222   0.63906   0.01267  Uiso   1.00
C30    C     0.57969   0.00717   0.70955   0.01267  Uiso   1.00
C31    C     0.00734   0.81755   0.54835   0.01267  Uiso   1.00
C32    C     0.00222   0.63906   0.50996   0.01267  Uiso   1.00
C33    C     0.00717   0.70955   0.57969   0.01267  Uiso   1.00
C34    C     0.81755   0.54835   0.00734   0.01267  Uiso   1.00
C35    C     0.63906   0.50996   0.00222   0.01267  Uiso   1.00
C36    C     0.70955   0.57969   0.00717   0.01267  Uiso   1.00
C37    C     0.00056   0.53856   0.53856   0.01267  Uiso   1.00
C38    C     0.01088   0.67983   0.67983   0.01267  Uiso   1.00
C39    C     0.53856   0.00056   0.53856   0.01267  Uiso   1.00
C40    C     0.67983   0.01088   0.67983   0.01267  Uiso   1.00
C41    C     0.53856   0.53856   0.00056   0.01267  Uiso   1.00
C42    C     0.67983   0.67983   0.01088   0.01267  Uiso   1.00
C43    C     0.46144   0.99944   0.46144   0.01267  Uiso   1.00
C44    C     0.32017   0.98912   0.32017   0.01267  Uiso   1.00
C45    C     0.99944   0.46144   0.46144   0.01267  Uiso   1.00
C46    C     0.98912   0.32017   0.32017   0.01267  Uiso   1.00
C47    C     0.46144   0.46144   0.99944   0.01267  Uiso   1.00
C48    C     0.32017   0.32017   0.98912   0.01267  Uiso   1.00
O1     O     0.02302   0.61402   0.87579   0.01267  Uiso   1.00
O2     O     0.99010   0.45935   0.84150   0.01267  Uiso   1.00
O3     O     0.87579   0.02302   0.61402   0.01267  Uiso   1.00
O4     O     0.84150   0.99010   0.45935   0.01267  Uiso   1.00
O5     O     0.61402   0.87579   0.02302   0.01267  Uiso   1.00
O6     O     0.45935   0.84150   0.99010   0.01267  Uiso   1.00
O7     O     0.38598   0.97698   0.12421   0.01267  Uiso   1.00
O8     O     0.54065   0.00990   0.15850   0.01267  Uiso   1.00
O9     O     0.97698   0.12421   0.38598   0.01267  Uiso   1.00
O10    O     0.00990   0.15850   0.54065   0.01267  Uiso   1.00
O11    O     0.12421   0.38598   0.97698   0.01267  Uiso   1.00
O12    O     0.15850   0.54065   0.00990   0.01267  Uiso   1.00
O13    O     0.97698   0.38598   0.12421   0.01267  Uiso   1.00
O14    O     0.00990   0.54065   0.15850   0.01267  Uiso   1.00
O15    O     0.12421   0.97698   0.38598   0.01267  Uiso   1.00
O16    O     0.15850   0.00990   0.54065   0.01267  Uiso   1.00
O17    O     0.38598   0.12421   0.97698   0.01267  Uiso   1.00
O18    O     0.54065   0.15850   0.00990   0.01267  Uiso   1.00
O19    O     0.61402   0.02302   0.87579   0.01267  Uiso   1.00
O20    O     0.45935   0.99010   0.84150   0.01267  Uiso   1.00
O21    O     0.02302   0.87579   0.61402   0.01267  Uiso   1.00
O22    O     0.99010   0.84150   0.45935   0.01267  Uiso   1.00
O23    O     0.87579   0.61402   0.02302   0.01267  Uiso   1.00
O24    O     0.84150   0.45935   0.99010   0.01267  Uiso   1.00
