data_image0
_cell_length_a       15.176
_cell_length_b       25.732
_cell_length_c       8.464
_cell_angle_alpha    90
_cell_angle_beta     132.722
_cell_angle_gamma    90

_symmetry_space_group_name_H-M    "P 1"
_symmetry_int_tables_number       1

loop_
  _symmetry_equiv_pos_as_xyz
  'x, y, z'

loop_
  _atom_site_label
  _atom_site_occupancy
  _atom_site_fract_x
  _atom_site_fract_y
  _atom_site_fract_z
  _atom_site_thermal_displace_type
  _atom_site_B_iso_or_equiv
  _atom_site_type_symbol
  Cd1      1.0000 0.34084  0.15140  0.56041  Biso   1.000  Cd
  C1       1.0000 0.14240  0.06180  0.21600  Biso   1.000  C
  C2       1.0000 0.20900  0.09120  0.33570  Biso   1.000  C
  C3       1.0000 0.46720  0.15930  0.51190  Biso   1.000  C
  C4       1.0000 0.26800  0.22980  0.51120  Biso   1.000  C
  C5       1.0000 0.46620  0.13870  0.90920  Biso   1.000  C
  Cd2      1.0000 0.84084  0.65140  0.56041  Biso   1.000  Cd
  C6       1.0000 0.64240  0.56180  0.21600  Biso   1.000  C
  C7       1.0000 0.70900  0.59120  0.33570  Biso   1.000  C
  C8       1.0000 0.96720  0.65930  0.51190  Biso   1.000  C
  C9       1.0000 0.76800  0.72980  0.51120  Biso   1.000  C
  C10      1.0000 0.96620  0.63870  0.90920  Biso   1.000  C
  Cd3      1.0000 0.65916  0.15140  0.43959  Biso   1.000  Cd
  C11      1.0000 0.85760  0.06180  0.78400  Biso   1.000  C
  C12      1.0000 0.79100  0.09120  0.66430  Biso   1.000  C
  C13      1.0000 0.53280  0.15930  0.48810  Biso   1.000  C
  C14      1.0000 0.73200  0.22980  0.48880  Biso   1.000  C
  C15      1.0000 0.53380  0.13870  0.09080  Biso   1.000  C
  Cd4      1.0000 0.15916  0.65140  0.43959  Biso   1.000  Cd
  C16      1.0000 0.35760  0.56180  0.78400  Biso   1.000  C
  C17      1.0000 0.29100  0.59120  0.66430  Biso   1.000  C
  C18      1.0000 0.03280  0.65930  0.48810  Biso   1.000  C
  C19      1.0000 0.23200  0.72980  0.48880  Biso   1.000  C
  C20      1.0000 0.03380  0.63870  0.09080  Biso   1.000  C
  Cd5      1.0000 0.65916  0.84860  0.43959  Biso   1.000  Cd
  C21      1.0000 0.85760  0.93820  0.78400  Biso   1.000  C
  C22      1.0000 0.79100  0.90880  0.66430  Biso   1.000  C
  C23      1.0000 0.53280  0.84070  0.48810  Biso   1.000  C
  C24      1.0000 0.73200  0.77020  0.48880  Biso   1.000  C
  C25      1.0000 0.53380  0.86130  0.09080  Biso   1.000  C
  Cd6      1.0000 0.15916  0.34860  0.43959  Biso   1.000  Cd
  C26      1.0000 0.35760  0.43820  0.78400  Biso   1.000  C
  C27      1.0000 0.29100  0.40880  0.66430  Biso   1.000  C
  C28      1.0000 0.03280  0.34070  0.48810  Biso   1.000  C
  C29      1.0000 0.23200  0.27020  0.48880  Biso   1.000  C
  C30      1.0000 0.03380  0.36130  0.09080  Biso   1.000  C
  Cd7      1.0000 0.34084  0.84860  0.56041  Biso   1.000  Cd
  C31      1.0000 0.14240  0.93820  0.21600  Biso   1.000  C
  C32      1.0000 0.20900  0.90880  0.33570  Biso   1.000  C
  C33      1.0000 0.46720  0.84070  0.51190  Biso   1.000  C
  C34      1.0000 0.26800  0.77020  0.51120  Biso   1.000  C
  C35      1.0000 0.46620  0.86130  0.90920  Biso   1.000  C
  Cd8      1.0000 0.84084  0.34860  0.56041  Biso   1.000  Cd
  C36      1.0000 0.64240  0.43820  0.21600  Biso   1.000  C
  C37      1.0000 0.70900  0.40880  0.33570  Biso   1.000  C
  C38      1.0000 0.96720  0.34070  0.51190  Biso   1.000  C
  C39      1.0000 0.76800  0.27020  0.51120  Biso   1.000  C
  C40      1.0000 0.96620  0.36130  0.90920  Biso   1.000  C
  Cd9      1.0000 0.00000  0.00000  0.00000  Biso   1.000  Cd
  Cd10     1.0000 0.50000  0.50000  0.00000  Biso   1.000  Cd
