data_image0
_cell_length_a       18.6011
_cell_length_b       18.6011
_cell_length_c       9.9
_cell_angle_alpha    90
_cell_angle_beta     90
_cell_angle_gamma    120

_symmetry_space_group_name_H-M    "P 1"
_symmetry_int_tables_number       1

loop_
  _symmetry_equiv_pos_as_xyz
  'x, y, z'

loop_
  _atom_site_label
  _atom_site_occupancy
  _atom_site_fract_x
  _atom_site_fract_y
  _atom_site_fract_z
  _atom_site_thermal_displace_type
  _atom_site_B_iso_or_equiv
  _atom_site_type_symbol
  C1       1.0000 0.36806  0.21208  0.32720  Biso   1.000  C
  H1       1.0000 0.39740  0.21160  0.25140  Biso   1.000  H
  N1       1.0000 0.35624  0.27398  0.35810  Biso   1.000  N
  C2       1.0000 0.03473  0.54541  0.66053  Biso   1.000  C
  H2       1.0000 0.06407  0.54493  0.58473  Biso   1.000  H
  N2       1.0000 0.02291  0.60731  0.69143  Biso   1.000  N
  C3       1.0000 0.70139  0.87875  0.99387  Biso   1.000  C
  H3       1.0000 0.73073  0.87827  0.91807  Biso   1.000  H
  N3       1.0000 0.68957  0.94065  0.02477  Biso   1.000  N
  C4       1.0000 0.78792  0.15598  0.32720  Biso   1.000  C
  H4       1.0000 0.78840  0.18580  0.25140  Biso   1.000  H
  N4       1.0000 0.72602  0.08226  0.35810  Biso   1.000  N
  C5       1.0000 0.45459  0.48931  0.66053  Biso   1.000  C
  H5       1.0000 0.45507  0.51913  0.58473  Biso   1.000  H
  N5       1.0000 0.39269  0.41559  0.69143  Biso   1.000  N
  C6       1.0000 0.12125  0.82265  0.99387  Biso   1.000  C
  H6       1.0000 0.12173  0.85247  0.91807  Biso   1.000  H
  N6       1.0000 0.05935  0.74893  0.02477  Biso   1.000  N
  C7       1.0000 0.84402  0.63194  0.32720  Biso   1.000  C
  H7       1.0000 0.81420  0.60260  0.25140  Biso   1.000  H
  N7       1.0000 0.91774  0.64376  0.35810  Biso   1.000  N
  C8       1.0000 0.51069  0.96527  0.66053  Biso   1.000  C
  H8       1.0000 0.48087  0.93593  0.58473  Biso   1.000  H
  N8       1.0000 0.58441  0.97709  0.69143  Biso   1.000  N
  C9       1.0000 0.17735  0.29861  0.99387  Biso   1.000  C
  H9       1.0000 0.14753  0.26927  0.91807  Biso   1.000  H
  N9       1.0000 0.25107  0.31043  0.02477  Biso   1.000  N
  C10      1.0000 0.21208  0.36806  0.17280  Biso   1.000  C
  H10      1.0000 0.21160  0.39740  0.24860  Biso   1.000  H
  N10      1.0000 0.27398  0.35624  0.14190  Biso   1.000  N
  C11      1.0000 0.87875  0.70139  0.50613  Biso   1.000  C
  H11      1.0000 0.87827  0.73073  0.58193  Biso   1.000  H
  N11      1.0000 0.94065  0.68957  0.47523  Biso   1.000  N
  C12      1.0000 0.54541  0.03473  0.83947  Biso   1.000  C
  H12      1.0000 0.54493  0.06407  0.91527  Biso   1.000  H
  N12      1.0000 0.60731  0.02291  0.80857  Biso   1.000  N
  C13      1.0000 0.15598  0.78792  0.17280  Biso   1.000  C
  H13      1.0000 0.18580  0.78840  0.24860  Biso   1.000  H
  N13      1.0000 0.08226  0.72602  0.14190  Biso   1.000  N
  C14      1.0000 0.82265  0.12125  0.50613  Biso   1.000  C
  H14      1.0000 0.85247  0.12173  0.58193  Biso   1.000  H
  N14      1.0000 0.74893  0.05935  0.47523  Biso   1.000  N
  C15      1.0000 0.48931  0.45459  0.83947  Biso   1.000  C
  H15      1.0000 0.51913  0.45507  0.91527  Biso   1.000  H
  N15      1.0000 0.41559  0.39269  0.80857  Biso   1.000  N
  C16      1.0000 0.63194  0.84402  0.17280  Biso   1.000  C
  H16      1.0000 0.60260  0.81420  0.24860  Biso   1.000  H
  N16      1.0000 0.64376  0.91774  0.14190  Biso   1.000  N
  C17      1.0000 0.29861  0.17735  0.50613  Biso   1.000  C
  H17      1.0000 0.26927  0.14753  0.58193  Biso   1.000  H
  N17      1.0000 0.31043  0.25107  0.47523  Biso   1.000  N
  C18      1.0000 0.96527  0.51069  0.83947  Biso   1.000  C
  H18      1.0000 0.93593  0.48087  0.91527  Biso   1.000  H
  N18      1.0000 0.97709  0.58441  0.80857  Biso   1.000  N
  C19      1.0000 0.63194  0.78792  0.67280  Biso   1.000  C
  H19      1.0000 0.60260  0.78840  0.74860  Biso   1.000  H
  N19      1.0000 0.64376  0.72602  0.64190  Biso   1.000  N
  C20      1.0000 0.29861  0.12125  0.00613  Biso   1.000  C
  H20      1.0000 0.26927  0.12173  0.08193  Biso   1.000  H
  N20      1.0000 0.31043  0.05935  0.97523  Biso   1.000  N
  C21      1.0000 0.96527  0.45459  0.33947  Biso   1.000  C
  H21      1.0000 0.93593  0.45507  0.41527  Biso   1.000  H
  N21      1.0000 0.97709  0.39269  0.30857  Biso   1.000  N
  C22      1.0000 0.21208  0.84402  0.67280  Biso   1.000  C
  H22      1.0000 0.21160  0.81420  0.74860  Biso   1.000  H
  N22      1.0000 0.27398  0.91774  0.64190  Biso   1.000  N
  C23      1.0000 0.87875  0.17735  0.00613  Biso   1.000  C
  H23      1.0000 0.87827  0.14753  0.08193  Biso   1.000  H
  N23      1.0000 0.94065  0.25107  0.97523  Biso   1.000  N
  C24      1.0000 0.54541  0.51069  0.33947  Biso   1.000  C
  H24      1.0000 0.54493  0.48087  0.41527  Biso   1.000  H
  N24      1.0000 0.60731  0.58441  0.30857  Biso   1.000  N
  C25      1.0000 0.15598  0.36806  0.67280  Biso   1.000  C
  H25      1.0000 0.18580  0.39740  0.74860  Biso   1.000  H
  N25      1.0000 0.08226  0.35624  0.64190  Biso   1.000  N
  C26      1.0000 0.82265  0.70139  0.00613  Biso   1.000  C
  H26      1.0000 0.85247  0.73073  0.08193  Biso   1.000  H
  N26      1.0000 0.74893  0.68957  0.97523  Biso   1.000  N
  C27      1.0000 0.48931  0.03473  0.33947  Biso   1.000  C
  H27      1.0000 0.51913  0.06407  0.41527  Biso   1.000  H
  N27      1.0000 0.41559  0.02291  0.30857  Biso   1.000  N
  C28      1.0000 0.78792  0.63194  0.82720  Biso   1.000  C
  H28      1.0000 0.78840  0.60260  0.75140  Biso   1.000  H
  N28      1.0000 0.72602  0.64376  0.85810  Biso   1.000  N
  C29      1.0000 0.45459  0.96527  0.16053  Biso   1.000  C
  H29      1.0000 0.45507  0.93593  0.08473  Biso   1.000  H
  N29      1.0000 0.39269  0.97709  0.19143  Biso   1.000  N
  C30      1.0000 0.12125  0.29861  0.49387  Biso   1.000  C
  H30      1.0000 0.12173  0.26927  0.41807  Biso   1.000  H
  N30      1.0000 0.05935  0.31043  0.52477  Biso   1.000  N
  C31      1.0000 0.84402  0.21208  0.82720  Biso   1.000  C
  H31      1.0000 0.81420  0.21160  0.75140  Biso   1.000  H
  N31      1.0000 0.91774  0.27398  0.85810  Biso   1.000  N
  C32      1.0000 0.51069  0.54541  0.16053  Biso   1.000  C
  H32      1.0000 0.48087  0.54493  0.08473  Biso   1.000  H
  N32      1.0000 0.58441  0.60731  0.19143  Biso   1.000  N
  C33      1.0000 0.17735  0.87875  0.49387  Biso   1.000  C
  H33      1.0000 0.14753  0.87827  0.41807  Biso   1.000  H
  N33      1.0000 0.25107  0.94065  0.52477  Biso   1.000  N
  C34      1.0000 0.36806  0.15598  0.82720  Biso   1.000  C
  H34      1.0000 0.39740  0.18580  0.75140  Biso   1.000  H
  N34      1.0000 0.35624  0.08226  0.85810  Biso   1.000  N
  C35      1.0000 0.03473  0.48931  0.16053  Biso   1.000  C
  H35      1.0000 0.06407  0.51913  0.08473  Biso   1.000  H
  N35      1.0000 0.02291  0.41559  0.19143  Biso   1.000  N
  C36      1.0000 0.70139  0.82265  0.49387  Biso   1.000  C
  H36      1.0000 0.73073  0.85247  0.41807  Biso   1.000  H
  N36      1.0000 0.68957  0.74893  0.52477  Biso   1.000  N
  Zn1      1.0000 0.37485  0.37485  0.25000  Biso   1.000  Zn
  Zn2      1.0000 0.04152  0.70818  0.58333  Biso   1.000  Zn
  Zn3      1.0000 0.70818  0.04152  0.91667  Biso   1.000  Zn
  Zn4      1.0000 0.62515  0.00000  0.25000  Biso   1.000  Zn
  Zn5      1.0000 0.29182  0.33333  0.58333  Biso   1.000  Zn
  Zn6      1.0000 0.95848  0.66667  0.91667  Biso   1.000  Zn
  Zn7      1.0000 0.00000  0.62515  0.25000  Biso   1.000  Zn
  Zn8      1.0000 0.66667  0.95848  0.58333  Biso   1.000  Zn
  Zn9      1.0000 0.33333  0.29182  0.91667  Biso   1.000  Zn
  Zn10     1.0000 0.62515  0.62515  0.75000  Biso   1.000  Zn
  Zn11     1.0000 0.29182  0.95848  0.08333  Biso   1.000  Zn
  Zn12     1.0000 0.95848  0.29182  0.41667  Biso   1.000  Zn
  Zn13     1.0000 0.37485  0.00000  0.75000  Biso   1.000  Zn
  Zn14     1.0000 0.04152  0.33333  0.08333  Biso   1.000  Zn
  Zn15     1.0000 0.70818  0.66667  0.41667  Biso   1.000  Zn
  Zn16     1.0000 0.00000  0.37485  0.75000  Biso   1.000  Zn
  Zn17     1.0000 0.66667  0.70818  0.08333  Biso   1.000  Zn
  Zn18     1.0000 0.33333  0.04152  0.41667  Biso   1.000  Zn
  F1       1.0000 0.33333  0.40942  0.41667  Biso   1.000  F
  N37      1.0000 0.33333  0.14935  0.41667  Biso   1.000  N
  F2       1.0000 0.00000  0.74275  0.75000  Biso   1.000  F
  N38      1.0000 0.00000  0.48268  0.75000  Biso   1.000  N
  F3       1.0000 0.59058  0.92392  0.41667  Biso   1.000  F
  N39      1.0000 0.85065  0.18399  0.41667  Biso   1.000  N
  F4       1.0000 0.25725  0.25725  0.75000  Biso   1.000  F
  N40      1.0000 0.51732  0.51732  0.75000  Biso   1.000  N
  F5       1.0000 0.07608  0.66667  0.41667  Biso   1.000  F
  N41      1.0000 0.81601  0.66667  0.41667  Biso   1.000  N
  F6       1.0000 0.74275  0.00000  0.75000  Biso   1.000  F
  N42      1.0000 0.48268  0.00000  0.75000  Biso   1.000  N
  F7       1.0000 0.40942  0.33333  0.08333  Biso   1.000  F
  N43      1.0000 0.14935  0.33333  0.08333  Biso   1.000  N
  F8       1.0000 0.92392  0.59058  0.08333  Biso   1.000  F
  N44      1.0000 0.18399  0.85065  0.08333  Biso   1.000  N
  F9       1.0000 0.66667  0.07608  0.08333  Biso   1.000  F
  N45      1.0000 0.66667  0.81601  0.08333  Biso   1.000  N
  F10      1.0000 0.66667  0.59058  0.58333  Biso   1.000  F
  N46      1.0000 0.66667  0.85065  0.58333  Biso   1.000  N
  F11      1.0000 0.40942  0.07608  0.58333  Biso   1.000  F
  N47      1.0000 0.14935  0.81601  0.58333  Biso   1.000  N
  F12      1.0000 0.92392  0.33333  0.58333  Biso   1.000  F
  N48      1.0000 0.18399  0.33333  0.58333  Biso   1.000  N
  F13      1.0000 0.59058  0.66667  0.91667  Biso   1.000  F
  N49      1.0000 0.85065  0.66667  0.91667  Biso   1.000  N
  F14      1.0000 0.25725  0.00000  0.25000  Biso   1.000  F
  N50      1.0000 0.51732  0.00000  0.25000  Biso   1.000  N
  F15      1.0000 0.07608  0.40942  0.91667  Biso   1.000  F
  N51      1.0000 0.81601  0.14935  0.91667  Biso   1.000  N
  F16      1.0000 0.74275  0.74275  0.25000  Biso   1.000  F
  N52      1.0000 0.48268  0.48268  0.25000  Biso   1.000  N
  F17      1.0000 0.33333  0.92392  0.91667  Biso   1.000  F
  N53      1.0000 0.33333  0.18399  0.91667  Biso   1.000  N
  F18      1.0000 0.00000  0.25725  0.25000  Biso   1.000  F
  N54      1.0000 0.00000  0.51732  0.25000  Biso   1.000  N
