data_image0
_cell_length_a       18.7223
_cell_length_b       5.7758
_cell_length_c       20.8283
_cell_angle_alpha    90
_cell_angle_beta     91.165
_cell_angle_gamma    90

_symmetry_space_group_name_H-M    "P 1"
_symmetry_int_tables_number       1

loop_
  _symmetry_equiv_pos_as_xyz
  'x, y, z'

loop_
  _atom_site_label
  _atom_site_occupancy
  _atom_site_fract_x
  _atom_site_fract_y
  _atom_site_fract_z
  _atom_site_thermal_displace_type
  _atom_site_B_iso_or_equiv
  _atom_site_type_symbol
  O1       1.0000 0.75810  0.95230  0.32130  Biso   1.000  O
  O2       1.0000 0.64130  0.97800  0.33760  Biso   1.000  O
  O3       1.0000 0.66870  0.51970  0.25890  Biso   1.000  O
  O4       1.0000 0.65750  0.51170  0.15270  Biso   1.000  O
  N1       1.0000 0.65660  0.28230  0.43400  Biso   1.000  N
  N2       1.0000 0.55390  0.18960  0.15230  Biso   1.000  N
  C1       1.0000 0.70350  0.02770  0.35010  Biso   1.000  C
  C2       1.0000 0.72170  0.18970  0.40530  Biso   1.000  C
  H1       1.0000 0.74990  0.10520  0.43850  Biso   1.000  H
  H2       1.0000 0.75120  0.31930  0.38960  Biso   1.000  H
  C3       1.0000 0.62460  0.46310  0.40750  Biso   1.000  C
  H3       1.0000 0.64410  0.53160  0.37030  Biso   1.000  H
  C4       1.0000 0.56280  0.55520  0.43330  Biso   1.000  C
  H4       1.0000 0.54030  0.68640  0.41420  Biso   1.000  H
  C5       1.0000 0.53450  0.45310  0.48710  Biso   1.000  C
  C6       1.0000 0.56950  0.26300  0.51290  Biso   1.000  C
  H5       1.0000 0.55060  0.18820  0.54940  Biso   1.000  H
  C7       1.0000 0.62990  0.18380  0.48720  Biso   1.000  C
  H6       1.0000 0.65410  0.05670  0.50670  Biso   1.000  H
  C8       1.0000 0.64020  0.44780  0.20700  Biso   1.000  C
  C9       1.0000 0.57990  0.27200  0.21610  Biso   1.000  C
  H7       1.0000 0.59760  0.13990  0.24200  Biso   1.000  H
  H8       1.0000 0.54020  0.34610  0.23930  Biso   1.000  H
  C10      1.0000 0.50130  0.30200  0.12190  Biso   1.000  C
  H9       1.0000 0.47980  0.43220  0.14150  Biso   1.000  H
  C11      1.0000 0.47820  0.23100  0.06310  Biso   1.000  C
  H10      1.0000 0.44030  0.31150  0.04170  Biso   1.000  H
  C12      1.0000 0.51000  0.04150  0.03380  Biso   1.000  C
  C13      1.0000 0.56570  0.93100  0.06690  Biso   1.000  C
  H11      1.0000 0.59070  0.80690  0.04760  Biso   1.000  H
  C14      1.0000 0.58410  0.00440  0.12800  Biso   1.000  C
  H12      1.0000 0.61870  0.92090  0.15270  Biso   1.000  H
  O5       1.0000 0.74190  0.95230  0.17870  Biso   1.000  O
  O6       1.0000 0.85870  0.97800  0.16240  Biso   1.000  O
  O7       1.0000 0.83130  0.51970  0.24110  Biso   1.000  O
  O8       1.0000 0.84250  0.51170  0.34730  Biso   1.000  O
  N3       1.0000 0.84340  0.28230  0.06600  Biso   1.000  N
  N4       1.0000 0.94610  0.18960  0.34770  Biso   1.000  N
  C15      1.0000 0.79650  0.02770  0.14990  Biso   1.000  C
  C16      1.0000 0.77830  0.18970  0.09470  Biso   1.000  C
  H13      1.0000 0.75010  0.10520  0.06150  Biso   1.000  H
  H14      1.0000 0.74880  0.31930  0.11040  Biso   1.000  H
  C17      1.0000 0.87540  0.46310  0.09250  Biso   1.000  C
  H15      1.0000 0.85590  0.53160  0.12970  Biso   1.000  H
  C18      1.0000 0.93720  0.55520  0.06670  Biso   1.000  C
  H16      1.0000 0.95970  0.68640  0.08580  Biso   1.000  H
  C19      1.0000 0.96550  0.45310  0.01290  Biso   1.000  C
  C20      1.0000 0.93050  0.26300  0.98710  Biso   1.000  C
  H17      1.0000 0.94940  0.18820  0.95060  Biso   1.000  H
  C21      1.0000 0.87010  0.18380  0.01280  Biso   1.000  C
  H18      1.0000 0.84590  0.05670  0.99330  Biso   1.000  H
  C22      1.0000 0.85980  0.44780  0.29300  Biso   1.000  C
  C23      1.0000 0.92010  0.27200  0.28390  Biso   1.000  C
  H19      1.0000 0.90240  0.13990  0.25800  Biso   1.000  H
  H20      1.0000 0.95980  0.34610  0.26070  Biso   1.000  H
  C24      1.0000 0.99870  0.30200  0.37810  Biso   1.000  C
  H21      1.0000 0.02020  0.43220  0.35850  Biso   1.000  H
  C25      1.0000 0.02180  0.23100  0.43690  Biso   1.000  C
  H22      1.0000 0.05970  0.31150  0.45830  Biso   1.000  H
  C26      1.0000 0.99000  0.04150  0.46620  Biso   1.000  C
  C27      1.0000 0.93430  0.93100  0.43310  Biso   1.000  C
  H23      1.0000 0.90930  0.80690  0.45240  Biso   1.000  H
  C28      1.0000 0.91590  0.00440  0.37200  Biso   1.000  C
  H24      1.0000 0.88130  0.92090  0.34730  Biso   1.000  H
  O9       1.0000 0.24190  0.04770  0.67870  Biso   1.000  O
  O10      1.0000 0.35870  0.02200  0.66240  Biso   1.000  O
  O11      1.0000 0.33130  0.48030  0.74110  Biso   1.000  O
  O12      1.0000 0.34250  0.48830  0.84730  Biso   1.000  O
  N5       1.0000 0.34340  0.71770  0.56600  Biso   1.000  N
  N6       1.0000 0.44610  0.81040  0.84770  Biso   1.000  N
  C29      1.0000 0.29650  0.97230  0.64990  Biso   1.000  C
  C30      1.0000 0.27830  0.81030  0.59470  Biso   1.000  C
  H25      1.0000 0.25010  0.89480  0.56150  Biso   1.000  H
  H26      1.0000 0.24880  0.68070  0.61040  Biso   1.000  H
  C31      1.0000 0.37540  0.53690  0.59250  Biso   1.000  C
  H27      1.0000 0.35590  0.46840  0.62970  Biso   1.000  H
  C32      1.0000 0.43720  0.44480  0.56670  Biso   1.000  C
  H28      1.0000 0.45970  0.31360  0.58580  Biso   1.000  H
  C33      1.0000 0.46550  0.54690  0.51290  Biso   1.000  C
  C34      1.0000 0.43050  0.73700  0.48710  Biso   1.000  C
  H29      1.0000 0.44940  0.81180  0.45060  Biso   1.000  H
  C35      1.0000 0.37010  0.81620  0.51280  Biso   1.000  C
  H30      1.0000 0.34590  0.94330  0.49330  Biso   1.000  H
  C36      1.0000 0.35980  0.55220  0.79300  Biso   1.000  C
  C37      1.0000 0.42010  0.72800  0.78390  Biso   1.000  C
  H31      1.0000 0.40240  0.86010  0.75800  Biso   1.000  H
  H32      1.0000 0.45980  0.65390  0.76070  Biso   1.000  H
  C38      1.0000 0.49870  0.69800  0.87810  Biso   1.000  C
  H33      1.0000 0.52020  0.56780  0.85850  Biso   1.000  H
  C39      1.0000 0.52180  0.76900  0.93690  Biso   1.000  C
  H34      1.0000 0.55970  0.68850  0.95830  Biso   1.000  H
  C40      1.0000 0.49000  0.95850  0.96620  Biso   1.000  C
  C41      1.0000 0.43430  0.06900  0.93310  Biso   1.000  C
  H35      1.0000 0.40930  0.19310  0.95240  Biso   1.000  H
  C42      1.0000 0.41590  0.99560  0.87200  Biso   1.000  C
  H36      1.0000 0.38130  0.07910  0.84730  Biso   1.000  H
  O13      1.0000 0.25810  0.04770  0.82130  Biso   1.000  O
  O14      1.0000 0.14130  0.02200  0.83760  Biso   1.000  O
  O15      1.0000 0.16870  0.48030  0.75890  Biso   1.000  O
  O16      1.0000 0.15750  0.48830  0.65270  Biso   1.000  O
  N7       1.0000 0.15660  0.71770  0.93400  Biso   1.000  N
  N8       1.0000 0.05390  0.81040  0.65230  Biso   1.000  N
  C43      1.0000 0.20350  0.97230  0.85010  Biso   1.000  C
  C44      1.0000 0.22170  0.81030  0.90530  Biso   1.000  C
  H37      1.0000 0.24990  0.89480  0.93850  Biso   1.000  H
  H38      1.0000 0.25120  0.68070  0.88960  Biso   1.000  H
  C45      1.0000 0.12460  0.53690  0.90750  Biso   1.000  C
  H39      1.0000 0.14410  0.46840  0.87030  Biso   1.000  H
  C46      1.0000 0.06280  0.44480  0.93330  Biso   1.000  C
  H40      1.0000 0.04030  0.31360  0.91420  Biso   1.000  H
  C47      1.0000 0.03450  0.54690  0.98710  Biso   1.000  C
  C48      1.0000 0.06950  0.73700  0.01290  Biso   1.000  C
  H41      1.0000 0.05060  0.81180  0.04940  Biso   1.000  H
  C49      1.0000 0.12990  0.81620  0.98720  Biso   1.000  C
  H42      1.0000 0.15410  0.94330  0.00670  Biso   1.000  H
  C50      1.0000 0.14020  0.55220  0.70700  Biso   1.000  C
  C51      1.0000 0.07990  0.72800  0.71610  Biso   1.000  C
  H43      1.0000 0.09760  0.86010  0.74200  Biso   1.000  H
  H44      1.0000 0.04020  0.65390  0.73930  Biso   1.000  H
  C52      1.0000 0.00130  0.69800  0.62190  Biso   1.000  C
  H45      1.0000 0.97980  0.56780  0.64150  Biso   1.000  H
  C53      1.0000 0.97820  0.76900  0.56310  Biso   1.000  C
  H46      1.0000 0.94030  0.68850  0.54170  Biso   1.000  H
  C54      1.0000 0.01000  0.95850  0.53380  Biso   1.000  C
  C55      1.0000 0.06570  0.06900  0.56690  Biso   1.000  C
  H47      1.0000 0.09070  0.19310  0.54760  Biso   1.000  H
  C56      1.0000 0.08410  0.99560  0.62800  Biso   1.000  C
  H48      1.0000 0.11870  0.07910  0.65270  Biso   1.000  H
  Zn1      1.0000 0.75000  0.73260  0.25000  Biso   1.000  Zn
  Zn2      1.0000 0.25000  0.26740  0.75000  Biso   1.000  Zn
