data_image0
_cell_length_a       9.0595
_cell_length_b       7.4628
_cell_length_c       9.4321
_cell_angle_alpha    90
_cell_angle_beta     90
_cell_angle_gamma    90

_symmetry_space_group_name_H-M    "P 1"
_symmetry_int_tables_number       1

loop_
  _symmetry_equiv_pos_as_xyz
  'x, y, z'

loop_
  _atom_site_label
  _atom_site_occupancy
  _atom_site_fract_x
  _atom_site_fract_y
  _atom_site_fract_z
  _atom_site_thermal_displace_type
  _atom_site_B_iso_or_equiv
  _atom_site_type_symbol
  F1       1.0000 0.64700  0.55630  0.63320  Biso   1.000  F
  F2       1.0000 0.14700  0.05630  0.13320  Biso   1.000  F
  F3       1.0000 0.35300  0.94370  0.63320  Biso   1.000  F
  F4       1.0000 0.85300  0.44370  0.13320  Biso   1.000  F
  F5       1.0000 0.35300  0.05630  0.36680  Biso   1.000  F
  F6       1.0000 0.85300  0.55630  0.86680  Biso   1.000  F
  F7       1.0000 0.64700  0.44370  0.36680  Biso   1.000  F
  F8       1.0000 0.14700  0.94370  0.86680  Biso   1.000  F
  F9       1.0000 0.35300  0.44370  0.36680  Biso   1.000  F
  F10      1.0000 0.85300  0.94370  0.86680  Biso   1.000  F
  F11      1.0000 0.64700  0.05630  0.36680  Biso   1.000  F
  F12      1.0000 0.14700  0.55630  0.86680  Biso   1.000  F
  F13      1.0000 0.64700  0.94370  0.63320  Biso   1.000  F
  F14      1.0000 0.14700  0.44370  0.13320  Biso   1.000  F
  F15      1.0000 0.35300  0.55630  0.63320  Biso   1.000  F
  F16      1.0000 0.85300  0.05630  0.13320  Biso   1.000  F
  Zn1      1.0000 0.75000  0.75000  0.75000  Biso   1.000  Zn
  Zn2      1.0000 0.25000  0.75000  0.75000  Biso   1.000  Zn
  Zn3      1.0000 0.25000  0.25000  0.25000  Biso   1.000  Zn
  Zn4      1.0000 0.75000  0.25000  0.25000  Biso   1.000  Zn
  V1       1.0000 0.50000  0.50000  0.50000  Biso   1.000  V
  V2       1.0000 0.00000  0.00000  0.00000  Biso   1.000  V
  V3       1.0000 0.50000  0.00000  0.50000  Biso   1.000  V
  V4       1.0000 0.00000  0.50000  0.00000  Biso   1.000  V
  F17      1.0000 0.50000  0.75000  0.42450  Biso   1.000  F
  F18      1.0000 0.00000  0.25000  0.92450  Biso   1.000  F
  F19      1.0000 0.50000  0.25000  0.57550  Biso   1.000  F
  F20      1.0000 0.00000  0.75000  0.07550  Biso   1.000  F
