data_image0
_cell_length_a       9.0193
_cell_length_b       7.3421
_cell_length_c       9.3901
_cell_angle_alpha    90
_cell_angle_beta     90
_cell_angle_gamma    90

_symmetry_space_group_name_H-M    "P 1"
_symmetry_int_tables_number       1

loop_
  _symmetry_equiv_pos_as_xyz
  'x, y, z'

loop_
  _atom_site_label
  _atom_site_occupancy
  _atom_site_fract_x
  _atom_site_fract_y
  _atom_site_fract_z
  _atom_site_thermal_displace_type
  _atom_site_B_iso_or_equiv
  _atom_site_type_symbol
  F1       1.0000 0.64890  0.54960  0.63460  Biso   1.000  F
  F2       1.0000 0.14890  0.04960  0.13460  Biso   1.000  F
  F3       1.0000 0.35110  0.95040  0.63460  Biso   1.000  F
  F4       1.0000 0.85110  0.45040  0.13460  Biso   1.000  F
  F5       1.0000 0.35110  0.04960  0.36540  Biso   1.000  F
  F6       1.0000 0.85110  0.54960  0.86540  Biso   1.000  F
  F7       1.0000 0.64890  0.45040  0.36540  Biso   1.000  F
  F8       1.0000 0.14890  0.95040  0.86540  Biso   1.000  F
  F9       1.0000 0.35110  0.45040  0.36540  Biso   1.000  F
  F10      1.0000 0.85110  0.95040  0.86540  Biso   1.000  F
  F11      1.0000 0.64890  0.04960  0.36540  Biso   1.000  F
  F12      1.0000 0.14890  0.54960  0.86540  Biso   1.000  F
  F13      1.0000 0.64890  0.95040  0.63460  Biso   1.000  F
  F14      1.0000 0.14890  0.45040  0.13460  Biso   1.000  F
  F15      1.0000 0.35110  0.54960  0.63460  Biso   1.000  F
  F16      1.0000 0.85110  0.04960  0.13460  Biso   1.000  F
  Co1      1.0000 0.75000  0.75000  0.75000  Biso   1.000  Co
  Co2      1.0000 0.25000  0.75000  0.75000  Biso   1.000  Co
  Co3      1.0000 0.25000  0.25000  0.25000  Biso   1.000  Co
  Co4      1.0000 0.75000  0.25000  0.25000  Biso   1.000  Co
  Ga1      1.0000 0.50000  0.50000  0.50000  Biso   1.000  Ga
  Ga2      1.0000 0.00000  0.00000  0.00000  Biso   1.000  Ga
  Ga3      1.0000 0.50000  0.00000  0.50000  Biso   1.000  Ga
  Ga4      1.0000 0.00000  0.50000  0.00000  Biso   1.000  Ga
  F17      1.0000 0.50000  0.75000  0.42550  Biso   1.000  F
  F18      1.0000 0.00000  0.25000  0.92550  Biso   1.000  F
  F19      1.0000 0.50000  0.25000  0.57450  Biso   1.000  F
  F20      1.0000 0.00000  0.75000  0.07450  Biso   1.000  F
