data_image0
_cell_length_a       30.672
_cell_length_b       15.072
_cell_length_c       20.994
_cell_angle_alpha    90
_cell_angle_beta     129.553
_cell_angle_gamma    90

_symmetry_space_group_name_H-M    "P 1"
_symmetry_int_tables_number       1

loop_
  _symmetry_equiv_pos_as_xyz
  'x, y, z'

loop_
  _atom_site_label
  _atom_site_occupancy
  _atom_site_fract_x
  _atom_site_fract_y
  _atom_site_fract_z
  _atom_site_thermal_displace_type
  _atom_site_B_iso_or_equiv
  _atom_site_type_symbol
  Cd1      1.0000 0.92684  0.54719  0.93213  Biso   1.000  Cd
  Cd2      1.0000 0.76142  0.79494  0.59429  Biso   1.000  Cd
  O1       1.0000 0.97992  0.28280  0.04580  Biso   1.000  O
  O2       1.0000 0.93514  0.46590  0.83770  Biso   1.000  O
  O3       1.0000 0.83356  0.55320  0.58110  Biso   1.000  O
  O4       1.0000 0.78614  0.68070  0.54560  Biso   1.000  O
  N1       1.0000 0.82245  0.70580  0.70230  Biso   1.000  N
  N2       1.0000 0.86852  0.44400  0.92020  Biso   1.000  N
  C1       1.0000 0.84970  0.69760  0.78390  Biso   1.000  C
  O5       1.0000 0.89912  0.46250  0.70660  Biso   1.000  O
  H1       1.0000 0.88150  0.49610  0.66680  Biso   1.000  H
  N3       1.0000 0.88217  0.62470  0.81690  Biso   1.000  N
  O6       1.0000 0.83220  0.92080  0.98210  Biso   1.000  O
  C2       1.0000 0.84470  0.75960  0.83310  Biso   1.000  C
  C3       1.0000 0.81480  0.43540  0.88920  Biso   1.000  C
  O7       1.0000 0.98181  0.41950  0.00700  Biso   1.000  O
  C4       1.0000 0.77000  0.50220  0.83670  Biso   1.000  C
  C5       1.0000 0.90520  0.49870  0.76780  Biso   1.000  C
  C6       1.0000 0.89570  0.36730  0.96380  Biso   1.000  C
  C7       1.0000 0.73490  0.53010  0.85390  Biso   1.000  C
  H2       1.0000 0.73960  0.50700  0.89900  Biso   1.000  H
  C8       1.0000 0.81850  0.62110  0.59880  Biso   1.000  C
  C9       1.0000 0.83930  0.63410  0.68300  Biso   1.000  C
  C10      1.0000 0.87540  0.58300  0.75300  Biso   1.000  C
  C11      1.0000 0.76220  0.53670  0.76870  Biso   1.000  C
  H3       1.0000 0.78510  0.51750  0.75680  Biso   1.000  H
  C12      1.0000 0.95660  0.35460  0.00900  Biso   1.000  C
  C13      1.0000 0.78510  0.84690  0.84900  Biso   1.000  C
  H4       1.0000 0.74960  0.86760  0.82810  Biso   1.000  H
  C14      1.0000 0.79150  0.79320  0.80120  Biso   1.000  C
  H5       1.0000 0.76000  0.77950  0.74730  Biso   1.000  H
  C15      1.0000 0.89150  0.78200  0.91260  Biso   1.000  C
  H6       1.0000 0.92660  0.75900  0.93430  Biso   1.000  H
  O8       1.0000 0.64730  0.69190  0.68400  Biso   1.000  O
  C16      1.0000 0.72020  0.60030  0.71810  Biso   1.000  C
  H7       1.0000 0.71540  0.62400  0.67310  Biso   1.000  H
  C17      1.0000 0.83380  0.86890  0.92990  Biso   1.000  C
  C18      1.0000 0.68570  0.62760  0.73620  Biso   1.000  C
  C19      1.0000 0.88730  0.83870  0.96160  Biso   1.000  C
  H8       1.0000 0.91940  0.85570  0.01400  Biso   1.000  H
  C20      1.0000 0.77870  0.95160  0.95380  Biso   1.000  C
  H9       1.0000 0.76030  0.98360  0.90300  Biso   1.000  H
  H10      1.0000 0.78380  0.99020  0.99450  Biso   1.000  H
  H11      1.0000 0.75570  0.90190  0.94470  Biso   1.000  H
  C21      1.0000 0.69270  0.59260  0.80290  Biso   1.000  C
  H12      1.0000 0.66920  0.61090  0.81390  Biso   1.000  H
  C22      1.0000 0.61260  0.72730  0.70160  Biso   1.000  C
  H13      1.0000 0.58410  0.68480  0.68620  Biso   1.000  H
  H14      1.0000 0.59490  0.78100  0.67080  Biso   1.000  H
  H15      1.0000 0.63560  0.73980  0.75960  Biso   1.000  H
  N4       1.0000 0.80525  0.35660  0.91020  Biso   1.000  N
  O9       1.0000 0.90952  0.18480  0.03310  Biso   1.000  O
  H16      1.0000 0.93450  0.22130  0.04970  Biso   1.000  H
  C23      1.0000 0.85650  0.31260  0.95720  Biso   1.000  C
  C24      1.0000 0.86120  0.22430  0.98980  Biso   1.000  C
  O10      1.0000 0.81839  0.18940  0.97380  Biso   1.000  O
  O11      1.0000 0.82490  0.88360  0.60210  Biso   1.000  O
  H17      1.0000 0.79900  0.84370  0.57670  Biso   1.000  H
  H18      1.0000 0.84130  0.86300  0.58390  Biso   1.000  H
  H19      1.0000 0.85000  0.92100  0.02500  Biso   1.000  H
  Cd3      1.0000 0.42684  0.04719  0.93213  Biso   1.000  Cd
  Cd4      1.0000 0.26142  0.29494  0.59429  Biso   1.000  Cd
  O12      1.0000 0.47992  0.78280  0.04580  Biso   1.000  O
  O13      1.0000 0.43514  0.96590  0.83770  Biso   1.000  O
  O14      1.0000 0.33356  0.05320  0.58110  Biso   1.000  O
  O15      1.0000 0.28614  0.18070  0.54560  Biso   1.000  O
  N5       1.0000 0.32245  0.20580  0.70230  Biso   1.000  N
  N6       1.0000 0.36852  0.94400  0.92020  Biso   1.000  N
  C25      1.0000 0.34970  0.19760  0.78390  Biso   1.000  C
  O16      1.0000 0.39912  0.96250  0.70660  Biso   1.000  O
  H20      1.0000 0.38150  0.99610  0.66680  Biso   1.000  H
  N7       1.0000 0.38217  0.12470  0.81690  Biso   1.000  N
  O17      1.0000 0.33220  0.42080  0.98210  Biso   1.000  O
  C26      1.0000 0.34470  0.25960  0.83310  Biso   1.000  C
  C27      1.0000 0.31480  0.93540  0.88920  Biso   1.000  C
  O18      1.0000 0.48181  0.91950  0.00700  Biso   1.000  O
  C28      1.0000 0.27000  0.00220  0.83670  Biso   1.000  C
  C29      1.0000 0.40520  0.99870  0.76780  Biso   1.000  C
  C30      1.0000 0.39570  0.86730  0.96380  Biso   1.000  C
  C31      1.0000 0.23490  0.03010  0.85390  Biso   1.000  C
  H21      1.0000 0.23960  0.00700  0.89900  Biso   1.000  H
  C32      1.0000 0.31850  0.12110  0.59880  Biso   1.000  C
  C33      1.0000 0.33930  0.13410  0.68300  Biso   1.000  C
  C34      1.0000 0.37540  0.08300  0.75300  Biso   1.000  C
  C35      1.0000 0.26220  0.03670  0.76870  Biso   1.000  C
  H22      1.0000 0.28510  0.01750  0.75680  Biso   1.000  H
  C36      1.0000 0.45660  0.85460  0.00900  Biso   1.000  C
  C37      1.0000 0.28510  0.34690  0.84900  Biso   1.000  C
  H23      1.0000 0.24960  0.36760  0.82810  Biso   1.000  H
  C38      1.0000 0.29150  0.29320  0.80120  Biso   1.000  C
  H24      1.0000 0.26000  0.27950  0.74730  Biso   1.000  H
  C39      1.0000 0.39150  0.28200  0.91260  Biso   1.000  C
  H25      1.0000 0.42660  0.25900  0.93430  Biso   1.000  H
  O19      1.0000 0.14730  0.19190  0.68400  Biso   1.000  O
  C40      1.0000 0.22020  0.10030  0.71810  Biso   1.000  C
  H26      1.0000 0.21540  0.12400  0.67310  Biso   1.000  H
  C41      1.0000 0.33380  0.36890  0.92990  Biso   1.000  C
  C42      1.0000 0.18570  0.12760  0.73620  Biso   1.000  C
  C43      1.0000 0.38730  0.33870  0.96160  Biso   1.000  C
  H27      1.0000 0.41940  0.35570  0.01400  Biso   1.000  H
  C44      1.0000 0.27870  0.45160  0.95380  Biso   1.000  C
  H28      1.0000 0.26030  0.48360  0.90300  Biso   1.000  H
  H29      1.0000 0.28380  0.49020  0.99450  Biso   1.000  H
  H30      1.0000 0.25570  0.40190  0.94470  Biso   1.000  H
  C45      1.0000 0.19270  0.09260  0.80290  Biso   1.000  C
  H31      1.0000 0.16920  0.11090  0.81390  Biso   1.000  H
  C46      1.0000 0.11260  0.22730  0.70160  Biso   1.000  C
  H32      1.0000 0.08410  0.18480  0.68620  Biso   1.000  H
  H33      1.0000 0.09490  0.28100  0.67080  Biso   1.000  H
  H34      1.0000 0.13560  0.23980  0.75960  Biso   1.000  H
  N8       1.0000 0.30525  0.85660  0.91020  Biso   1.000  N
  O20      1.0000 0.40952  0.68480  0.03310  Biso   1.000  O
  H35      1.0000 0.43450  0.72130  0.04970  Biso   1.000  H
  C47      1.0000 0.35650  0.81260  0.95720  Biso   1.000  C
  C48      1.0000 0.36120  0.72430  0.98980  Biso   1.000  C
  O21      1.0000 0.31839  0.68940  0.97380  Biso   1.000  O
  O22      1.0000 0.32490  0.38360  0.60210  Biso   1.000  O
  H36      1.0000 0.29900  0.34370  0.57670  Biso   1.000  H
  H37      1.0000 0.34130  0.36300  0.58390  Biso   1.000  H
  H38      1.0000 0.35000  0.42100  0.02500  Biso   1.000  H
  Cd5      1.0000 0.07316  0.54719  0.56787  Biso   1.000  Cd
  Cd6      1.0000 0.23858  0.79494  0.90571  Biso   1.000  Cd
  O23      1.0000 0.02008  0.28280  0.45420  Biso   1.000  O
  O24      1.0000 0.06486  0.46590  0.66230  Biso   1.000  O
  O25      1.0000 0.16644  0.55320  0.91890  Biso   1.000  O
  O26      1.0000 0.21386  0.68070  0.95440  Biso   1.000  O
  N9       1.0000 0.17755  0.70580  0.79770  Biso   1.000  N
  N10      1.0000 0.13148  0.44400  0.57980  Biso   1.000  N
  C49      1.0000 0.15030  0.69760  0.71610  Biso   1.000  C
  O27      1.0000 0.10088  0.46250  0.79340  Biso   1.000  O
  H39      1.0000 0.11850  0.49610  0.83320  Biso   1.000  H
  N11      1.0000 0.11783  0.62470  0.68310  Biso   1.000  N
  O28      1.0000 0.16780  0.92080  0.51790  Biso   1.000  O
  C50      1.0000 0.15530  0.75960  0.66690  Biso   1.000  C
  C51      1.0000 0.18520  0.43540  0.61080  Biso   1.000  C
  O29      1.0000 0.01819  0.41950  0.49300  Biso   1.000  O
  C52      1.0000 0.23000  0.50220  0.66330  Biso   1.000  C
  C53      1.0000 0.09480  0.49870  0.73220  Biso   1.000  C
  C54      1.0000 0.10430  0.36730  0.53620  Biso   1.000  C
  C55      1.0000 0.26510  0.53010  0.64610  Biso   1.000  C
  H40      1.0000 0.26040  0.50700  0.60100  Biso   1.000  H
  C56      1.0000 0.18150  0.62110  0.90120  Biso   1.000  C
  C57      1.0000 0.16070  0.63410  0.81700  Biso   1.000  C
  C58      1.0000 0.12460  0.58300  0.74700  Biso   1.000  C
  C59      1.0000 0.23780  0.53670  0.73130  Biso   1.000  C
  H41      1.0000 0.21490  0.51750  0.74320  Biso   1.000  H
  C60      1.0000 0.04340  0.35460  0.49100  Biso   1.000  C
  C61      1.0000 0.21490  0.84690  0.65100  Biso   1.000  C
  H42      1.0000 0.25040  0.86760  0.67190  Biso   1.000  H
  C62      1.0000 0.20850  0.79320  0.69880  Biso   1.000  C
  H43      1.0000 0.24000  0.77950  0.75270  Biso   1.000  H
  C63      1.0000 0.10850  0.78200  0.58740  Biso   1.000  C
  H44      1.0000 0.07340  0.75900  0.56570  Biso   1.000  H
  O30      1.0000 0.35270  0.69190  0.81600  Biso   1.000  O
  C64      1.0000 0.27980  0.60030  0.78190  Biso   1.000  C
  H45      1.0000 0.28460  0.62400  0.82690  Biso   1.000  H
  C65      1.0000 0.16620  0.86890  0.57010  Biso   1.000  C
  C66      1.0000 0.31430  0.62760  0.76380  Biso   1.000  C
  C67      1.0000 0.11270  0.83870  0.53840  Biso   1.000  C
  H46      1.0000 0.08060  0.85570  0.48600  Biso   1.000  H
  C68      1.0000 0.22130  0.95160  0.54620  Biso   1.000  C
  H47      1.0000 0.23970  0.98360  0.59700  Biso   1.000  H
  H48      1.0000 0.21620  0.99020  0.50550  Biso   1.000  H
  H49      1.0000 0.24430  0.90190  0.55530  Biso   1.000  H
  C69      1.0000 0.30730  0.59260  0.69710  Biso   1.000  C
  H50      1.0000 0.33080  0.61090  0.68610  Biso   1.000  H
  C70      1.0000 0.38740  0.72730  0.79840  Biso   1.000  C
  H51      1.0000 0.41590  0.68480  0.81380  Biso   1.000  H
  H52      1.0000 0.40510  0.78100  0.82920  Biso   1.000  H
  H53      1.0000 0.36440  0.73980  0.74040  Biso   1.000  H
  N12      1.0000 0.19475  0.35660  0.58980  Biso   1.000  N
  O31      1.0000 0.09048  0.18480  0.46690  Biso   1.000  O
  H54      1.0000 0.06550  0.22130  0.45030  Biso   1.000  H
  C71      1.0000 0.14350  0.31260  0.54280  Biso   1.000  C
  C72      1.0000 0.13880  0.22430  0.51020  Biso   1.000  C
  O32      1.0000 0.18161  0.18940  0.52620  Biso   1.000  O
  O33      1.0000 0.17510  0.88360  0.89790  Biso   1.000  O
  H55      1.0000 0.20100  0.84370  0.92330  Biso   1.000  H
  H56      1.0000 0.15870  0.86300  0.91610  Biso   1.000  H
  H57      1.0000 0.15000  0.92100  0.47500  Biso   1.000  H
  Cd7      1.0000 0.57316  0.04719  0.56787  Biso   1.000  Cd
  Cd8      1.0000 0.73858  0.29494  0.90571  Biso   1.000  Cd
  O34      1.0000 0.52008  0.78280  0.45420  Biso   1.000  O
  O35      1.0000 0.56486  0.96590  0.66230  Biso   1.000  O
  O36      1.0000 0.66644  0.05320  0.91890  Biso   1.000  O
  O37      1.0000 0.71386  0.18070  0.95440  Biso   1.000  O
  N13      1.0000 0.67755  0.20580  0.79770  Biso   1.000  N
  N14      1.0000 0.63148  0.94400  0.57980  Biso   1.000  N
  C73      1.0000 0.65030  0.19760  0.71610  Biso   1.000  C
  O38      1.0000 0.60088  0.96250  0.79340  Biso   1.000  O
  H58      1.0000 0.61850  0.99610  0.83320  Biso   1.000  H
  N15      1.0000 0.61783  0.12470  0.68310  Biso   1.000  N
  O39      1.0000 0.66780  0.42080  0.51790  Biso   1.000  O
  C74      1.0000 0.65530  0.25960  0.66690  Biso   1.000  C
  C75      1.0000 0.68520  0.93540  0.61080  Biso   1.000  C
  O40      1.0000 0.51819  0.91950  0.49300  Biso   1.000  O
  C76      1.0000 0.73000  0.00220  0.66330  Biso   1.000  C
  C77      1.0000 0.59480  0.99870  0.73220  Biso   1.000  C
  C78      1.0000 0.60430  0.86730  0.53620  Biso   1.000  C
  C79      1.0000 0.76510  0.03010  0.64610  Biso   1.000  C
  H59      1.0000 0.76040  0.00700  0.60100  Biso   1.000  H
  C80      1.0000 0.68150  0.12110  0.90120  Biso   1.000  C
  C81      1.0000 0.66070  0.13410  0.81700  Biso   1.000  C
  C82      1.0000 0.62460  0.08300  0.74700  Biso   1.000  C
  C83      1.0000 0.73780  0.03670  0.73130  Biso   1.000  C
  H60      1.0000 0.71490  0.01750  0.74320  Biso   1.000  H
  C84      1.0000 0.54340  0.85460  0.49100  Biso   1.000  C
  C85      1.0000 0.71490  0.34690  0.65100  Biso   1.000  C
  H61      1.0000 0.75040  0.36760  0.67190  Biso   1.000  H
  C86      1.0000 0.70850  0.29320  0.69880  Biso   1.000  C
  H62      1.0000 0.74000  0.27950  0.75270  Biso   1.000  H
  C87      1.0000 0.60850  0.28200  0.58740  Biso   1.000  C
  H63      1.0000 0.57340  0.25900  0.56570  Biso   1.000  H
  O41      1.0000 0.85270  0.19190  0.81600  Biso   1.000  O
  C88      1.0000 0.77980  0.10030  0.78190  Biso   1.000  C
  H64      1.0000 0.78460  0.12400  0.82690  Biso   1.000  H
  C89      1.0000 0.66620  0.36890  0.57010  Biso   1.000  C
  C90      1.0000 0.81430  0.12760  0.76380  Biso   1.000  C
  C91      1.0000 0.61270  0.33870  0.53840  Biso   1.000  C
  H65      1.0000 0.58060  0.35570  0.48600  Biso   1.000  H
  C92      1.0000 0.72130  0.45160  0.54620  Biso   1.000  C
  H66      1.0000 0.73970  0.48360  0.59700  Biso   1.000  H
  H67      1.0000 0.71620  0.49020  0.50550  Biso   1.000  H
  H68      1.0000 0.74430  0.40190  0.55530  Biso   1.000  H
  C93      1.0000 0.80730  0.09260  0.69710  Biso   1.000  C
  H69      1.0000 0.83080  0.11090  0.68610  Biso   1.000  H
  C94      1.0000 0.88740  0.22730  0.79840  Biso   1.000  C
  H70      1.0000 0.91590  0.18480  0.81380  Biso   1.000  H
  H71      1.0000 0.90510  0.28100  0.82920  Biso   1.000  H
  H72      1.0000 0.86440  0.23980  0.74040  Biso   1.000  H
  N16      1.0000 0.69475  0.85660  0.58980  Biso   1.000  N
  O42      1.0000 0.59048  0.68480  0.46690  Biso   1.000  O
  H73      1.0000 0.56550  0.72130  0.45030  Biso   1.000  H
  C95      1.0000 0.64350  0.81260  0.54280  Biso   1.000  C
  C96      1.0000 0.63880  0.72430  0.51020  Biso   1.000  C
  O43      1.0000 0.68161  0.68940  0.52620  Biso   1.000  O
  O44      1.0000 0.67510  0.38360  0.89790  Biso   1.000  O
  H74      1.0000 0.70100  0.34370  0.92330  Biso   1.000  H
  H75      1.0000 0.65870  0.36300  0.91610  Biso   1.000  H
  H76      1.0000 0.65000  0.42100  0.47500  Biso   1.000  H
  Cd9      1.0000 0.07316  0.45281  0.06787  Biso   1.000  Cd
  Cd10     1.0000 0.23858  0.20506  0.40571  Biso   1.000  Cd
  O45      1.0000 0.02008  0.71720  0.95420  Biso   1.000  O
  O46      1.0000 0.06486  0.53410  0.16230  Biso   1.000  O
  O47      1.0000 0.16644  0.44680  0.41890  Biso   1.000  O
  O48      1.0000 0.21386  0.31930  0.45440  Biso   1.000  O
  N17      1.0000 0.17755  0.29420  0.29770  Biso   1.000  N
  N18      1.0000 0.13148  0.55600  0.07980  Biso   1.000  N
  C97      1.0000 0.15030  0.30240  0.21610  Biso   1.000  C
  O49      1.0000 0.10088  0.53750  0.29340  Biso   1.000  O
  H77      1.0000 0.11850  0.50390  0.33320  Biso   1.000  H
  N19      1.0000 0.11783  0.37530  0.18310  Biso   1.000  N
  O50      1.0000 0.16780  0.07920  0.01790  Biso   1.000  O
  C98      1.0000 0.15530  0.24040  0.16690  Biso   1.000  C
  C99      1.0000 0.18520  0.56460  0.11080  Biso   1.000  C
  O51      1.0000 0.01819  0.58050  0.99300  Biso   1.000  O
  C100     1.0000 0.23000  0.49780  0.16330  Biso   1.000  C
  C101     1.0000 0.09480  0.50130  0.23220  Biso   1.000  C
  C102     1.0000 0.10430  0.63270  0.03620  Biso   1.000  C
  C103     1.0000 0.26510  0.46990  0.14610  Biso   1.000  C
  H78      1.0000 0.26040  0.49300  0.10100  Biso   1.000  H
  C104     1.0000 0.18150  0.37890  0.40120  Biso   1.000  C
  C105     1.0000 0.16070  0.36590  0.31700  Biso   1.000  C
  C106     1.0000 0.12460  0.41700  0.24700  Biso   1.000  C
  C107     1.0000 0.23780  0.46330  0.23130  Biso   1.000  C
  H79      1.0000 0.21490  0.48250  0.24320  Biso   1.000  H
  C108     1.0000 0.04340  0.64540  0.99100  Biso   1.000  C
  C109     1.0000 0.21490  0.15310  0.15100  Biso   1.000  C
  H80      1.0000 0.25040  0.13240  0.17190  Biso   1.000  H
  C110     1.0000 0.20850  0.20680  0.19880  Biso   1.000  C
  H81      1.0000 0.24000  0.22050  0.25270  Biso   1.000  H
  C111     1.0000 0.10850  0.21800  0.08740  Biso   1.000  C
  H82      1.0000 0.07340  0.24100  0.06570  Biso   1.000  H
  O52      1.0000 0.35270  0.30810  0.31600  Biso   1.000  O
  C112     1.0000 0.27980  0.39970  0.28190  Biso   1.000  C
  H83      1.0000 0.28460  0.37600  0.32690  Biso   1.000  H
  C113     1.0000 0.16620  0.13110  0.07010  Biso   1.000  C
  C114     1.0000 0.31430  0.37240  0.26380  Biso   1.000  C
  C115     1.0000 0.11270  0.16130  0.03840  Biso   1.000  C
  H84      1.0000 0.08060  0.14430  0.98600  Biso   1.000  H
  C116     1.0000 0.22130  0.04840  0.04620  Biso   1.000  C
  H85      1.0000 0.23970  0.01640  0.09700  Biso   1.000  H
  H86      1.0000 0.21620  0.00980  0.00550  Biso   1.000  H
  H87      1.0000 0.24430  0.09810  0.05530  Biso   1.000  H
  C117     1.0000 0.30730  0.40740  0.19710  Biso   1.000  C
  H88      1.0000 0.33080  0.38910  0.18610  Biso   1.000  H
  C118     1.0000 0.38740  0.27270  0.29840  Biso   1.000  C
  H89      1.0000 0.41590  0.31520  0.31380  Biso   1.000  H
  H90      1.0000 0.40510  0.21900  0.32920  Biso   1.000  H
  H91      1.0000 0.36440  0.26020  0.24040  Biso   1.000  H
  N20      1.0000 0.19475  0.64340  0.08980  Biso   1.000  N
  O53      1.0000 0.09048  0.81520  0.96690  Biso   1.000  O
  H92      1.0000 0.06550  0.77870  0.95030  Biso   1.000  H
  C119     1.0000 0.14350  0.68740  0.04280  Biso   1.000  C
  C120     1.0000 0.13880  0.77570  0.01020  Biso   1.000  C
  O54      1.0000 0.18161  0.81060  0.02620  Biso   1.000  O
  O55      1.0000 0.17510  0.11640  0.39790  Biso   1.000  O
  H93      1.0000 0.20100  0.15630  0.42330  Biso   1.000  H
  H94      1.0000 0.15870  0.13700  0.41610  Biso   1.000  H
  H95      1.0000 0.15000  0.07900  0.97500  Biso   1.000  H
  Cd11     1.0000 0.57316  0.95281  0.06787  Biso   1.000  Cd
  Cd12     1.0000 0.73858  0.70506  0.40571  Biso   1.000  Cd
  O56      1.0000 0.52008  0.21720  0.95420  Biso   1.000  O
  O57      1.0000 0.56486  0.03410  0.16230  Biso   1.000  O
  O58      1.0000 0.66644  0.94680  0.41890  Biso   1.000  O
  O59      1.0000 0.71386  0.81930  0.45440  Biso   1.000  O
  N21      1.0000 0.67755  0.79420  0.29770  Biso   1.000  N
  N22      1.0000 0.63148  0.05600  0.07980  Biso   1.000  N
  C121     1.0000 0.65030  0.80240  0.21610  Biso   1.000  C
  O60      1.0000 0.60088  0.03750  0.29340  Biso   1.000  O
  H96      1.0000 0.61850  0.00390  0.33320  Biso   1.000  H
  N23      1.0000 0.61783  0.87530  0.18310  Biso   1.000  N
  O61      1.0000 0.66780  0.57920  0.01790  Biso   1.000  O
  C122     1.0000 0.65530  0.74040  0.16690  Biso   1.000  C
  C123     1.0000 0.68520  0.06460  0.11080  Biso   1.000  C
  O62      1.0000 0.51819  0.08050  0.99300  Biso   1.000  O
  C124     1.0000 0.73000  0.99780  0.16330  Biso   1.000  C
  C125     1.0000 0.59480  0.00130  0.23220  Biso   1.000  C
  C126     1.0000 0.60430  0.13270  0.03620  Biso   1.000  C
  C127     1.0000 0.76510  0.96990  0.14610  Biso   1.000  C
  H97      1.0000 0.76040  0.99300  0.10100  Biso   1.000  H
  C128     1.0000 0.68150  0.87890  0.40120  Biso   1.000  C
  C129     1.0000 0.66070  0.86590  0.31700  Biso   1.000  C
  C130     1.0000 0.62460  0.91700  0.24700  Biso   1.000  C
  C131     1.0000 0.73780  0.96330  0.23130  Biso   1.000  C
  H98      1.0000 0.71490  0.98250  0.24320  Biso   1.000  H
  C132     1.0000 0.54340  0.14540  0.99100  Biso   1.000  C
  C133     1.0000 0.71490  0.65310  0.15100  Biso   1.000  C
  H99      1.0000 0.75040  0.63240  0.17190  Biso   1.000  H
  C134     1.0000 0.70850  0.70680  0.19880  Biso   1.000  C
  H100     1.0000 0.74000  0.72050  0.25270  Biso   1.000  H
  C135     1.0000 0.60850  0.71800  0.08740  Biso   1.000  C
  H101     1.0000 0.57340  0.74100  0.06570  Biso   1.000  H
  O63      1.0000 0.85270  0.80810  0.31600  Biso   1.000  O
  C136     1.0000 0.77980  0.89970  0.28190  Biso   1.000  C
  H102     1.0000 0.78460  0.87600  0.32690  Biso   1.000  H
  C137     1.0000 0.66620  0.63110  0.07010  Biso   1.000  C
  C138     1.0000 0.81430  0.87240  0.26380  Biso   1.000  C
  C139     1.0000 0.61270  0.66130  0.03840  Biso   1.000  C
  H103     1.0000 0.58060  0.64430  0.98600  Biso   1.000  H
  C140     1.0000 0.72130  0.54840  0.04620  Biso   1.000  C
  H104     1.0000 0.73970  0.51640  0.09700  Biso   1.000  H
  H105     1.0000 0.71620  0.50980  0.00550  Biso   1.000  H
  H106     1.0000 0.74430  0.59810  0.05530  Biso   1.000  H
  C141     1.0000 0.80730  0.90740  0.19710  Biso   1.000  C
  H107     1.0000 0.83080  0.88910  0.18610  Biso   1.000  H
  C142     1.0000 0.88740  0.77270  0.29840  Biso   1.000  C
  H108     1.0000 0.91590  0.81520  0.31380  Biso   1.000  H
  H109     1.0000 0.90510  0.71900  0.32920  Biso   1.000  H
  H110     1.0000 0.86440  0.76020  0.24040  Biso   1.000  H
  N24      1.0000 0.69475  0.14340  0.08980  Biso   1.000  N
  O64      1.0000 0.59048  0.31520  0.96690  Biso   1.000  O
  H111     1.0000 0.56550  0.27870  0.95030  Biso   1.000  H
  C143     1.0000 0.64350  0.18740  0.04280  Biso   1.000  C
  C144     1.0000 0.63880  0.27570  0.01020  Biso   1.000  C
  O65      1.0000 0.68161  0.31060  0.02620  Biso   1.000  O
  O66      1.0000 0.67510  0.61640  0.39790  Biso   1.000  O
  H112     1.0000 0.70100  0.65630  0.42330  Biso   1.000  H
  H113     1.0000 0.65870  0.63700  0.41610  Biso   1.000  H
  H114     1.0000 0.65000  0.57900  0.97500  Biso   1.000  H
  Cd13     1.0000 0.92684  0.45281  0.43213  Biso   1.000  Cd
  Cd14     1.0000 0.76142  0.20506  0.09429  Biso   1.000  Cd
  O67      1.0000 0.97992  0.71720  0.54580  Biso   1.000  O
  O68      1.0000 0.93514  0.53410  0.33770  Biso   1.000  O
  O69      1.0000 0.83356  0.44680  0.08110  Biso   1.000  O
  O70      1.0000 0.78614  0.31930  0.04560  Biso   1.000  O
  N25      1.0000 0.82245  0.29420  0.20230  Biso   1.000  N
  N26      1.0000 0.86852  0.55600  0.42020  Biso   1.000  N
  C145     1.0000 0.84970  0.30240  0.28390  Biso   1.000  C
  O71      1.0000 0.89912  0.53750  0.20660  Biso   1.000  O
  H115     1.0000 0.88150  0.50390  0.16680  Biso   1.000  H
  N27      1.0000 0.88217  0.37530  0.31690  Biso   1.000  N
  O72      1.0000 0.83220  0.07920  0.48210  Biso   1.000  O
  C146     1.0000 0.84470  0.24040  0.33310  Biso   1.000  C
  C147     1.0000 0.81480  0.56460  0.38920  Biso   1.000  C
  O73      1.0000 0.98181  0.58050  0.50700  Biso   1.000  O
  C148     1.0000 0.77000  0.49780  0.33670  Biso   1.000  C
  C149     1.0000 0.90520  0.50130  0.26780  Biso   1.000  C
  C150     1.0000 0.89570  0.63270  0.46380  Biso   1.000  C
  C151     1.0000 0.73490  0.46990  0.35390  Biso   1.000  C
  H116     1.0000 0.73960  0.49300  0.39900  Biso   1.000  H
  C152     1.0000 0.81850  0.37890  0.09880  Biso   1.000  C
  C153     1.0000 0.83930  0.36590  0.18300  Biso   1.000  C
  C154     1.0000 0.87540  0.41700  0.25300  Biso   1.000  C
  C155     1.0000 0.76220  0.46330  0.26870  Biso   1.000  C
  H117     1.0000 0.78510  0.48250  0.25680  Biso   1.000  H
  C156     1.0000 0.95660  0.64540  0.50900  Biso   1.000  C
  C157     1.0000 0.78510  0.15310  0.34900  Biso   1.000  C
  H118     1.0000 0.74960  0.13240  0.32810  Biso   1.000  H
  C158     1.0000 0.79150  0.20680  0.30120  Biso   1.000  C
  H119     1.0000 0.76000  0.22050  0.24730  Biso   1.000  H
  C159     1.0000 0.89150  0.21800  0.41260  Biso   1.000  C
  H120     1.0000 0.92660  0.24100  0.43430  Biso   1.000  H
  O74      1.0000 0.64730  0.30810  0.18400  Biso   1.000  O
  C160     1.0000 0.72020  0.39970  0.21810  Biso   1.000  C
  H121     1.0000 0.71540  0.37600  0.17310  Biso   1.000  H
  C161     1.0000 0.83380  0.13110  0.42990  Biso   1.000  C
  C162     1.0000 0.68570  0.37240  0.23620  Biso   1.000  C
  C163     1.0000 0.88730  0.16130  0.46160  Biso   1.000  C
  H122     1.0000 0.91940  0.14430  0.51400  Biso   1.000  H
  C164     1.0000 0.77870  0.04840  0.45380  Biso   1.000  C
  H123     1.0000 0.76030  0.01640  0.40300  Biso   1.000  H
  H124     1.0000 0.78380  0.00980  0.49450  Biso   1.000  H
  H125     1.0000 0.75570  0.09810  0.44470  Biso   1.000  H
  C165     1.0000 0.69270  0.40740  0.30290  Biso   1.000  C
  H126     1.0000 0.66920  0.38910  0.31390  Biso   1.000  H
  C166     1.0000 0.61260  0.27270  0.20160  Biso   1.000  C
  H127     1.0000 0.58410  0.31520  0.18620  Biso   1.000  H
  H128     1.0000 0.59490  0.21900  0.17080  Biso   1.000  H
  H129     1.0000 0.63560  0.26020  0.25960  Biso   1.000  H
  N28      1.0000 0.80525  0.64340  0.41020  Biso   1.000  N
  O75      1.0000 0.90952  0.81520  0.53310  Biso   1.000  O
  H130     1.0000 0.93450  0.77870  0.54970  Biso   1.000  H
  C167     1.0000 0.85650  0.68740  0.45720  Biso   1.000  C
  C168     1.0000 0.86120  0.77570  0.48980  Biso   1.000  C
  O76      1.0000 0.81839  0.81060  0.47380  Biso   1.000  O
  O77      1.0000 0.82490  0.11640  0.10210  Biso   1.000  O
  H131     1.0000 0.79900  0.15630  0.07670  Biso   1.000  H
  H132     1.0000 0.84130  0.13700  0.08390  Biso   1.000  H
  H133     1.0000 0.85000  0.07900  0.52500  Biso   1.000  H
  Cd15     1.0000 0.42684  0.95281  0.43213  Biso   1.000  Cd
  Cd16     1.0000 0.26142  0.70506  0.09429  Biso   1.000  Cd
  O78      1.0000 0.47992  0.21720  0.54580  Biso   1.000  O
  O79      1.0000 0.43514  0.03410  0.33770  Biso   1.000  O
  O80      1.0000 0.33356  0.94680  0.08110  Biso   1.000  O
  O81      1.0000 0.28614  0.81930  0.04560  Biso   1.000  O
  N29      1.0000 0.32245  0.79420  0.20230  Biso   1.000  N
  N30      1.0000 0.36852  0.05600  0.42020  Biso   1.000  N
  C169     1.0000 0.34970  0.80240  0.28390  Biso   1.000  C
  O82      1.0000 0.39912  0.03750  0.20660  Biso   1.000  O
  H134     1.0000 0.38150  0.00390  0.16680  Biso   1.000  H
  N31      1.0000 0.38217  0.87530  0.31690  Biso   1.000  N
  O83      1.0000 0.33220  0.57920  0.48210  Biso   1.000  O
  C170     1.0000 0.34470  0.74040  0.33310  Biso   1.000  C
  C171     1.0000 0.31480  0.06460  0.38920  Biso   1.000  C
  O84      1.0000 0.48181  0.08050  0.50700  Biso   1.000  O
  C172     1.0000 0.27000  0.99780  0.33670  Biso   1.000  C
  C173     1.0000 0.40520  0.00130  0.26780  Biso   1.000  C
  C174     1.0000 0.39570  0.13270  0.46380  Biso   1.000  C
  C175     1.0000 0.23490  0.96990  0.35390  Biso   1.000  C
  H135     1.0000 0.23960  0.99300  0.39900  Biso   1.000  H
  C176     1.0000 0.31850  0.87890  0.09880  Biso   1.000  C
  C177     1.0000 0.33930  0.86590  0.18300  Biso   1.000  C
  C178     1.0000 0.37540  0.91700  0.25300  Biso   1.000  C
  C179     1.0000 0.26220  0.96330  0.26870  Biso   1.000  C
  H136     1.0000 0.28510  0.98250  0.25680  Biso   1.000  H
  C180     1.0000 0.45660  0.14540  0.50900  Biso   1.000  C
  C181     1.0000 0.28510  0.65310  0.34900  Biso   1.000  C
  H137     1.0000 0.24960  0.63240  0.32810  Biso   1.000  H
  C182     1.0000 0.29150  0.70680  0.30120  Biso   1.000  C
  H138     1.0000 0.26000  0.72050  0.24730  Biso   1.000  H
  C183     1.0000 0.39150  0.71800  0.41260  Biso   1.000  C
  H139     1.0000 0.42660  0.74100  0.43430  Biso   1.000  H
  O85      1.0000 0.14730  0.80810  0.18400  Biso   1.000  O
  C184     1.0000 0.22020  0.89970  0.21810  Biso   1.000  C
  H140     1.0000 0.21540  0.87600  0.17310  Biso   1.000  H
  C185     1.0000 0.33380  0.63110  0.42990  Biso   1.000  C
  C186     1.0000 0.18570  0.87240  0.23620  Biso   1.000  C
  C187     1.0000 0.38730  0.66130  0.46160  Biso   1.000  C
  H141     1.0000 0.41940  0.64430  0.51400  Biso   1.000  H
  C188     1.0000 0.27870  0.54840  0.45380  Biso   1.000  C
  H142     1.0000 0.26030  0.51640  0.40300  Biso   1.000  H
  H143     1.0000 0.28380  0.50980  0.49450  Biso   1.000  H
  H144     1.0000 0.25570  0.59810  0.44470  Biso   1.000  H
  C189     1.0000 0.19270  0.90740  0.30290  Biso   1.000  C
  H145     1.0000 0.16920  0.88910  0.31390  Biso   1.000  H
  C190     1.0000 0.11260  0.77270  0.20160  Biso   1.000  C
  H146     1.0000 0.08410  0.81520  0.18620  Biso   1.000  H
  H147     1.0000 0.09490  0.71900  0.17080  Biso   1.000  H
  H148     1.0000 0.13560  0.76020  0.25960  Biso   1.000  H
  N32      1.0000 0.30525  0.14340  0.41020  Biso   1.000  N
  O86      1.0000 0.40952  0.31520  0.53310  Biso   1.000  O
  H149     1.0000 0.43450  0.27870  0.54970  Biso   1.000  H
  C191     1.0000 0.35650  0.18740  0.45720  Biso   1.000  C
  C192     1.0000 0.36120  0.27570  0.48980  Biso   1.000  C
  O87      1.0000 0.31839  0.31060  0.47380  Biso   1.000  O
  O88      1.0000 0.32490  0.61640  0.10210  Biso   1.000  O
  H150     1.0000 0.29900  0.65630  0.07670  Biso   1.000  H
  H151     1.0000 0.34130  0.63700  0.08390  Biso   1.000  H
  H152     1.0000 0.35000  0.57900  0.52500  Biso   1.000  H
