data_LAVSUY_clean
_audit_creation_date              2014-07-02
_audit_creation_method            'Materials Studio'
_symmetry_space_group_name_H-M    'P1'
_symmetry_Int_Tables_number       1
_symmetry_cell_setting            triclinic
loop_
_symmetry_equiv_pos_as_xyz
  x,y,z
_cell_length_a                    10.2900
_cell_length_b                    10.2900
_cell_length_c                    14.5000
_cell_angle_alpha                 90.0000
_cell_angle_beta                  90.0000
_cell_angle_gamma                 90.0000
loop_
_atom_site_label
_atom_site_type_symbol
_atom_site_fract_x
_atom_site_fract_y
_atom_site_fract_z
_atom_site_U_iso_or_equiv
_atom_site_adp_type
_atom_site_occupancy
Y1     Y     0.85085   0.14915   0.62500   0.01267  Uiso   1.00
Y2     Y     0.14915   0.85085   0.12500   0.01267  Uiso   1.00
Y3     Y     0.85085   0.85085   0.87500   0.01267  Uiso   1.00
Y4     Y     0.14915   0.14915   0.37500   0.01267  Uiso   1.00
H1     H     0.55850   0.07620   0.37680   0.01267  Uiso   1.00
H2     H     0.44150   0.92380   0.87680   0.01267  Uiso   1.00
H3     H     0.92380   0.55850   0.62680   0.01267  Uiso   1.00
H4     H     0.07620   0.44150   0.12680   0.01267  Uiso   1.00
H5     H     0.44150   0.07620   0.62320   0.01267  Uiso   1.00
H6     H     0.55850   0.92380   0.12320   0.01267  Uiso   1.00
H7     H     0.07620   0.55850   0.37320   0.01267  Uiso   1.00
H8     H     0.92380   0.44150   0.87320   0.01267  Uiso   1.00
H9     H     0.89970   0.00000   0.25000   0.01267  Uiso   1.00
H10    H     0.10030   0.00000   0.75000   0.01267  Uiso   1.00
H11    H     0.00000   0.89970   0.50000   0.01267  Uiso   1.00
H12    H     0.00000   0.10030   0.00000   0.01267  Uiso   1.00
C1     C     0.60460   0.04490   0.32630   0.01267  Uiso   1.00
C2     C     0.73920   0.04320   0.32760   0.01267  Uiso   1.00
C3     C     0.81620   0.08850   0.40980   0.01267  Uiso   1.00
C4     C     0.39540   0.95510   0.82630   0.01267  Uiso   1.00
C5     C     0.26080   0.95680   0.82760   0.01267  Uiso   1.00
C6     C     0.18380   0.91150   0.90980   0.01267  Uiso   1.00
C7     C     0.95510   0.60460   0.57630   0.01267  Uiso   1.00
C8     C     0.95680   0.73920   0.57760   0.01267  Uiso   1.00
C9     C     0.91150   0.81620   0.65980   0.01267  Uiso   1.00
C10    C     0.04490   0.39540   0.07630   0.01267  Uiso   1.00
C11    C     0.04320   0.26080   0.07760   0.01267  Uiso   1.00
C12    C     0.08850   0.18380   0.15980   0.01267  Uiso   1.00
C13    C     0.39540   0.04490   0.67370   0.01267  Uiso   1.00
C14    C     0.26080   0.04320   0.67240   0.01267  Uiso   1.00
C15    C     0.18380   0.08850   0.59020   0.01267  Uiso   1.00
C16    C     0.60460   0.95510   0.17370   0.01267  Uiso   1.00
C17    C     0.73920   0.95680   0.17240   0.01267  Uiso   1.00
C18    C     0.81620   0.91150   0.09020   0.01267  Uiso   1.00
C19    C     0.04490   0.60460   0.42370   0.01267  Uiso   1.00
C20    C     0.04320   0.73920   0.42240   0.01267  Uiso   1.00
C21    C     0.08850   0.81620   0.34020   0.01267  Uiso   1.00
C22    C     0.95510   0.39540   0.92370   0.01267  Uiso   1.00
C23    C     0.95680   0.26080   0.92240   0.01267  Uiso   1.00
C24    C     0.91150   0.18380   0.84020   0.01267  Uiso   1.00
C25    C     0.53980   0.00000   0.25000   0.01267  Uiso   1.00
C26    C     0.39110   0.00000   0.25000   0.01267  Uiso   1.00
C27    C     0.80930   0.00000   0.25000   0.01267  Uiso   1.00
C28    C     0.46020   0.00000   0.75000   0.01267  Uiso   1.00
C29    C     0.60890   0.00000   0.75000   0.01267  Uiso   1.00
C30    C     0.19070   0.00000   0.75000   0.01267  Uiso   1.00
C31    C     0.00000   0.53980   0.50000   0.01267  Uiso   1.00
C32    C     0.00000   0.39110   0.50000   0.01267  Uiso   1.00
C33    C     0.00000   0.80930   0.50000   0.01267  Uiso   1.00
C34    C     0.00000   0.46020   0.00000   0.01267  Uiso   1.00
C35    C     0.00000   0.60890   0.00000   0.01267  Uiso   1.00
C36    C     0.00000   0.19070   0.00000   0.01267  Uiso   1.00
O1     O     0.75850   0.09550   0.48640   0.01267  Uiso   1.00
O2     O     0.33620   0.07250   0.30760   0.01267  Uiso   1.00
O3     O     0.93350   0.11270   0.39970   0.01267  Uiso   1.00
O4     O     0.24150   0.90450   0.98640   0.01267  Uiso   1.00
O5     O     0.66380   0.92750   0.80760   0.01267  Uiso   1.00
O6     O     0.06650   0.88730   0.89970   0.01267  Uiso   1.00
O7     O     0.90450   0.75850   0.73640   0.01267  Uiso   1.00
O8     O     0.92750   0.33620   0.55760   0.01267  Uiso   1.00
O9     O     0.88730   0.93350   0.64970   0.01267  Uiso   1.00
O10    O     0.09550   0.24150   0.23640   0.01267  Uiso   1.00
O11    O     0.07250   0.66380   0.05760   0.01267  Uiso   1.00
O12    O     0.11270   0.06650   0.14970   0.01267  Uiso   1.00
O13    O     0.24150   0.09550   0.51360   0.01267  Uiso   1.00
O14    O     0.66380   0.07250   0.69240   0.01267  Uiso   1.00
O15    O     0.06650   0.11270   0.60030   0.01267  Uiso   1.00
O16    O     0.75850   0.90450   0.01360   0.01267  Uiso   1.00
O17    O     0.33620   0.92750   0.19240   0.01267  Uiso   1.00
O18    O     0.93350   0.88730   0.10030   0.01267  Uiso   1.00
O19    O     0.09550   0.75850   0.26360   0.01267  Uiso   1.00
O20    O     0.07250   0.33620   0.44240   0.01267  Uiso   1.00
O21    O     0.11270   0.93350   0.35030   0.01267  Uiso   1.00
O22    O     0.90450   0.24150   0.76360   0.01267  Uiso   1.00
O23    O     0.92750   0.66380   0.94240   0.01267  Uiso   1.00
O24    O     0.88730   0.06650   0.85030   0.01267  Uiso   1.00
