data_LAVTIN_clean
_audit_creation_date              2014-07-02
_audit_creation_method            'Materials Studio'
_symmetry_space_group_name_H-M    'P1'
_symmetry_Int_Tables_number       1
_symmetry_cell_setting            triclinic
loop_
_symmetry_equiv_pos_as_xyz
  x,y,z
_cell_length_a                    10.2700
_cell_length_b                    10.2700
_cell_length_c                    14.4600
_cell_angle_alpha                 90.0000
_cell_angle_beta                  90.0000
_cell_angle_gamma                 90.0000
loop_
_atom_site_label
_atom_site_type_symbol
_atom_site_fract_x
_atom_site_fract_y
_atom_site_fract_z
_atom_site_U_iso_or_equiv
_atom_site_adp_type
_atom_site_occupancy
Er1    Er    0.35133   0.64867   0.87500   0.01267  Uiso   1.00
Er2    Er    0.64867   0.35133   0.37500   0.01267  Uiso   1.00
Er3    Er    0.35133   0.35133   0.62500   0.01267  Uiso   1.00
Er4    Er    0.64867   0.64867   0.12500   0.01267  Uiso   1.00
H1     H     0.42490   0.05920   0.87160   0.01267  Uiso   1.00
H2     H     0.57510   0.94080   0.37160   0.01267  Uiso   1.00
H3     H     0.94080   0.42490   0.62160   0.01267  Uiso   1.00
H4     H     0.05920   0.57510   0.12160   0.01267  Uiso   1.00
H5     H     0.57510   0.05920   0.12840   0.01267  Uiso   1.00
H6     H     0.42490   0.94080   0.62840   0.01267  Uiso   1.00
H7     H     0.05920   0.42490   0.37840   0.01267  Uiso   1.00
H8     H     0.94080   0.57510   0.87840   0.01267  Uiso   1.00
H9     H     0.50000   0.39920   1.00000   0.01267  Uiso   1.00
H10    H     0.50000   0.60080   0.50000   0.01267  Uiso   1.00
H11    H     0.60080   0.50000   0.75000   0.01267  Uiso   1.00
H12    H     0.39920   0.50000   0.25000   0.01267  Uiso   1.00
C1     C     0.41220   0.31660   0.83930   0.01267  Uiso   1.00
C2     C     0.45540   0.10460   0.92280   0.01267  Uiso   1.00
C3     C     0.45680   0.24000   0.92270   0.01267  Uiso   1.00
C4     C     0.58780   0.68340   0.33930   0.01267  Uiso   1.00
C5     C     0.54460   0.89540   0.42280   0.01267  Uiso   1.00
C6     C     0.54320   0.76000   0.42270   0.01267  Uiso   1.00
C7     C     0.68340   0.41220   0.58930   0.01267  Uiso   1.00
C8     C     0.89540   0.45540   0.67280   0.01267  Uiso   1.00
C9     C     0.76000   0.45680   0.67270   0.01267  Uiso   1.00
C10    C     0.31660   0.58780   0.08930   0.01267  Uiso   1.00
C11    C     0.10460   0.54460   0.17280   0.01267  Uiso   1.00
C12    C     0.24000   0.54320   0.17270   0.01267  Uiso   1.00
C13    C     0.58780   0.31660   0.16070   0.01267  Uiso   1.00
C14    C     0.54460   0.10460   0.07720   0.01267  Uiso   1.00
C15    C     0.54320   0.24000   0.07730   0.01267  Uiso   1.00
C16    C     0.41220   0.68340   0.66070   0.01267  Uiso   1.00
C17    C     0.45540   0.89540   0.57720   0.01267  Uiso   1.00
C18    C     0.45680   0.76000   0.57730   0.01267  Uiso   1.00
C19    C     0.31660   0.41220   0.41070   0.01267  Uiso   1.00
C20    C     0.10460   0.45540   0.32720   0.01267  Uiso   1.00
C21    C     0.24000   0.45680   0.32730   0.01267  Uiso   1.00
C22    C     0.68340   0.58780   0.91070   0.01267  Uiso   1.00
C23    C     0.89540   0.54460   0.82720   0.01267  Uiso   1.00
C24    C     0.76000   0.54320   0.82730   0.01267  Uiso   1.00
C25    C     0.50000   0.88970   1.00000   0.01267  Uiso   1.00
C26    C     0.50000   0.03740   1.00000   0.01267  Uiso   1.00
C27    C     0.50000   0.30870   0.00000   0.01267  Uiso   1.00
C28    C     0.50000   0.11030   0.50000   0.01267  Uiso   1.00
C29    C     0.50000   0.96260   0.50000   0.01267  Uiso   1.00
C30    C     0.50000   0.69130   0.50000   0.01267  Uiso   1.00
C31    C     0.11030   0.50000   0.75000   0.01267  Uiso   1.00
C32    C     0.96260   0.50000   0.75000   0.01267  Uiso   1.00
C33    C     0.69130   0.50000   0.75000   0.01267  Uiso   1.00
C34    C     0.88970   0.50000   0.25000   0.01267  Uiso   1.00
C35    C     0.03740   0.50000   0.25000   0.01267  Uiso   1.00
C36    C     0.30870   0.50000   0.25000   0.01267  Uiso   1.00
O1     O     0.42770   0.83610   0.94200   0.01267  Uiso   1.00
O2     O     0.38860   0.43310   0.84990   0.01267  Uiso   1.00
O3     O     0.40410   0.25830   0.76330   0.01267  Uiso   1.00
O4     O     0.57230   0.16390   0.44200   0.01267  Uiso   1.00
O5     O     0.61140   0.56690   0.34990   0.01267  Uiso   1.00
O6     O     0.59590   0.74170   0.26330   0.01267  Uiso   1.00
O7     O     0.16390   0.42770   0.69200   0.01267  Uiso   1.00
O8     O     0.56690   0.38860   0.59990   0.01267  Uiso   1.00
O9     O     0.74170   0.40410   0.51330   0.01267  Uiso   1.00
O10    O     0.83610   0.57230   0.19200   0.01267  Uiso   1.00
O11    O     0.43310   0.61140   0.09990   0.01267  Uiso   1.00
O12    O     0.25830   0.59590   0.01330   0.01267  Uiso   1.00
O13    O     0.57230   0.83610   0.05800   0.01267  Uiso   1.00
O14    O     0.61140   0.43310   0.15010   0.01267  Uiso   1.00
O15    O     0.59590   0.25830   0.23670   0.01267  Uiso   1.00
O16    O     0.42770   0.16390   0.55800   0.01267  Uiso   1.00
O17    O     0.38860   0.56690   0.65010   0.01267  Uiso   1.00
O18    O     0.40410   0.74170   0.73670   0.01267  Uiso   1.00
O19    O     0.83610   0.42770   0.30800   0.01267  Uiso   1.00
O20    O     0.43310   0.38860   0.40010   0.01267  Uiso   1.00
O21    O     0.25830   0.40410   0.48670   0.01267  Uiso   1.00
O22    O     0.16390   0.57230   0.80800   0.01267  Uiso   1.00
O23    O     0.56690   0.61140   0.90010   0.01267  Uiso   1.00
O24    O     0.74170   0.59590   0.98670   0.01267  Uiso   1.00
