data_image0
_cell_length_a       14.3893
_cell_length_b       14.7147
_cell_length_c       15.3534
_cell_angle_alpha    98.306
_cell_angle_beta     93.876
_cell_angle_gamma    96.296

_symmetry_space_group_name_H-M    "P 1"
_symmetry_int_tables_number       1

loop_
  _symmetry_equiv_pos_as_xyz
  'x, y, z'

loop_
  _atom_site_label
  _atom_site_occupancy
  _atom_site_fract_x
  _atom_site_fract_y
  _atom_site_fract_z
  _atom_site_thermal_displace_type
  _atom_site_B_iso_or_equiv
  _atom_site_type_symbol
  U1       1.0000 0.71786  0.97781  0.62443  Biso   1.000  U
  U2       1.0000 0.69991  0.97125  0.88365  Biso   1.000  U
  U3       1.0000 0.92651  0.92539  0.24699  Biso   1.000  U
  U4       1.0000 0.60350  0.60731  0.74385  Biso   1.000  U
  U5       1.0000 0.53466  0.75860  0.29560  Biso   1.000  U
  P1       1.0000 0.60680  0.41150  0.87420  Biso   1.000  P
  P2       1.0000 0.83780  0.12724  0.82960  Biso   1.000  P
  P3       1.0000 0.53680  0.76810  0.92640  Biso   1.000  P
  P4       1.0000 0.27600  0.00530  0.87743  Biso   1.000  P
  P5       1.0000 0.44010  0.15973  0.31756  Biso   1.000  P
  P6       1.0000 0.72782  0.94406  0.38256  Biso   1.000  P
  P7       1.0000 0.92290  0.14030  0.57830  Biso   1.000  P
  P8       1.0000 0.65290  0.38100  0.61820  Biso   1.000  P
  O1       1.0000 0.75830  0.06560  0.76790  Biso   1.000  O
  O2       1.0000 0.83810  0.07830  0.59480  Biso   1.000  O
  O3       1.0000 0.72120  0.92830  0.47730  Biso   1.000  O
  O4       1.0000 0.82490  0.09610  0.91930  Biso   1.000  O
  O5       1.0000 0.93270  0.12220  0.79900  Biso   1.000  O
  O6       1.0000 0.59840  0.85330  0.91290  Biso   1.000  O
  O7       1.0000 0.56020  0.67680  0.88330  Biso   1.000  O
  O8       1.0000 0.54200  0.76870  0.03030  Biso   1.000  O
  H1       1.0000 0.56910  0.81840  0.05560  Biso   1.000  H
  O9       1.0000 0.83030  0.95450  0.36350  Biso   1.000  O
  O10      1.0000 0.66770  0.86750  0.32150  Biso   1.000  O
  O11      1.0000 0.87860  0.28330  0.37100  Biso   1.000  O
  H2       1.0000 0.91270  0.33230  0.37470  Biso   1.000  H
  O12      1.0000 0.25140  0.03780  0.97100  Biso   1.000  O
  O13      1.0000 0.19660  0.00420  0.80920  Biso   1.000  O
  O14      1.0000 0.36600  0.06530  0.85600  Biso   1.000  O
  H3       1.0000 0.38060  0.10890  0.89610  Biso   1.000  H
  O15      1.0000 0.65300  0.47940  0.65790  Biso   1.000  O
  O16      1.0000 0.61110  0.50230  0.84080  Biso   1.000  O
  O17      1.0000 0.52870  0.33910  0.83690  Biso   1.000  O
  O18      1.0000 0.59790  0.42590  0.97620  Biso   1.000  O
  H4       1.0000 0.61660  0.47980  0.99720  Biso   1.000  H
  O19      1.0000 0.60910  0.30760  0.66700  Biso   1.000  O
  O20      1.0000 0.60440  0.36380  0.52340  Biso   1.000  O
  H5       1.0000 0.61650  0.40970  0.49970  Biso   1.000  H
  O21      1.0000 0.98520  0.57910  0.61390  Biso   1.000  O
  O22      1.0000 0.09540  0.48530  0.62080  Biso   1.000  O
  O23      1.0000 0.19680  0.56980  0.85110  Biso   1.000  O
  H6       1.0000 0.14810  0.53420  0.84680  Biso   1.000  H
  O24      1.0000 0.09410  0.67270  0.84340  Biso   1.000  O
  O25      1.0000 0.94580  0.10960  0.47960  Biso   1.000  O
  H7       1.0000 0.98270  0.14990  0.46470  Biso   1.000  H
  O26      1.0000 0.01010  0.14180  0.63660  Biso   1.000  O
  O27      1.0000 0.04390  0.44780  0.83500  Biso   1.000  O
  O28      1.0000 0.94780  0.55710  0.83820  Biso   1.000  O
  H8       1.0000 0.99630  0.59270  0.84100  Biso   1.000  H
  O29      1.0000 0.38610  0.07410  0.25890  Biso   1.000  O
  O30      1.0000 0.43410  0.24640  0.27890  Biso   1.000  O
  O31      1.0000 0.39830  0.16100  0.40650  Biso   1.000  O
  O32      1.0000 0.76900  0.37580  0.35980  Biso   1.000  O
  C1       1.0000 0.71750  0.36890  0.85910  Biso   1.000  C
  C2       1.0000 0.72840  0.27460  0.85070  Biso   1.000  C
  H9       1.0000 0.67740  0.23090  0.85390  Biso   1.000  H
  C3       1.0000 0.81780  0.24690  0.83740  Biso   1.000  C
  C4       1.0000 0.89380  0.31170  0.83570  Biso   1.000  C
  H10      1.0000 0.95220  0.29260  0.82600  Biso   1.000  H
  C5       1.0000 0.88420  0.40570  0.84830  Biso   1.000  C
  C6       1.0000 0.79440  0.43620  0.85990  Biso   1.000  C
  H11      1.0000 0.78720  0.49880  0.86780  Biso   1.000  H
  C7       1.0000 0.96930  0.47120  0.84850  Biso   1.000  C
  C8       1.0000 0.41750  0.78400  0.89580  Biso   1.000  C
  C9       1.0000 0.34680  0.71050  0.88090  Biso   1.000  C
  H12      1.0000 0.36040  0.65040  0.88270  Biso   1.000  H
  C10      1.0000 0.25620  0.72820  0.86330  Biso   1.000  C
  C11      1.0000 0.23560  0.81660  0.85580  Biso   1.000  C
  H13      1.0000 0.17460  0.82680  0.83970  Biso   1.000  H
  C12      1.0000 0.30630  0.88900  0.87250  Biso   1.000  C
  C13      1.0000 0.39780  0.87330  0.88850  Biso   1.000  C
  H14      1.0000 0.44610  0.92180  0.89440  Biso   1.000  H
  C14      1.0000 0.17720  0.65280  0.85570  Biso   1.000  C
  C15      1.0000 0.56190  0.14640  0.33430  Biso   1.000  C
  C16      1.0000 0.59110  0.06050  0.34900  Biso   1.000  C
  H15      1.0000 0.54690  0.00890  0.34670  Biso   1.000  H
  C17      1.0000 0.68620  0.05340  0.36710  Biso   1.000  C
  C18      1.0000 0.75060  0.13040  0.36950  Biso   1.000  C
  H16      1.0000 0.81430  0.12560  0.37920  Biso   1.000  H
  C19      1.0000 0.72210  0.21410  0.35780  Biso   1.000  C
  C20      1.0000 0.62770  0.22390  0.34140  Biso   1.000  C
  H17      1.0000 0.60900  0.28140  0.33520  Biso   1.000  H
  C21      1.0000 0.79340  0.29800  0.36320  Biso   1.000  C
  C22      1.0000 0.89200  0.25470  0.58780  Biso   1.000  C
  C23      1.0000 0.79810  0.27220  0.59360  Biso   1.000  C
  H18      1.0000 0.75110  0.22250  0.58780  Biso   1.000  H
  C24      1.0000 0.77400  0.36140  0.60780  Biso   1.000  C
  C25      1.0000 0.84170  0.43500  0.61310  Biso   1.000  C
  H19      1.0000 0.82560  0.49490  0.62050  Biso   1.000  H
  C26      1.0000 0.93590  0.41960  0.60740  Biso   1.000  C
  C27      1.0000 0.96090  0.32990  0.59340  Biso   1.000  C
  H20      1.0000 0.02320  0.32060  0.58790  Biso   1.000  H
  C28      1.0000 0.01180  0.50010  0.61700  Biso   1.000  C
  U6       1.0000 0.28214  0.02219  0.37557  Biso   1.000  U
  U7       1.0000 0.30009  0.02875  0.11635  Biso   1.000  U
  U8       1.0000 0.07349  0.07461  0.75301  Biso   1.000  U
  U9       1.0000 0.39650  0.39269  0.25615  Biso   1.000  U
  U10      1.0000 0.46534  0.24140  0.70440  Biso   1.000  U
  P9       1.0000 0.39320  0.58850  0.12580  Biso   1.000  P
  P10      1.0000 0.16220  0.87276  0.17040  Biso   1.000  P
  P11      1.0000 0.46320  0.23190  0.07360  Biso   1.000  P
  P12      1.0000 0.72400  0.99470  0.12257  Biso   1.000  P
  P13      1.0000 0.55990  0.84027  0.68244  Biso   1.000  P
  P14      1.0000 0.27218  0.05594  0.61744  Biso   1.000  P
  P15      1.0000 0.07710  0.85970  0.42170  Biso   1.000  P
  P16      1.0000 0.34710  0.61900  0.38180  Biso   1.000  P
  O33      1.0000 0.24170  0.93440  0.23210  Biso   1.000  O
  O34      1.0000 0.16190  0.92170  0.40520  Biso   1.000  O
  O35      1.0000 0.27880  0.07170  0.52270  Biso   1.000  O
  O36      1.0000 0.17510  0.90390  0.08070  Biso   1.000  O
  O37      1.0000 0.06730  0.87780  0.20100  Biso   1.000  O
  O38      1.0000 0.40160  0.14670  0.08710  Biso   1.000  O
  O39      1.0000 0.43980  0.32320  0.11670  Biso   1.000  O
  O40      1.0000 0.45800  0.23130  0.96970  Biso   1.000  O
  H21      1.0000 0.43090  0.18160  0.94440  Biso   1.000  H
  O41      1.0000 0.16970  0.04550  0.63650  Biso   1.000  O
  O42      1.0000 0.33230  0.13250  0.67850  Biso   1.000  O
  O43      1.0000 0.12140  0.71670  0.62900  Biso   1.000  O
  H22      1.0000 0.08730  0.66770  0.62530  Biso   1.000  H
  O44      1.0000 0.74860  0.96220  0.02900  Biso   1.000  O
  O45      1.0000 0.80340  0.99580  0.19080  Biso   1.000  O
  O46      1.0000 0.63400  0.93470  0.14400  Biso   1.000  O
  H23      1.0000 0.61940  0.89110  0.10390  Biso   1.000  H
  O47      1.0000 0.34700  0.52060  0.34210  Biso   1.000  O
  O48      1.0000 0.38890  0.49770  0.15920  Biso   1.000  O
  O49      1.0000 0.47130  0.66090  0.16310  Biso   1.000  O
  O50      1.0000 0.40210  0.57410  0.02380  Biso   1.000  O
  H24      1.0000 0.38340  0.52020  0.00280  Biso   1.000  H
  O51      1.0000 0.39090  0.69240  0.33300  Biso   1.000  O
  O52      1.0000 0.39560  0.63620  0.47660  Biso   1.000  O
  H25      1.0000 0.38350  0.59030  0.50030  Biso   1.000  H
  O53      1.0000 0.01480  0.42090  0.38610  Biso   1.000  O
  O54      1.0000 0.90460  0.51470  0.37920  Biso   1.000  O
  O55      1.0000 0.80320  0.43020  0.14890  Biso   1.000  O
  H26      1.0000 0.85190  0.46580  0.15320  Biso   1.000  H
  O56      1.0000 0.90590  0.32730  0.15660  Biso   1.000  O
  O57      1.0000 0.05420  0.89040  0.52040  Biso   1.000  O
  H27      1.0000 0.01730  0.85010  0.53530  Biso   1.000  H
  O58      1.0000 0.98990  0.85820  0.36340  Biso   1.000  O
  O59      1.0000 0.95610  0.55220  0.16500  Biso   1.000  O
  O60      1.0000 0.05220  0.44290  0.16180  Biso   1.000  O
  H28      1.0000 0.00370  0.40730  0.15900  Biso   1.000  H
  O61      1.0000 0.61390  0.92590  0.74110  Biso   1.000  O
  O62      1.0000 0.56590  0.75360  0.72110  Biso   1.000  O
  O63      1.0000 0.60170  0.83900  0.59350  Biso   1.000  O
  O64      1.0000 0.23100  0.62420  0.64020  Biso   1.000  O
  C29      1.0000 0.28250  0.63110  0.14090  Biso   1.000  C
  C30      1.0000 0.27160  0.72540  0.14930  Biso   1.000  C
  H29      1.0000 0.32260  0.76910  0.14610  Biso   1.000  H
  C31      1.0000 0.18220  0.75310  0.16260  Biso   1.000  C
  C32      1.0000 0.10620  0.68830  0.16430  Biso   1.000  C
  H30      1.0000 0.04780  0.70740  0.17400  Biso   1.000  H
  C33      1.0000 0.11580  0.59430  0.15170  Biso   1.000  C
  C34      1.0000 0.20560  0.56380  0.14010  Biso   1.000  C
  H31      1.0000 0.21280  0.50120  0.13220  Biso   1.000  H
  C35      1.0000 0.03070  0.52880  0.15150  Biso   1.000  C
  C36      1.0000 0.58250  0.21600  0.10420  Biso   1.000  C
  C37      1.0000 0.65320  0.28950  0.11910  Biso   1.000  C
  H32      1.0000 0.63960  0.34960  0.11730  Biso   1.000  H
  C38      1.0000 0.74380  0.27180  0.13670  Biso   1.000  C
  C39      1.0000 0.76440  0.18340  0.14420  Biso   1.000  C
  H33      1.0000 0.82540  0.17320  0.16030  Biso   1.000  H
  C40      1.0000 0.69370  0.11100  0.12750  Biso   1.000  C
  C41      1.0000 0.60220  0.12670  0.11150  Biso   1.000  C
  H34      1.0000 0.55390  0.07820  0.10560  Biso   1.000  H
  C42      1.0000 0.82280  0.34720  0.14430  Biso   1.000  C
  C43      1.0000 0.43810  0.85360  0.66570  Biso   1.000  C
  C44      1.0000 0.40890  0.93950  0.65100  Biso   1.000  C
  H35      1.0000 0.45310  0.99110  0.65330  Biso   1.000  H
  C45      1.0000 0.31380  0.94660  0.63290  Biso   1.000  C
  C46      1.0000 0.24940  0.86960  0.63050  Biso   1.000  C
  H36      1.0000 0.18570  0.87440  0.62080  Biso   1.000  H
  C47      1.0000 0.27790  0.78590  0.64220  Biso   1.000  C
  C48      1.0000 0.37230  0.77610  0.65860  Biso   1.000  C
  H37      1.0000 0.39100  0.71860  0.66480  Biso   1.000  H
  C49      1.0000 0.20660  0.70200  0.63680  Biso   1.000  C
  C50      1.0000 0.10800  0.74530  0.41220  Biso   1.000  C
  C51      1.0000 0.20190  0.72780  0.40640  Biso   1.000  C
  H38      1.0000 0.24890  0.77750  0.41220  Biso   1.000  H
  C52      1.0000 0.22600  0.63860  0.39220  Biso   1.000  C
  C53      1.0000 0.15830  0.56500  0.38690  Biso   1.000  C
  H39      1.0000 0.17440  0.50510  0.37950  Biso   1.000  H
  C54      1.0000 0.06410  0.58040  0.39260  Biso   1.000  C
  C55      1.0000 0.03910  0.67010  0.40660  Biso   1.000  C
  H40      1.0000 0.97680  0.67940  0.41210  Biso   1.000  H
  C56      1.0000 0.98820  0.49990  0.38300  Biso   1.000  C
