data_image0
_cell_length_a       14.8008
_cell_length_b       12.2543
_cell_length_c       30.2243
_cell_angle_alpha    90
_cell_angle_beta     90.991
_cell_angle_gamma    90

_symmetry_space_group_name_H-M    "P 1"
_symmetry_int_tables_number       1

loop_
  _symmetry_equiv_pos_as_xyz
  'x, y, z'

loop_
  _atom_site_label
  _atom_site_occupancy
  _atom_site_fract_x
  _atom_site_fract_y
  _atom_site_fract_z
  _atom_site_thermal_displace_type
  _atom_site_B_iso_or_equiv
  _atom_site_type_symbol
  U1       1.0000 0.45495  0.67133  0.23476  Biso   1.000  U
  U2       1.0000 0.53319  0.35956  0.07635  Biso   1.000  U
  U3       1.0000 0.74841  0.42695  0.24292  Biso   1.000  U
  P1       1.0000 0.98000  0.89560  0.30250  Biso   1.000  P
  P2       1.0000 0.97640  0.44840  0.29164  Biso   1.000  P
  P3       1.0000 0.69480  0.68430  0.19599  Biso   1.000  P
  P4       1.0000 0.47520  0.63590  0.04756  Biso   1.000  P
  O1       1.0000 0.60470  0.67710  0.21850  Biso   1.000  O
  O2       1.0000 0.30980  0.58340  0.24950  Biso   1.000  O
  O3       1.0000 0.31200  0.76160  0.25410  Biso   1.000  O
  O4       1.0000 0.74590  0.57560  0.19780  Biso   1.000  O
  O5       1.0000 0.75340  0.77510  0.21370  Biso   1.000  O
  O6       1.0000 0.83400  0.92000  0.06630  Biso   1.000  O
  O7       1.0000 0.72800  0.93600  0.01150  Biso   1.000  O
  O8       1.0000 0.48870  0.64100  0.99870  Biso   1.000  O
  O9       1.0000 0.39340  0.70900  0.05960  Biso   1.000  O
  O10      1.0000 0.46060  0.52480  0.06620  Biso   1.000  O
  O11      1.0000 0.01950  0.98700  0.27610  Biso   1.000  O
  O12      1.0000 0.99080  0.91430  0.35210  Biso   1.000  O
  O13      1.0000 0.88050  0.87350  0.29150  Biso   1.000  O
  O14      1.0000 0.87820  0.47410  0.28060  Biso   1.000  O
  O15      1.0000 0.98310  0.41700  0.34100  Biso   1.000  O
  O16      1.0000 0.02140  0.36080  0.26490  Biso   1.000  O
  C1       1.0000 0.26980  0.67090  0.25710  Biso   1.000  C
  C2       1.0000 0.17280  0.67260  0.27020  Biso   1.000  C
  C3       1.0000 0.12930  0.77090  0.27780  Biso   1.000  C
  H1       1.0000 0.16030  0.83640  0.27490  Biso   1.000  H
  C4       1.0000 0.03940  0.77080  0.28960  Biso   1.000  C
  C5       1.0000 0.99330  0.67160  0.29280  Biso   1.000  C
  H2       1.0000 0.93240  0.67100  0.29990  Biso   1.000  H
  C6       1.0000 0.03860  0.57330  0.28540  Biso   1.000  C
  C7       1.0000 0.12750  0.57380  0.27420  Biso   1.000  C
  H3       1.0000 0.15770  0.50840  0.26930  Biso   1.000  H
  C8       1.0000 0.76000  0.89900  0.04890  Biso   1.000  C
  C9       1.0000 0.69830  0.81740  0.07250  Biso   1.000  C
  C10      1.0000 0.72260  0.79250  0.11650  Biso   1.000  C
  H4       1.0000 0.77200  0.82620  0.13020  Biso   1.000  H
  C11      1.0000 0.67050  0.71550  0.13950  Biso   1.000  C
  C12      1.0000 0.59800  0.66870  0.11720  Biso   1.000  C
  H5       1.0000 0.56350  0.61760  0.13220  Biso   1.000  H
  C13      1.0000 0.57330  0.69370  0.07340  Biso   1.000  C
  C14      1.0000 0.62460  0.76740  0.05110  Biso   1.000  C
  H6       1.0000 0.61060  0.78430  0.02170  Biso   1.000  H
  U4       1.0000 0.04505  0.17133  0.26524  Biso   1.000  U
  U5       1.0000 0.96681  0.85956  0.42365  Biso   1.000  U
  U6       1.0000 0.75159  0.92695  0.25708  Biso   1.000  U
  P5       1.0000 0.52000  0.39560  0.19750  Biso   1.000  P
  P6       1.0000 0.52360  0.94840  0.20836  Biso   1.000  P
  P7       1.0000 0.80520  0.18430  0.30401  Biso   1.000  P
  P8       1.0000 0.02480  0.13590  0.45244  Biso   1.000  P
  O17      1.0000 0.89530  0.17710  0.28150  Biso   1.000  O
  O18      1.0000 0.19020  0.08340  0.25050  Biso   1.000  O
  O19      1.0000 0.18800  0.26160  0.24590  Biso   1.000  O
  O20      1.0000 0.75410  0.07560  0.30220  Biso   1.000  O
  O21      1.0000 0.74660  0.27510  0.28630  Biso   1.000  O
  O22      1.0000 0.66600  0.42000  0.43370  Biso   1.000  O
  O23      1.0000 0.77200  0.43600  0.48850  Biso   1.000  O
  O24      1.0000 0.01130  0.14100  0.50130  Biso   1.000  O
  O25      1.0000 0.10660  0.20900  0.44040  Biso   1.000  O
  O26      1.0000 0.03940  0.02480  0.43380  Biso   1.000  O
  O27      1.0000 0.48050  0.48700  0.22390  Biso   1.000  O
  O28      1.0000 0.50920  0.41430  0.14790  Biso   1.000  O
  O29      1.0000 0.61950  0.37350  0.20850  Biso   1.000  O
  O30      1.0000 0.62180  0.97410  0.21940  Biso   1.000  O
  O31      1.0000 0.51690  0.91700  0.15900  Biso   1.000  O
  O32      1.0000 0.47860  0.86080  0.23510  Biso   1.000  O
  C15      1.0000 0.23020  0.17090  0.24290  Biso   1.000  C
  C16      1.0000 0.32720  0.17260  0.22980  Biso   1.000  C
  C17      1.0000 0.37070  0.27090  0.22220  Biso   1.000  C
  H7       1.0000 0.33970  0.33640  0.22510  Biso   1.000  H
  C18      1.0000 0.46060  0.27080  0.21040  Biso   1.000  C
  C19      1.0000 0.50670  0.17160  0.20720  Biso   1.000  C
  H8       1.0000 0.56760  0.17100  0.20010  Biso   1.000  H
  C20      1.0000 0.46140  0.07330  0.21460  Biso   1.000  C
  C21      1.0000 0.37250  0.07380  0.22580  Biso   1.000  C
  H9       1.0000 0.34230  0.00840  0.23070  Biso   1.000  H
  C22      1.0000 0.74000  0.39900  0.45110  Biso   1.000  C
  C23      1.0000 0.80170  0.31740  0.42750  Biso   1.000  C
  C24      1.0000 0.77740  0.29250  0.38350  Biso   1.000  C
  H10      1.0000 0.72800  0.32620  0.36980  Biso   1.000  H
  C25      1.0000 0.82950  0.21550  0.36050  Biso   1.000  C
  C26      1.0000 0.90200  0.16870  0.38280  Biso   1.000  C
  H11      1.0000 0.93650  0.11760  0.36780  Biso   1.000  H
  C27      1.0000 0.92670  0.19370  0.42660  Biso   1.000  C
  C28      1.0000 0.87540  0.26740  0.44890  Biso   1.000  C
  H12      1.0000 0.88940  0.28430  0.47830  Biso   1.000  H
  U7       1.0000 0.54505  0.32867  0.76524  Biso   1.000  U
  U8       1.0000 0.46681  0.64044  0.92365  Biso   1.000  U
  U9       1.0000 0.25159  0.57305  0.75708  Biso   1.000  U
  P9       1.0000 0.02000  0.10440  0.69750  Biso   1.000  P
  P10      1.0000 0.02360  0.55160  0.70836  Biso   1.000  P
  P11      1.0000 0.30520  0.31570  0.80401  Biso   1.000  P
  P12      1.0000 0.52480  0.36410  0.95244  Biso   1.000  P
  O33      1.0000 0.39530  0.32290  0.78150  Biso   1.000  O
  O34      1.0000 0.69020  0.41660  0.75050  Biso   1.000  O
  O35      1.0000 0.68800  0.23840  0.74590  Biso   1.000  O
  O36      1.0000 0.25410  0.42440  0.80220  Biso   1.000  O
  O37      1.0000 0.24660  0.22490  0.78630  Biso   1.000  O
  O38      1.0000 0.16600  0.08000  0.93370  Biso   1.000  O
  O39      1.0000 0.27200  0.06400  0.98850  Biso   1.000  O
  O40      1.0000 0.51130  0.35900  0.00130  Biso   1.000  O
  O41      1.0000 0.60660  0.29100  0.94040  Biso   1.000  O
  O42      1.0000 0.53940  0.47520  0.93380  Biso   1.000  O
  O43      1.0000 0.98050  0.01300  0.72390  Biso   1.000  O
  O44      1.0000 0.00920  0.08570  0.64790  Biso   1.000  O
  O45      1.0000 0.11950  0.12650  0.70850  Biso   1.000  O
  O46      1.0000 0.12180  0.52590  0.71940  Biso   1.000  O
  O47      1.0000 0.01690  0.58300  0.65900  Biso   1.000  O
  O48      1.0000 0.97860  0.63920  0.73510  Biso   1.000  O
  C29      1.0000 0.73020  0.32910  0.74290  Biso   1.000  C
  C30      1.0000 0.82720  0.32740  0.72980  Biso   1.000  C
  C31      1.0000 0.87070  0.22910  0.72220  Biso   1.000  C
  H13      1.0000 0.83970  0.16360  0.72510  Biso   1.000  H
  C32      1.0000 0.96060  0.22920  0.71040  Biso   1.000  C
  C33      1.0000 0.00670  0.32840  0.70720  Biso   1.000  C
  H14      1.0000 0.06760  0.32900  0.70010  Biso   1.000  H
  C34      1.0000 0.96140  0.42670  0.71460  Biso   1.000  C
  C35      1.0000 0.87250  0.42620  0.72580  Biso   1.000  C
  H15      1.0000 0.84230  0.49160  0.73070  Biso   1.000  H
  C36      1.0000 0.24000  0.10100  0.95110  Biso   1.000  C
  C37      1.0000 0.30170  0.18260  0.92750  Biso   1.000  C
  C38      1.0000 0.27740  0.20750  0.88350  Biso   1.000  C
  H16      1.0000 0.22800  0.17380  0.86980  Biso   1.000  H
  C39      1.0000 0.32950  0.28450  0.86050  Biso   1.000  C
  C40      1.0000 0.40200  0.33130  0.88280  Biso   1.000  C
  H17      1.0000 0.43650  0.38240  0.86780  Biso   1.000  H
  C41      1.0000 0.42670  0.30630  0.92660  Biso   1.000  C
  C42      1.0000 0.37540  0.23260  0.94890  Biso   1.000  C
  H18      1.0000 0.38940  0.21570  0.97830  Biso   1.000  H
  U10      1.0000 0.95495  0.82867  0.73476  Biso   1.000  U
  U11      1.0000 0.03319  0.14044  0.57635  Biso   1.000  U
  U12      1.0000 0.24841  0.07305  0.74291  Biso   1.000  U
  P13      1.0000 0.48000  0.60440  0.80250  Biso   1.000  P
  P14      1.0000 0.47640  0.05160  0.79164  Biso   1.000  P
  P15      1.0000 0.19480  0.81570  0.69599  Biso   1.000  P
  P16      1.0000 0.97520  0.86410  0.54756  Biso   1.000  P
  O49      1.0000 0.10470  0.82290  0.71850  Biso   1.000  O
  O50      1.0000 0.80980  0.91660  0.74950  Biso   1.000  O
  O51      1.0000 0.81200  0.73840  0.75410  Biso   1.000  O
  O52      1.0000 0.24590  0.92440  0.69780  Biso   1.000  O
  O53      1.0000 0.25340  0.72490  0.71370  Biso   1.000  O
  O54      1.0000 0.33400  0.58000  0.56630  Biso   1.000  O
  O55      1.0000 0.22800  0.56400  0.51150  Biso   1.000  O
  O56      1.0000 0.98870  0.85900  0.49870  Biso   1.000  O
  O57      1.0000 0.89340  0.79100  0.55960  Biso   1.000  O
  O58      1.0000 0.96060  0.97520  0.56620  Biso   1.000  O
  O59      1.0000 0.51950  0.51300  0.77610  Biso   1.000  O
  O60      1.0000 0.49080  0.58570  0.85210  Biso   1.000  O
  O61      1.0000 0.38050  0.62650  0.79150  Biso   1.000  O
  O62      1.0000 0.37820  0.02590  0.78060  Biso   1.000  O
  O63      1.0000 0.48310  0.08300  0.84100  Biso   1.000  O
  O64      1.0000 0.52140  0.13920  0.76490  Biso   1.000  O
  C43      1.0000 0.76980  0.82910  0.75710  Biso   1.000  C
  C44      1.0000 0.67280  0.82740  0.77020  Biso   1.000  C
  C45      1.0000 0.62930  0.72910  0.77780  Biso   1.000  C
  H19      1.0000 0.66030  0.66360  0.77490  Biso   1.000  H
  C46      1.0000 0.53940  0.72920  0.78960  Biso   1.000  C
  C47      1.0000 0.49330  0.82840  0.79280  Biso   1.000  C
  H20      1.0000 0.43240  0.82900  0.79990  Biso   1.000  H
  C48      1.0000 0.53860  0.92670  0.78540  Biso   1.000  C
  C49      1.0000 0.62750  0.92620  0.77420  Biso   1.000  C
  H21      1.0000 0.65770  0.99160  0.76930  Biso   1.000  H
  C50      1.0000 0.26000  0.60100  0.54890  Biso   1.000  C
  C51      1.0000 0.19830  0.68260  0.57250  Biso   1.000  C
  C52      1.0000 0.22260  0.70750  0.61650  Biso   1.000  C
  H22      1.0000 0.27200  0.67380  0.63020  Biso   1.000  H
  C53      1.0000 0.17050  0.78450  0.63950  Biso   1.000  C
  C54      1.0000 0.09800  0.83130  0.61720  Biso   1.000  C
  H23      1.0000 0.06350  0.88240  0.63220  Biso   1.000  H
  C55      1.0000 0.07330  0.80630  0.57340  Biso   1.000  C
  C56      1.0000 0.12460  0.73260  0.55110  Biso   1.000  C
  H24      1.0000 0.11060  0.71570  0.52170  Biso   1.000  H
