data_image0
_cell_length_a       17.0298
_cell_length_b       18.8904
_cell_length_c       16.7611
_cell_angle_alpha    90
_cell_angle_beta     112.447
_cell_angle_gamma    90

_symmetry_space_group_name_H-M    "P 1"
_symmetry_int_tables_number       1

loop_
  _symmetry_equiv_pos_as_xyz
  'x, y, z'

loop_
  _atom_site_label
  _atom_site_occupancy
  _atom_site_fract_x
  _atom_site_fract_y
  _atom_site_fract_z
  _atom_site_thermal_displace_type
  _atom_site_B_iso_or_equiv
  _atom_site_type_symbol
  Zn1      1.0000 0.24828  0.37168  0.41939  Biso   1.000  Zn
  Li1      1.0000 0.08210  0.38330  0.24700  Biso   1.000  Li
  N1       1.0000 0.34165  0.36492  0.53979  Biso   1.000  N
  C1       1.0000 0.38743  0.30652  0.57197  Biso   1.000  C
  H1       1.0000 0.37660  0.26540  0.53670  Biso   1.000  H
  C2       1.0000 0.44937  0.30342  0.65382  Biso   1.000  C
  H2       1.0000 0.48020  0.26090  0.67440  Biso   1.000  H
  C3       1.0000 0.46640  0.36324  0.70605  Biso   1.000  C
  C4       1.0000 0.41859  0.42355  0.67277  Biso   1.000  C
  H3       1.0000 0.42800  0.46540  0.70660  Biso   1.000  H
  C5       1.0000 0.35733  0.42239  0.59030  Biso   1.000  C
  H4       1.0000 0.32490  0.46400  0.56840  Biso   1.000  H
  O1       1.0000 0.25717  0.28280  0.36914  Biso   1.000  O
  O2       1.0000 0.14348  0.29964  0.24782  Biso   1.000  O
  O3       1.0000 0.34427  0.96140  0.22616  Biso   1.000  O
  O4       1.0000 0.21846  0.96051  0.11749  Biso   1.000  O
  C6       1.0000 0.20541  0.26363  0.29422  Biso   1.000  C
  C7       1.0000 0.22292  0.19315  0.26407  Biso   1.000  C
  C8       1.0000 0.17542  0.16997  0.18100  Biso   1.000  C
  C9       1.0000 0.19020  0.10297  0.15380  Biso   1.000  C
  C10      1.0000 0.25406  0.05990  0.21011  Biso   1.000  C
  C11      1.0000 0.30069  0.08420  0.29301  Biso   1.000  C
  H5       1.0000 0.34400  0.05510  0.33170  Biso   1.000  H
  C12      1.0000 0.28544  0.14941  0.32005  Biso   1.000  C
  H6       1.0000 0.31770  0.16480  0.37720  Biso   1.000  H
  C13      1.0000 0.27466  0.98939  0.18394  Biso   1.000  C
  N2       1.0000 0.12390  0.21230  0.11440  Biso   1.000  N
  H7       1.0000 0.11940  0.25780  0.12310  Biso   1.000  H
  H8       1.0000 0.09560  0.19370  0.06320  Biso   1.000  H
  O5       1.0000 0.15492  0.39447  0.45399  Biso   1.000  O
  O6       1.0000 0.03291  0.38226  0.34054  Biso   1.000  O
  C14      1.0000 0.07665  0.40677  0.41375  Biso   1.000  C
  C15      1.0000 0.03646  0.45406  0.45868  Biso   1.000  C
  C16      1.0000 0.95253  0.44400  0.45042  Biso   1.000  C
  C17      1.0000 0.91605  0.48951  0.49123  Biso   1.000  C
  N3       1.0000 0.90150  0.39220  0.40560  Biso   1.000  N
  H9       1.0000 0.84930  0.38920  0.40390  Biso   1.000  H
  H10      1.0000 0.91990  0.36110  0.37780  Biso   1.000  H
  N4       1.0000 0.83770  0.46810  0.48850  Biso   1.000  N
  H11      1.0000 0.81510  0.42840  0.46230  Biso   1.000  H
  H12      1.0000 0.81030  0.49410  0.51300  Biso   1.000  H
  N5       1.0000 0.13190  0.08230  0.07290  Biso   1.000  N
  H13      1.0000 0.13380  0.03920  0.05390  Biso   1.000  H
  H14      1.0000 0.09330  0.11250  0.04100  Biso   1.000  H
  Zn2      1.0000 0.74828  0.87168  0.41939  Biso   1.000  Zn
  Li2      1.0000 0.58210  0.88330  0.24700  Biso   1.000  Li
  N6       1.0000 0.84165  0.86492  0.53979  Biso   1.000  N
  C18      1.0000 0.88743  0.80652  0.57197  Biso   1.000  C
  H15      1.0000 0.87660  0.76540  0.53670  Biso   1.000  H
  C19      1.0000 0.94937  0.80342  0.65382  Biso   1.000  C
  H16      1.0000 0.98020  0.76090  0.67440  Biso   1.000  H
  C20      1.0000 0.96640  0.86324  0.70605  Biso   1.000  C
  C21      1.0000 0.91859  0.92355  0.67277  Biso   1.000  C
  H17      1.0000 0.92800  0.96540  0.70660  Biso   1.000  H
  C22      1.0000 0.85733  0.92239  0.59030  Biso   1.000  C
  H18      1.0000 0.82490  0.96400  0.56840  Biso   1.000  H
  O7       1.0000 0.75717  0.78280  0.36914  Biso   1.000  O
  O8       1.0000 0.64348  0.79964  0.24782  Biso   1.000  O
  O9       1.0000 0.84427  0.46140  0.22616  Biso   1.000  O
  O10      1.0000 0.71846  0.46051  0.11749  Biso   1.000  O
  C23      1.0000 0.70541  0.76363  0.29422  Biso   1.000  C
  C24      1.0000 0.72292  0.69315  0.26407  Biso   1.000  C
  C25      1.0000 0.67542  0.66997  0.18100  Biso   1.000  C
  C26      1.0000 0.69020  0.60297  0.15380  Biso   1.000  C
  C27      1.0000 0.75406  0.55990  0.21011  Biso   1.000  C
  C28      1.0000 0.80069  0.58420  0.29301  Biso   1.000  C
  H19      1.0000 0.84400  0.55510  0.33170  Biso   1.000  H
  C29      1.0000 0.78544  0.64941  0.32005  Biso   1.000  C
  H20      1.0000 0.81770  0.66480  0.37720  Biso   1.000  H
  C30      1.0000 0.77466  0.48939  0.18394  Biso   1.000  C
  N7       1.0000 0.62390  0.71230  0.11440  Biso   1.000  N
  H21      1.0000 0.61940  0.75780  0.12310  Biso   1.000  H
  H22      1.0000 0.59560  0.69370  0.06320  Biso   1.000  H
  O11      1.0000 0.65492  0.89447  0.45399  Biso   1.000  O
  O12      1.0000 0.53291  0.88226  0.34054  Biso   1.000  O
  C31      1.0000 0.57665  0.90677  0.41375  Biso   1.000  C
  C32      1.0000 0.53646  0.95406  0.45868  Biso   1.000  C
  C33      1.0000 0.45253  0.94400  0.45042  Biso   1.000  C
  C34      1.0000 0.41605  0.98951  0.49123  Biso   1.000  C
  N8       1.0000 0.40150  0.89220  0.40560  Biso   1.000  N
  H23      1.0000 0.34930  0.88920  0.40390  Biso   1.000  H
  H24      1.0000 0.41990  0.86110  0.37780  Biso   1.000  H
  N9       1.0000 0.33770  0.96810  0.48850  Biso   1.000  N
  H25      1.0000 0.31510  0.92840  0.46230  Biso   1.000  H
  H26      1.0000 0.31030  0.99410  0.51300  Biso   1.000  H
  N10      1.0000 0.63190  0.58230  0.07290  Biso   1.000  N
  H27      1.0000 0.63380  0.53920  0.05390  Biso   1.000  H
  H28      1.0000 0.59330  0.61250  0.04100  Biso   1.000  H
  Zn3      1.0000 0.75172  0.37168  0.08061  Biso   1.000  Zn
  Li3      1.0000 0.91790  0.38330  0.25300  Biso   1.000  Li
  N11      1.0000 0.65835  0.36492  0.96021  Biso   1.000  N
  C35      1.0000 0.61257  0.30652  0.92803  Biso   1.000  C
  H29      1.0000 0.62340  0.26540  0.96330  Biso   1.000  H
  C36      1.0000 0.55063  0.30342  0.84618  Biso   1.000  C
  H30      1.0000 0.51980  0.26090  0.82560  Biso   1.000  H
  C37      1.0000 0.53360  0.36324  0.79395  Biso   1.000  C
  C38      1.0000 0.58141  0.42355  0.82723  Biso   1.000  C
  H31      1.0000 0.57200  0.46540  0.79340  Biso   1.000  H
  C39      1.0000 0.64267  0.42239  0.90970  Biso   1.000  C
  H32      1.0000 0.67510  0.46400  0.93160  Biso   1.000  H
  O13      1.0000 0.74283  0.28280  0.13086  Biso   1.000  O
  O14      1.0000 0.85652  0.29964  0.25218  Biso   1.000  O
  O15      1.0000 0.65573  0.96140  0.27384  Biso   1.000  O
  O16      1.0000 0.78154  0.96051  0.38251  Biso   1.000  O
  C40      1.0000 0.79459  0.26363  0.20578  Biso   1.000  C
  C41      1.0000 0.77708  0.19315  0.23593  Biso   1.000  C
  C42      1.0000 0.82458  0.16997  0.31900  Biso   1.000  C
  C43      1.0000 0.80980  0.10297  0.34620  Biso   1.000  C
  C44      1.0000 0.74594  0.05990  0.28989  Biso   1.000  C
  C45      1.0000 0.69931  0.08420  0.20699  Biso   1.000  C
  H33      1.0000 0.65600  0.05510  0.16830  Biso   1.000  H
  C46      1.0000 0.71456  0.14941  0.17995  Biso   1.000  C
  H34      1.0000 0.68230  0.16480  0.12280  Biso   1.000  H
  C47      1.0000 0.72534  0.98939  0.31606  Biso   1.000  C
  N12      1.0000 0.87610  0.21230  0.38560  Biso   1.000  N
  H35      1.0000 0.88060  0.25780  0.37690  Biso   1.000  H
  H36      1.0000 0.90440  0.19370  0.43680  Biso   1.000  H
  O17      1.0000 0.84508  0.39447  0.04601  Biso   1.000  O
  O18      1.0000 0.96709  0.38226  0.15946  Biso   1.000  O
  C48      1.0000 0.92335  0.40677  0.08625  Biso   1.000  C
  C49      1.0000 0.96354  0.45406  0.04132  Biso   1.000  C
  C50      1.0000 0.04747  0.44400  0.04958  Biso   1.000  C
  C51      1.0000 0.08395  0.48951  0.00877  Biso   1.000  C
  N13      1.0000 0.09850  0.39220  0.09440  Biso   1.000  N
  H37      1.0000 0.15070  0.38920  0.09610  Biso   1.000  H
  H38      1.0000 0.08010  0.36110  0.12220  Biso   1.000  H
  N14      1.0000 0.16230  0.46810  0.01150  Biso   1.000  N
  H39      1.0000 0.18490  0.42840  0.03770  Biso   1.000  H
  H40      1.0000 0.18970  0.49410  0.98700  Biso   1.000  H
  N15      1.0000 0.86810  0.08230  0.42710  Biso   1.000  N
  H41      1.0000 0.86620  0.03920  0.44610  Biso   1.000  H
  H42      1.0000 0.90670  0.11250  0.45900  Biso   1.000  H
  Zn4      1.0000 0.25172  0.87168  0.08061  Biso   1.000  Zn
  Li4      1.0000 0.41790  0.88330  0.25300  Biso   1.000  Li
  N16      1.0000 0.15835  0.86492  0.96021  Biso   1.000  N
  C52      1.0000 0.11257  0.80652  0.92803  Biso   1.000  C
  H43      1.0000 0.12340  0.76540  0.96330  Biso   1.000  H
  C53      1.0000 0.05063  0.80342  0.84618  Biso   1.000  C
  H44      1.0000 0.01980  0.76090  0.82560  Biso   1.000  H
  C54      1.0000 0.03360  0.86324  0.79395  Biso   1.000  C
  C55      1.0000 0.08141  0.92355  0.82723  Biso   1.000  C
  H45      1.0000 0.07200  0.96540  0.79340  Biso   1.000  H
  C56      1.0000 0.14267  0.92239  0.90970  Biso   1.000  C
  H46      1.0000 0.17510  0.96400  0.93160  Biso   1.000  H
  O19      1.0000 0.24283  0.78280  0.13086  Biso   1.000  O
  O20      1.0000 0.35652  0.79964  0.25218  Biso   1.000  O
  O21      1.0000 0.15573  0.46140  0.27384  Biso   1.000  O
  O22      1.0000 0.28154  0.46051  0.38251  Biso   1.000  O
  C57      1.0000 0.29459  0.76363  0.20578  Biso   1.000  C
  C58      1.0000 0.27708  0.69315  0.23593  Biso   1.000  C
  C59      1.0000 0.32458  0.66997  0.31900  Biso   1.000  C
  C60      1.0000 0.30980  0.60297  0.34620  Biso   1.000  C
  C61      1.0000 0.24594  0.55990  0.28989  Biso   1.000  C
  C62      1.0000 0.19931  0.58420  0.20699  Biso   1.000  C
  H47      1.0000 0.15600  0.55510  0.16830  Biso   1.000  H
  C63      1.0000 0.21456  0.64941  0.17995  Biso   1.000  C
  H48      1.0000 0.18230  0.66480  0.12280  Biso   1.000  H
  C64      1.0000 0.22534  0.48939  0.31606  Biso   1.000  C
  N17      1.0000 0.37610  0.71230  0.38560  Biso   1.000  N
  H49      1.0000 0.38060  0.75780  0.37690  Biso   1.000  H
  H50      1.0000 0.40440  0.69370  0.43680  Biso   1.000  H
  O23      1.0000 0.34508  0.89447  0.04601  Biso   1.000  O
  O24      1.0000 0.46709  0.88226  0.15946  Biso   1.000  O
  C65      1.0000 0.42335  0.90677  0.08625  Biso   1.000  C
  C66      1.0000 0.46354  0.95406  0.04132  Biso   1.000  C
  C67      1.0000 0.54747  0.94400  0.04958  Biso   1.000  C
  C68      1.0000 0.58395  0.98951  0.00877  Biso   1.000  C
  N18      1.0000 0.59850  0.89220  0.09440  Biso   1.000  N
  H51      1.0000 0.65070  0.88920  0.09610  Biso   1.000  H
  H52      1.0000 0.58010  0.86110  0.12220  Biso   1.000  H
  N19      1.0000 0.66230  0.96810  0.01150  Biso   1.000  N
  H53      1.0000 0.68490  0.92840  0.03770  Biso   1.000  H
  H54      1.0000 0.68970  0.99410  0.98700  Biso   1.000  H
  N20      1.0000 0.36810  0.58230  0.42710  Biso   1.000  N
  H55      1.0000 0.36620  0.53920  0.44610  Biso   1.000  H
  H56      1.0000 0.40670  0.61250  0.45900  Biso   1.000  H
  Zn5      1.0000 0.75172  0.62832  0.58061  Biso   1.000  Zn
  Li5      1.0000 0.91790  0.61670  0.75300  Biso   1.000  Li
  N21      1.0000 0.65835  0.63508  0.46021  Biso   1.000  N
  C69      1.0000 0.61257  0.69348  0.42803  Biso   1.000  C
  H57      1.0000 0.62340  0.73460  0.46330  Biso   1.000  H
  C70      1.0000 0.55063  0.69658  0.34618  Biso   1.000  C
  H58      1.0000 0.51980  0.73910  0.32560  Biso   1.000  H
  C71      1.0000 0.53360  0.63676  0.29395  Biso   1.000  C
  C72      1.0000 0.58141  0.57645  0.32723  Biso   1.000  C
  H59      1.0000 0.57200  0.53460  0.29340  Biso   1.000  H
  C73      1.0000 0.64267  0.57761  0.40970  Biso   1.000  C
  H60      1.0000 0.67510  0.53600  0.43160  Biso   1.000  H
  O25      1.0000 0.74283  0.71720  0.63086  Biso   1.000  O
  O26      1.0000 0.85652  0.70036  0.75218  Biso   1.000  O
  O27      1.0000 0.65573  0.03860  0.77384  Biso   1.000  O
  O28      1.0000 0.78154  0.03949  0.88251  Biso   1.000  O
  C74      1.0000 0.79459  0.73637  0.70578  Biso   1.000  C
  C75      1.0000 0.77708  0.80685  0.73593  Biso   1.000  C
  C76      1.0000 0.82458  0.83003  0.81900  Biso   1.000  C
  C77      1.0000 0.80980  0.89703  0.84620  Biso   1.000  C
  C78      1.0000 0.74594  0.94010  0.78989  Biso   1.000  C
  C79      1.0000 0.69931  0.91580  0.70699  Biso   1.000  C
  H61      1.0000 0.65600  0.94490  0.66830  Biso   1.000  H
  C80      1.0000 0.71456  0.85059  0.67995  Biso   1.000  C
  H62      1.0000 0.68230  0.83520  0.62280  Biso   1.000  H
  C81      1.0000 0.72534  0.01061  0.81606  Biso   1.000  C
  N22      1.0000 0.87610  0.78770  0.88560  Biso   1.000  N
  H63      1.0000 0.88060  0.74220  0.87690  Biso   1.000  H
  H64      1.0000 0.90440  0.80630  0.93680  Biso   1.000  H
  O29      1.0000 0.84508  0.60553  0.54601  Biso   1.000  O
  O30      1.0000 0.96709  0.61774  0.65946  Biso   1.000  O
  C82      1.0000 0.92335  0.59323  0.58625  Biso   1.000  C
  C83      1.0000 0.96354  0.54594  0.54132  Biso   1.000  C
  C84      1.0000 0.04747  0.55600  0.54958  Biso   1.000  C
  C85      1.0000 0.08395  0.51049  0.50877  Biso   1.000  C
  N23      1.0000 0.09850  0.60780  0.59440  Biso   1.000  N
  H65      1.0000 0.15070  0.61080  0.59610  Biso   1.000  H
  H66      1.0000 0.08010  0.63890  0.62220  Biso   1.000  H
  N24      1.0000 0.16230  0.53190  0.51150  Biso   1.000  N
  H67      1.0000 0.18490  0.57160  0.53770  Biso   1.000  H
  H68      1.0000 0.18970  0.50590  0.48700  Biso   1.000  H
  N25      1.0000 0.86810  0.91770  0.92710  Biso   1.000  N
  H69      1.0000 0.86620  0.96080  0.94610  Biso   1.000  H
  H70      1.0000 0.90670  0.88750  0.95900  Biso   1.000  H
  Zn6      1.0000 0.25172  0.12832  0.58061  Biso   1.000  Zn
  Li6      1.0000 0.41790  0.11670  0.75300  Biso   1.000  Li
  N26      1.0000 0.15835  0.13508  0.46021  Biso   1.000  N
  C86      1.0000 0.11257  0.19348  0.42803  Biso   1.000  C
  H71      1.0000 0.12340  0.23460  0.46330  Biso   1.000  H
  C87      1.0000 0.05063  0.19658  0.34618  Biso   1.000  C
  H72      1.0000 0.01980  0.23910  0.32560  Biso   1.000  H
  C88      1.0000 0.03360  0.13676  0.29395  Biso   1.000  C
  C89      1.0000 0.08141  0.07645  0.32723  Biso   1.000  C
  H73      1.0000 0.07200  0.03460  0.29340  Biso   1.000  H
  C90      1.0000 0.14267  0.07761  0.40970  Biso   1.000  C
  H74      1.0000 0.17510  0.03600  0.43160  Biso   1.000  H
  O31      1.0000 0.24283  0.21720  0.63086  Biso   1.000  O
  O32      1.0000 0.35652  0.20036  0.75218  Biso   1.000  O
  O33      1.0000 0.15573  0.53860  0.77384  Biso   1.000  O
  O34      1.0000 0.28154  0.53949  0.88251  Biso   1.000  O
  C91      1.0000 0.29459  0.23637  0.70578  Biso   1.000  C
  C92      1.0000 0.27708  0.30685  0.73593  Biso   1.000  C
  C93      1.0000 0.32458  0.33003  0.81900  Biso   1.000  C
  C94      1.0000 0.30980  0.39703  0.84620  Biso   1.000  C
  C95      1.0000 0.24594  0.44010  0.78989  Biso   1.000  C
  C96      1.0000 0.19931  0.41580  0.70699  Biso   1.000  C
  H75      1.0000 0.15600  0.44490  0.66830  Biso   1.000  H
  C97      1.0000 0.21456  0.35059  0.67995  Biso   1.000  C
  H76      1.0000 0.18230  0.33520  0.62280  Biso   1.000  H
  C98      1.0000 0.22534  0.51061  0.81606  Biso   1.000  C
  N27      1.0000 0.37610  0.28770  0.88560  Biso   1.000  N
  H77      1.0000 0.38060  0.24220  0.87690  Biso   1.000  H
  H78      1.0000 0.40440  0.30630  0.93680  Biso   1.000  H
  O35      1.0000 0.34508  0.10553  0.54601  Biso   1.000  O
  O36      1.0000 0.46709  0.11774  0.65946  Biso   1.000  O
  C99      1.0000 0.42335  0.09323  0.58625  Biso   1.000  C
  C100     1.0000 0.46354  0.04594  0.54132  Biso   1.000  C
  C101     1.0000 0.54747  0.05600  0.54958  Biso   1.000  C
  C102     1.0000 0.58395  0.01049  0.50877  Biso   1.000  C
  N28      1.0000 0.59850  0.10780  0.59440  Biso   1.000  N
  H79      1.0000 0.65070  0.11080  0.59610  Biso   1.000  H
  H80      1.0000 0.58010  0.13890  0.62220  Biso   1.000  H
  N29      1.0000 0.66230  0.03190  0.51150  Biso   1.000  N
  H81      1.0000 0.68490  0.07160  0.53770  Biso   1.000  H
  H82      1.0000 0.68970  0.00590  0.48700  Biso   1.000  H
  N30      1.0000 0.36810  0.41770  0.92710  Biso   1.000  N
  H83      1.0000 0.36620  0.46080  0.94610  Biso   1.000  H
  H84      1.0000 0.40670  0.38750  0.95900  Biso   1.000  H
  Zn7      1.0000 0.24828  0.62832  0.91939  Biso   1.000  Zn
  Li7      1.0000 0.08210  0.61670  0.74700  Biso   1.000  Li
  N31      1.0000 0.34165  0.63508  0.03979  Biso   1.000  N
  C103     1.0000 0.38743  0.69348  0.07197  Biso   1.000  C
  H85      1.0000 0.37660  0.73460  0.03670  Biso   1.000  H
  C104     1.0000 0.44937  0.69658  0.15382  Biso   1.000  C
  H86      1.0000 0.48020  0.73910  0.17440  Biso   1.000  H
  C105     1.0000 0.46640  0.63676  0.20605  Biso   1.000  C
  C106     1.0000 0.41859  0.57645  0.17277  Biso   1.000  C
  H87      1.0000 0.42800  0.53460  0.20660  Biso   1.000  H
  C107     1.0000 0.35733  0.57761  0.09030  Biso   1.000  C
  H88      1.0000 0.32490  0.53600  0.06840  Biso   1.000  H
  O37      1.0000 0.25717  0.71720  0.86914  Biso   1.000  O
  O38      1.0000 0.14348  0.70036  0.74782  Biso   1.000  O
  O39      1.0000 0.34427  0.03860  0.72616  Biso   1.000  O
  O40      1.0000 0.21846  0.03949  0.61749  Biso   1.000  O
  C108     1.0000 0.20541  0.73637  0.79422  Biso   1.000  C
  C109     1.0000 0.22292  0.80685  0.76407  Biso   1.000  C
  C110     1.0000 0.17542  0.83003  0.68100  Biso   1.000  C
  C111     1.0000 0.19020  0.89703  0.65380  Biso   1.000  C
  C112     1.0000 0.25406  0.94010  0.71011  Biso   1.000  C
  C113     1.0000 0.30069  0.91580  0.79301  Biso   1.000  C
  H89      1.0000 0.34400  0.94490  0.83170  Biso   1.000  H
  C114     1.0000 0.28544  0.85059  0.82005  Biso   1.000  C
  H90      1.0000 0.31770  0.83520  0.87720  Biso   1.000  H
  C115     1.0000 0.27466  0.01061  0.68394  Biso   1.000  C
  N32      1.0000 0.12390  0.78770  0.61440  Biso   1.000  N
  H91      1.0000 0.11940  0.74220  0.62310  Biso   1.000  H
  H92      1.0000 0.09560  0.80630  0.56320  Biso   1.000  H
  O41      1.0000 0.15492  0.60553  0.95399  Biso   1.000  O
  O42      1.0000 0.03291  0.61774  0.84054  Biso   1.000  O
  C116     1.0000 0.07665  0.59323  0.91375  Biso   1.000  C
  C117     1.0000 0.03646  0.54594  0.95868  Biso   1.000  C
  C118     1.0000 0.95253  0.55600  0.95042  Biso   1.000  C
  C119     1.0000 0.91605  0.51049  0.99123  Biso   1.000  C
  N33      1.0000 0.90150  0.60780  0.90560  Biso   1.000  N
  H93      1.0000 0.84930  0.61080  0.90390  Biso   1.000  H
  H94      1.0000 0.91990  0.63890  0.87780  Biso   1.000  H
  N34      1.0000 0.83770  0.53190  0.98850  Biso   1.000  N
  H95      1.0000 0.81510  0.57160  0.96230  Biso   1.000  H
  H96      1.0000 0.81030  0.50590  0.01300  Biso   1.000  H
  N35      1.0000 0.13190  0.91770  0.57290  Biso   1.000  N
  H97      1.0000 0.13380  0.96080  0.55390  Biso   1.000  H
  H98      1.0000 0.09330  0.88750  0.54100  Biso   1.000  H
  Zn8      1.0000 0.74828  0.12832  0.91939  Biso   1.000  Zn
  Li8      1.0000 0.58210  0.11670  0.74700  Biso   1.000  Li
  N36      1.0000 0.84165  0.13508  0.03979  Biso   1.000  N
  C120     1.0000 0.88743  0.19348  0.07197  Biso   1.000  C
  H99      1.0000 0.87660  0.23460  0.03670  Biso   1.000  H
  C121     1.0000 0.94937  0.19658  0.15382  Biso   1.000  C
  H100     1.0000 0.98020  0.23910  0.17440  Biso   1.000  H
  C122     1.0000 0.96640  0.13676  0.20605  Biso   1.000  C
  C123     1.0000 0.91859  0.07645  0.17277  Biso   1.000  C
  H101     1.0000 0.92800  0.03460  0.20660  Biso   1.000  H
  C124     1.0000 0.85733  0.07761  0.09030  Biso   1.000  C
  H102     1.0000 0.82490  0.03600  0.06840  Biso   1.000  H
  O43      1.0000 0.75717  0.21720  0.86914  Biso   1.000  O
  O44      1.0000 0.64348  0.20036  0.74782  Biso   1.000  O
  O45      1.0000 0.84427  0.53860  0.72616  Biso   1.000  O
  O46      1.0000 0.71846  0.53949  0.61749  Biso   1.000  O
  C125     1.0000 0.70541  0.23637  0.79422  Biso   1.000  C
  C126     1.0000 0.72292  0.30685  0.76407  Biso   1.000  C
  C127     1.0000 0.67542  0.33003  0.68100  Biso   1.000  C
  C128     1.0000 0.69020  0.39703  0.65380  Biso   1.000  C
  C129     1.0000 0.75406  0.44010  0.71011  Biso   1.000  C
  C130     1.0000 0.80069  0.41580  0.79301  Biso   1.000  C
  H103     1.0000 0.84400  0.44490  0.83170  Biso   1.000  H
  C131     1.0000 0.78544  0.35059  0.82005  Biso   1.000  C
  H104     1.0000 0.81770  0.33520  0.87720  Biso   1.000  H
  C132     1.0000 0.77466  0.51061  0.68394  Biso   1.000  C
  N37      1.0000 0.62390  0.28770  0.61440  Biso   1.000  N
  H105     1.0000 0.61940  0.24220  0.62310  Biso   1.000  H
  H106     1.0000 0.59560  0.30630  0.56320  Biso   1.000  H
  O47      1.0000 0.65492  0.10553  0.95399  Biso   1.000  O
  O48      1.0000 0.53291  0.11774  0.84054  Biso   1.000  O
  C133     1.0000 0.57665  0.09323  0.91375  Biso   1.000  C
  C134     1.0000 0.53646  0.04594  0.95868  Biso   1.000  C
  C135     1.0000 0.45253  0.05600  0.95042  Biso   1.000  C
  C136     1.0000 0.41605  0.01049  0.99123  Biso   1.000  C
  N38      1.0000 0.40150  0.10780  0.90560  Biso   1.000  N
  H107     1.0000 0.34930  0.11080  0.90390  Biso   1.000  H
  H108     1.0000 0.41990  0.13890  0.87780  Biso   1.000  H
  N39      1.0000 0.33770  0.03190  0.98850  Biso   1.000  N
  H109     1.0000 0.31510  0.07160  0.96230  Biso   1.000  H
  H110     1.0000 0.31030  0.00590  0.01300  Biso   1.000  H
  N40      1.0000 0.63190  0.41770  0.57290  Biso   1.000  N
  H111     1.0000 0.63380  0.46080  0.55390  Biso   1.000  H
  H112     1.0000 0.59330  0.38750  0.54100  Biso   1.000  H
