data_image0
_cell_length_a       19.377
_cell_length_b       19.377
_cell_length_c       19.81
_cell_angle_alpha    90
_cell_angle_beta     90
_cell_angle_gamma    120

_symmetry_space_group_name_H-M    "P 1"
_symmetry_int_tables_number       1

loop_
  _symmetry_equiv_pos_as_xyz
  'x, y, z'

loop_
  _atom_site_label
  _atom_site_occupancy
  _atom_site_fract_x
  _atom_site_fract_y
  _atom_site_fract_z
  _atom_site_thermal_displace_type
  _atom_site_B_iso_or_equiv
  _atom_site_type_symbol
  Cd1      1.0000 0.31704  0.77862  0.58215  Biso   1.000  Cd
  O1       1.0000 0.54586  0.80854  0.51133  Biso   1.000  O
  O2       1.0000 0.41979  0.76686  0.53327  Biso   1.000  O
  O3       1.0000 0.58311  0.14375  0.33767  Biso   1.000  O
  O4       1.0000 0.47008  0.06300  0.28659  Biso   1.000  O
  N1       1.0000 0.36110  0.87040  0.49305  Biso   1.000  N
  N2       1.0000 0.37650  0.97710  0.41589  Biso   1.000  N
  S1       1.0000 0.31385  0.91515  0.46851  Biso   1.000  S
  C1       1.0000 0.48600  0.81600  0.50490  Biso   1.000  C
  C2       1.0000 0.49100  0.88150  0.46246  Biso   1.000  C
  C3       1.0000 0.55730  0.92480  0.42310  Biso   1.000  C
  H1       1.0000 0.59770  0.91230  0.42450  Biso   1.000  H
  C4       1.0000 0.56700  0.98810  0.38010  Biso   1.000  C
  H2       1.0000 0.61330  0.01550  0.35460  Biso   1.000  H
  C5       1.0000 0.51000  0.00920  0.37560  Biso   1.000  C
  C6       1.0000 0.43950  0.96530  0.41446  Biso   1.000  C
  C7       1.0000 0.43030  0.90280  0.45853  Biso   1.000  C
  C8       1.0000 0.52110  0.07590  0.33045  Biso   1.000  C
  Cd2      1.0000 0.98371  0.11195  0.91548  Biso   1.000  Cd
  O5       1.0000 0.21253  0.14187  0.84466  Biso   1.000  O
  O6       1.0000 0.08646  0.10019  0.86660  Biso   1.000  O
  O7       1.0000 0.24978  0.47708  0.67100  Biso   1.000  O
  O8       1.0000 0.13675  0.39633  0.61992  Biso   1.000  O
  N3       1.0000 0.02777  0.20373  0.82638  Biso   1.000  N
  N4       1.0000 0.04317  0.31043  0.74922  Biso   1.000  N
  S2       1.0000 0.98052  0.24848  0.80184  Biso   1.000  S
  C9       1.0000 0.15267  0.14933  0.83823  Biso   1.000  C
  C10      1.0000 0.15767  0.21483  0.79579  Biso   1.000  C
  C11      1.0000 0.22397  0.25813  0.75643  Biso   1.000  C
  H3       1.0000 0.26437  0.24563  0.75783  Biso   1.000  H
  C12      1.0000 0.23367  0.32143  0.71343  Biso   1.000  C
  H4       1.0000 0.27997  0.34883  0.68793  Biso   1.000  H
  C13      1.0000 0.17667  0.34253  0.70893  Biso   1.000  C
  C14      1.0000 0.10617  0.29863  0.74779  Biso   1.000  C
  C15      1.0000 0.09697  0.23613  0.79186  Biso   1.000  C
  C16      1.0000 0.18777  0.40923  0.66378  Biso   1.000  C
  Cd3      1.0000 0.65037  0.44529  0.24882  Biso   1.000  Cd
  O9       1.0000 0.87919  0.47521  0.17800  Biso   1.000  O
  O10      1.0000 0.75312  0.43353  0.19994  Biso   1.000  O
  O11      1.0000 0.91644  0.81042  0.00434  Biso   1.000  O
  O12      1.0000 0.80341  0.72967  0.95326  Biso   1.000  O
  N5       1.0000 0.69443  0.53707  0.15972  Biso   1.000  N
  N6       1.0000 0.70983  0.64377  0.08256  Biso   1.000  N
  S3       1.0000 0.64718  0.58182  0.13518  Biso   1.000  S
  C17      1.0000 0.81933  0.48267  0.17157  Biso   1.000  C
  C18      1.0000 0.82433  0.54817  0.12913  Biso   1.000  C
  C19      1.0000 0.89063  0.59147  0.08977  Biso   1.000  C
  H5       1.0000 0.93103  0.57897  0.09117  Biso   1.000  H
  C20      1.0000 0.90033  0.65477  0.04677  Biso   1.000  C
  H6       1.0000 0.94663  0.68217  0.02127  Biso   1.000  H
  C21      1.0000 0.84333  0.67587  0.04227  Biso   1.000  C
  C22      1.0000 0.77283  0.63197  0.08113  Biso   1.000  C
  C23      1.0000 0.76363  0.56947  0.12520  Biso   1.000  C
  C24      1.0000 0.85443  0.74257  0.99712  Biso   1.000  C
  Cd4      1.0000 0.22138  0.53842  0.58215  Biso   1.000  Cd
  O13      1.0000 0.19146  0.73732  0.51133  Biso   1.000  O
  O14      1.0000 0.23314  0.65293  0.53327  Biso   1.000  O
  O15      1.0000 0.85625  0.43936  0.33767  Biso   1.000  O
  O16      1.0000 0.93700  0.40708  0.28659  Biso   1.000  O
  N7       1.0000 0.12960  0.49070  0.49305  Biso   1.000  N
  N8       1.0000 0.02290  0.39940  0.41589  Biso   1.000  N
  S4       1.0000 0.08485  0.39870  0.46851  Biso   1.000  S
  C25      1.0000 0.18400  0.67000  0.50490  Biso   1.000  C
  C26      1.0000 0.11850  0.60950  0.46246  Biso   1.000  C
  C27      1.0000 0.07520  0.63250  0.42310  Biso   1.000  C
  H7       1.0000 0.08770  0.68540  0.42450  Biso   1.000  H
  C28      1.0000 0.01190  0.57890  0.38010  Biso   1.000  C
  H8       1.0000 0.98450  0.59780  0.35460  Biso   1.000  H
  C29      1.0000 0.99080  0.50080  0.37560  Biso   1.000  C
  C30      1.0000 0.03470  0.47420  0.41446  Biso   1.000  C
  C31      1.0000 0.09720  0.52750  0.45853  Biso   1.000  C
  C32      1.0000 0.92410  0.44520  0.33045  Biso   1.000  C
  Cd5      1.0000 0.88805  0.87175  0.91548  Biso   1.000  Cd
  O17      1.0000 0.85813  0.07065  0.84466  Biso   1.000  O
  O18      1.0000 0.89981  0.98626  0.86660  Biso   1.000  O
  O19      1.0000 0.52292  0.77269  0.67100  Biso   1.000  O
  O20      1.0000 0.60367  0.74041  0.61992  Biso   1.000  O
  N9       1.0000 0.79627  0.82403  0.82638  Biso   1.000  N
  N10      1.0000 0.68957  0.73273  0.74922  Biso   1.000  N
  S5       1.0000 0.75152  0.73203  0.80184  Biso   1.000  S
  C33      1.0000 0.85067  0.00333  0.83823  Biso   1.000  C
  C34      1.0000 0.78517  0.94283  0.79579  Biso   1.000  C
  C35      1.0000 0.74187  0.96583  0.75643  Biso   1.000  C
  H9       1.0000 0.75437  0.01873  0.75783  Biso   1.000  H
  C36      1.0000 0.67857  0.91223  0.71343  Biso   1.000  C
  H10      1.0000 0.65117  0.93113  0.68793  Biso   1.000  H
  C37      1.0000 0.65747  0.83413  0.70893  Biso   1.000  C
  C38      1.0000 0.70137  0.80753  0.74779  Biso   1.000  C
  C39      1.0000 0.76387  0.86083  0.79186  Biso   1.000  C
  C40      1.0000 0.59077  0.77853  0.66378  Biso   1.000  C
  Cd6      1.0000 0.55471  0.20509  0.24882  Biso   1.000  Cd
  O21      1.0000 0.52479  0.40399  0.17800  Biso   1.000  O
  O22      1.0000 0.56647  0.31960  0.19994  Biso   1.000  O
  O23      1.0000 0.18958  0.10603  0.00434  Biso   1.000  O
  O24      1.0000 0.27033  0.07375  0.95326  Biso   1.000  O
  N11      1.0000 0.46293  0.15737  0.15972  Biso   1.000  N
  N12      1.0000 0.35623  0.06607  0.08256  Biso   1.000  N
  S6       1.0000 0.41818  0.06537  0.13518  Biso   1.000  S
  C41      1.0000 0.51733  0.33667  0.17157  Biso   1.000  C
  C42      1.0000 0.45183  0.27617  0.12913  Biso   1.000  C
  C43      1.0000 0.40853  0.29917  0.08977  Biso   1.000  C
  H11      1.0000 0.42103  0.35207  0.09117  Biso   1.000  H
  C44      1.0000 0.34523  0.24557  0.04677  Biso   1.000  C
  H12      1.0000 0.31783  0.26447  0.02127  Biso   1.000  H
  C45      1.0000 0.32413  0.16747  0.04227  Biso   1.000  C
  C46      1.0000 0.36803  0.14087  0.08113  Biso   1.000  C
  C47      1.0000 0.43053  0.19417  0.12520  Biso   1.000  C
  C48      1.0000 0.25743  0.11187  0.99712  Biso   1.000  C
  Cd7      1.0000 0.46158  0.68296  0.58215  Biso   1.000  Cd
  O25      1.0000 0.26268  0.45414  0.51133  Biso   1.000  O
  O26      1.0000 0.34707  0.58021  0.53327  Biso   1.000  O
  O27      1.0000 0.56064  0.41689  0.33767  Biso   1.000  O
  O28      1.0000 0.59292  0.52992  0.28659  Biso   1.000  O
  N13      1.0000 0.50930  0.63890  0.49305  Biso   1.000  N
  N14      1.0000 0.60060  0.62350  0.41589  Biso   1.000  N
  S7       1.0000 0.60130  0.68615  0.46851  Biso   1.000  S
  C49      1.0000 0.33000  0.51400  0.50490  Biso   1.000  C
  C50      1.0000 0.39050  0.50900  0.46246  Biso   1.000  C
  C51      1.0000 0.36750  0.44270  0.42310  Biso   1.000  C
  H13      1.0000 0.31460  0.40230  0.42450  Biso   1.000  H
  C52      1.0000 0.42110  0.43300  0.38010  Biso   1.000  C
  H14      1.0000 0.40220  0.38670  0.35460  Biso   1.000  H
  C53      1.0000 0.49920  0.49000  0.37560  Biso   1.000  C
  C54      1.0000 0.52580  0.56050  0.41446  Biso   1.000  C
  C55      1.0000 0.47250  0.56970  0.45853  Biso   1.000  C
  C56      1.0000 0.55480  0.47890  0.33045  Biso   1.000  C
  Cd8      1.0000 0.12825  0.01629  0.91548  Biso   1.000  Cd
  O29      1.0000 0.92935  0.78747  0.84466  Biso   1.000  O
  O30      1.0000 0.01374  0.91354  0.86660  Biso   1.000  O
  O31      1.0000 0.22731  0.75022  0.67100  Biso   1.000  O
  O32      1.0000 0.25959  0.86325  0.61992  Biso   1.000  O
  N15      1.0000 0.17597  0.97223  0.82638  Biso   1.000  N
  N16      1.0000 0.26727  0.95683  0.74922  Biso   1.000  N
  S8       1.0000 0.26797  0.01948  0.80184  Biso   1.000  S
  C57      1.0000 0.99667  0.84733  0.83823  Biso   1.000  C
  C58      1.0000 0.05717  0.84233  0.79579  Biso   1.000  C
  C59      1.0000 0.03417  0.77603  0.75643  Biso   1.000  C
  H15      1.0000 0.98127  0.73563  0.75783  Biso   1.000  H
  C60      1.0000 0.08777  0.76633  0.71343  Biso   1.000  C
  H16      1.0000 0.06887  0.72003  0.68793  Biso   1.000  H
  C61      1.0000 0.16587  0.82333  0.70893  Biso   1.000  C
  C62      1.0000 0.19247  0.89383  0.74779  Biso   1.000  C
  C63      1.0000 0.13917  0.90303  0.79186  Biso   1.000  C
  C64      1.0000 0.22147  0.81223  0.66378  Biso   1.000  C
  Cd9      1.0000 0.79491  0.34963  0.24882  Biso   1.000  Cd
  O33      1.0000 0.59601  0.12081  0.17800  Biso   1.000  O
  O34      1.0000 0.68040  0.24688  0.19994  Biso   1.000  O
  O35      1.0000 0.89397  0.08356  0.00434  Biso   1.000  O
  O36      1.0000 0.92625  0.19659  0.95326  Biso   1.000  O
  N17      1.0000 0.84263  0.30557  0.15972  Biso   1.000  N
  N18      1.0000 0.93393  0.29017  0.08256  Biso   1.000  N
  S9       1.0000 0.93463  0.35282  0.13518  Biso   1.000  S
  C65      1.0000 0.66333  0.18067  0.17157  Biso   1.000  C
  C66      1.0000 0.72383  0.17567  0.12913  Biso   1.000  C
  C67      1.0000 0.70083  0.10937  0.08977  Biso   1.000  C
  H17      1.0000 0.64793  0.06897  0.09117  Biso   1.000  H
  C68      1.0000 0.75443  0.09967  0.04677  Biso   1.000  C
  H18      1.0000 0.73553  0.05337  0.02127  Biso   1.000  H
  C69      1.0000 0.83253  0.15667  0.04227  Biso   1.000  C
  C70      1.0000 0.85913  0.22717  0.08113  Biso   1.000  C
  C71      1.0000 0.80583  0.23637  0.12520  Biso   1.000  C
  C72      1.0000 0.88813  0.14557  0.99712  Biso   1.000  C
  Cd10     1.0000 0.68296  0.22138  0.41785  Biso   1.000  Cd
  O37      1.0000 0.45414  0.19146  0.48867  Biso   1.000  O
  O38      1.0000 0.58021  0.23314  0.46673  Biso   1.000  O
  O39      1.0000 0.41689  0.85625  0.66233  Biso   1.000  O
  O40      1.0000 0.52992  0.93700  0.71341  Biso   1.000  O
  N19      1.0000 0.63890  0.12960  0.50695  Biso   1.000  N
  N20      1.0000 0.62350  0.02290  0.58411  Biso   1.000  N
  S10      1.0000 0.68615  0.08485  0.53149  Biso   1.000  S
  C73      1.0000 0.51400  0.18400  0.49510  Biso   1.000  C
  C74      1.0000 0.50900  0.11850  0.53754  Biso   1.000  C
  C75      1.0000 0.44270  0.07520  0.57690  Biso   1.000  C
  H19      1.0000 0.40230  0.08770  0.57550  Biso   1.000  H
  C76      1.0000 0.43300  0.01190  0.61990  Biso   1.000  C
  H20      1.0000 0.38670  0.98450  0.64540  Biso   1.000  H
  C77      1.0000 0.49000  0.99080  0.62440  Biso   1.000  C
  C78      1.0000 0.56050  0.03470  0.58554  Biso   1.000  C
  C79      1.0000 0.56970  0.09720  0.54147  Biso   1.000  C
  C80      1.0000 0.47890  0.92410  0.66955  Biso   1.000  C
  Cd11     1.0000 0.34963  0.55471  0.75118  Biso   1.000  Cd
  O41      1.0000 0.12081  0.52479  0.82200  Biso   1.000  O
  O42      1.0000 0.24688  0.56647  0.80006  Biso   1.000  O
  O43      1.0000 0.08356  0.18958  0.99566  Biso   1.000  O
  O44      1.0000 0.19659  0.27033  0.04674  Biso   1.000  O
  N21      1.0000 0.30557  0.46293  0.84028  Biso   1.000  N
  N22      1.0000 0.29017  0.35623  0.91744  Biso   1.000  N
  S11      1.0000 0.35282  0.41818  0.86482  Biso   1.000  S
  C81      1.0000 0.18067  0.51733  0.82843  Biso   1.000  C
  C82      1.0000 0.17567  0.45183  0.87087  Biso   1.000  C
  C83      1.0000 0.10937  0.40853  0.91023  Biso   1.000  C
  H21      1.0000 0.06897  0.42103  0.90883  Biso   1.000  H
  C84      1.0000 0.09967  0.34523  0.95323  Biso   1.000  C
  H22      1.0000 0.05337  0.31783  0.97873  Biso   1.000  H
  C85      1.0000 0.15667  0.32413  0.95773  Biso   1.000  C
  C86      1.0000 0.22717  0.36803  0.91887  Biso   1.000  C
  C87      1.0000 0.23637  0.43053  0.87480  Biso   1.000  C
  C88      1.0000 0.14557  0.25743  0.00288  Biso   1.000  C
  Cd12     1.0000 0.01629  0.88805  0.08452  Biso   1.000  Cd
  O45      1.0000 0.78747  0.85813  0.15534  Biso   1.000  O
  O46      1.0000 0.91354  0.89981  0.13340  Biso   1.000  O
  O47      1.0000 0.75022  0.52292  0.32900  Biso   1.000  O
  O48      1.0000 0.86325  0.60367  0.38008  Biso   1.000  O
  N23      1.0000 0.97223  0.79627  0.17362  Biso   1.000  N
  N24      1.0000 0.95683  0.68957  0.25078  Biso   1.000  N
  S12      1.0000 0.01948  0.75152  0.19816  Biso   1.000  S
  C89      1.0000 0.84733  0.85067  0.16177  Biso   1.000  C
  C90      1.0000 0.84233  0.78517  0.20421  Biso   1.000  C
  C91      1.0000 0.77603  0.74187  0.24357  Biso   1.000  C
  H23      1.0000 0.73563  0.75437  0.24217  Biso   1.000  H
  C92      1.0000 0.76633  0.67857  0.28657  Biso   1.000  C
  H24      1.0000 0.72003  0.65117  0.31207  Biso   1.000  H
  C93      1.0000 0.82333  0.65747  0.29107  Biso   1.000  C
  C94      1.0000 0.89383  0.70137  0.25221  Biso   1.000  C
  C95      1.0000 0.90303  0.76387  0.20814  Biso   1.000  C
  C96      1.0000 0.81223  0.59077  0.33622  Biso   1.000  C
  Cd13     1.0000 0.77862  0.46158  0.41785  Biso   1.000  Cd
  O49      1.0000 0.80854  0.26268  0.48867  Biso   1.000  O
  O50      1.0000 0.76686  0.34707  0.46673  Biso   1.000  O
  O51      1.0000 0.14375  0.56064  0.66233  Biso   1.000  O
  O52      1.0000 0.06300  0.59292  0.71341  Biso   1.000  O
  N25      1.0000 0.87040  0.50930  0.50695  Biso   1.000  N
  N26      1.0000 0.97710  0.60060  0.58411  Biso   1.000  N
  S13      1.0000 0.91515  0.60130  0.53149  Biso   1.000  S
  C97      1.0000 0.81600  0.33000  0.49510  Biso   1.000  C
  C98      1.0000 0.88150  0.39050  0.53754  Biso   1.000  C
  C99      1.0000 0.92480  0.36750  0.57690  Biso   1.000  C
  H25      1.0000 0.91230  0.31460  0.57550  Biso   1.000  H
  C100     1.0000 0.98810  0.42110  0.61990  Biso   1.000  C
  H26      1.0000 0.01550  0.40220  0.64540  Biso   1.000  H
  C101     1.0000 0.00920  0.49920  0.62440  Biso   1.000  C
  C102     1.0000 0.96530  0.52580  0.58554  Biso   1.000  C
  C103     1.0000 0.90280  0.47250  0.54147  Biso   1.000  C
  C104     1.0000 0.07590  0.55480  0.66955  Biso   1.000  C
  Cd14     1.0000 0.44529  0.79491  0.75118  Biso   1.000  Cd
  O53      1.0000 0.47521  0.59601  0.82200  Biso   1.000  O
  O54      1.0000 0.43353  0.68040  0.80006  Biso   1.000  O
  O55      1.0000 0.81042  0.89397  0.99566  Biso   1.000  O
  O56      1.0000 0.72967  0.92625  0.04674  Biso   1.000  O
  N27      1.0000 0.53707  0.84263  0.84028  Biso   1.000  N
  N28      1.0000 0.64377  0.93393  0.91744  Biso   1.000  N
  S14      1.0000 0.58182  0.93463  0.86482  Biso   1.000  S
  C105     1.0000 0.48267  0.66333  0.82843  Biso   1.000  C
  C106     1.0000 0.54817  0.72383  0.87087  Biso   1.000  C
  C107     1.0000 0.59147  0.70083  0.91023  Biso   1.000  C
  H27      1.0000 0.57897  0.64793  0.90883  Biso   1.000  H
  C108     1.0000 0.65477  0.75443  0.95323  Biso   1.000  C
  H28      1.0000 0.68217  0.73553  0.97873  Biso   1.000  H
  C109     1.0000 0.67587  0.83253  0.95773  Biso   1.000  C
  C110     1.0000 0.63197  0.85913  0.91887  Biso   1.000  C
  C111     1.0000 0.56947  0.80583  0.87480  Biso   1.000  C
  C112     1.0000 0.74257  0.88813  0.00288  Biso   1.000  C
  Cd15     1.0000 0.11195  0.12825  0.08452  Biso   1.000  Cd
  O57      1.0000 0.14187  0.92935  0.15534  Biso   1.000  O
  O58      1.0000 0.10019  0.01374  0.13340  Biso   1.000  O
  O59      1.0000 0.47708  0.22731  0.32900  Biso   1.000  O
  O60      1.0000 0.39633  0.25959  0.38008  Biso   1.000  O
  N29      1.0000 0.20373  0.17597  0.17362  Biso   1.000  N
  N30      1.0000 0.31043  0.26727  0.25078  Biso   1.000  N
  S15      1.0000 0.24848  0.26797  0.19816  Biso   1.000  S
  C113     1.0000 0.14933  0.99667  0.16177  Biso   1.000  C
  C114     1.0000 0.21483  0.05717  0.20421  Biso   1.000  C
  C115     1.0000 0.25813  0.03417  0.24357  Biso   1.000  C
  H29      1.0000 0.24563  0.98127  0.24217  Biso   1.000  H
  C116     1.0000 0.32143  0.08777  0.28657  Biso   1.000  C
  H30      1.0000 0.34883  0.06887  0.31207  Biso   1.000  H
  C117     1.0000 0.34253  0.16587  0.29107  Biso   1.000  C
  C118     1.0000 0.29863  0.19247  0.25221  Biso   1.000  C
  C119     1.0000 0.23613  0.13917  0.20814  Biso   1.000  C
  C120     1.0000 0.40923  0.22147  0.33622  Biso   1.000  C
  Cd16     1.0000 0.53842  0.31704  0.41785  Biso   1.000  Cd
  O61      1.0000 0.73732  0.54586  0.48867  Biso   1.000  O
  O62      1.0000 0.65293  0.41979  0.46673  Biso   1.000  O
  O63      1.0000 0.43936  0.58311  0.66233  Biso   1.000  O
  O64      1.0000 0.40708  0.47008  0.71341  Biso   1.000  O
  N31      1.0000 0.49070  0.36110  0.50695  Biso   1.000  N
  N32      1.0000 0.39940  0.37650  0.58411  Biso   1.000  N
  S16      1.0000 0.39870  0.31385  0.53149  Biso   1.000  S
  C121     1.0000 0.67000  0.48600  0.49510  Biso   1.000  C
  C122     1.0000 0.60950  0.49100  0.53754  Biso   1.000  C
  C123     1.0000 0.63250  0.55730  0.57690  Biso   1.000  C
  H31      1.0000 0.68540  0.59770  0.57550  Biso   1.000  H
  C124     1.0000 0.57890  0.56700  0.61990  Biso   1.000  C
  H32      1.0000 0.59780  0.61330  0.64540  Biso   1.000  H
  C125     1.0000 0.50080  0.51000  0.62440  Biso   1.000  C
  C126     1.0000 0.47420  0.43950  0.58554  Biso   1.000  C
  C127     1.0000 0.52750  0.43030  0.54147  Biso   1.000  C
  C128     1.0000 0.44520  0.52110  0.66955  Biso   1.000  C
  Cd17     1.0000 0.20509  0.65037  0.75118  Biso   1.000  Cd
  O65      1.0000 0.40399  0.87919  0.82200  Biso   1.000  O
  O66      1.0000 0.31960  0.75312  0.80006  Biso   1.000  O
  O67      1.0000 0.10603  0.91644  0.99566  Biso   1.000  O
  O68      1.0000 0.07375  0.80341  0.04674  Biso   1.000  O
  N33      1.0000 0.15737  0.69443  0.84028  Biso   1.000  N
  N34      1.0000 0.06607  0.70983  0.91744  Biso   1.000  N
  S17      1.0000 0.06537  0.64718  0.86482  Biso   1.000  S
  C129     1.0000 0.33667  0.81933  0.82843  Biso   1.000  C
  C130     1.0000 0.27617  0.82433  0.87087  Biso   1.000  C
  C131     1.0000 0.29917  0.89063  0.91023  Biso   1.000  C
  H33      1.0000 0.35207  0.93103  0.90883  Biso   1.000  H
  C132     1.0000 0.24557  0.90033  0.95323  Biso   1.000  C
  H34      1.0000 0.26447  0.94663  0.97873  Biso   1.000  H
  C133     1.0000 0.16747  0.84333  0.95773  Biso   1.000  C
  C134     1.0000 0.14087  0.77283  0.91887  Biso   1.000  C
  C135     1.0000 0.19417  0.76363  0.87480  Biso   1.000  C
  C136     1.0000 0.11187  0.85443  0.00288  Biso   1.000  C
  Cd18     1.0000 0.87175  0.98371  0.08452  Biso   1.000  Cd
  O69      1.0000 0.07065  0.21253  0.15534  Biso   1.000  O
  O70      1.0000 0.98626  0.08646  0.13340  Biso   1.000  O
  O71      1.0000 0.77269  0.24978  0.32900  Biso   1.000  O
  O72      1.0000 0.74041  0.13675  0.38008  Biso   1.000  O
  N35      1.0000 0.82403  0.02777  0.17362  Biso   1.000  N
  N36      1.0000 0.73273  0.04317  0.25078  Biso   1.000  N
  S18      1.0000 0.73203  0.98052  0.19816  Biso   1.000  S
  C137     1.0000 0.00333  0.15267  0.16177  Biso   1.000  C
  C138     1.0000 0.94283  0.15767  0.20421  Biso   1.000  C
  C139     1.0000 0.96583  0.22397  0.24357  Biso   1.000  C
  H35      1.0000 0.01873  0.26437  0.24217  Biso   1.000  H
  C140     1.0000 0.91223  0.23367  0.28657  Biso   1.000  C
  H36      1.0000 0.93113  0.27997  0.31207  Biso   1.000  H
  C141     1.0000 0.83413  0.17667  0.29107  Biso   1.000  C
  C142     1.0000 0.80753  0.10617  0.25221  Biso   1.000  C
  C143     1.0000 0.86083  0.09697  0.20814  Biso   1.000  C
  C144     1.0000 0.77853  0.18777  0.33622  Biso   1.000  C
