data_image0
_cell_length_a       19.676
_cell_length_b       19.676
_cell_length_c       19.3
_cell_angle_alpha    90
_cell_angle_beta     90
_cell_angle_gamma    120

_symmetry_space_group_name_H-M    "P 1"
_symmetry_int_tables_number       1

loop_
  _symmetry_equiv_pos_as_xyz
  'x, y, z'

loop_
  _atom_site_label
  _atom_site_occupancy
  _atom_site_fract_x
  _atom_site_fract_y
  _atom_site_fract_z
  _atom_site_thermal_displace_type
  _atom_site_B_iso_or_equiv
  _atom_site_type_symbol
  Cd1      1.0000 0.11008  0.12701  0.58647  Biso   1.000  Cd
  N1       1.0000 0.20281  0.17458  0.67679  Biso   1.000  N
  N2       1.0000 0.31160  0.26615  0.75247  Biso   1.000  N
  O1       1.0000 0.10011  0.01430  0.63600  Biso   1.000  O
  O2       1.0000 0.13961  0.93082  0.65998  Biso   1.000  O
  O3       1.0000 0.40030  0.26078  0.88080  Biso   1.000  O
  O4       1.0000 0.47875  0.22720  0.82871  Biso   1.000  O
  S1       1.0000 0.24743  0.26554  0.70089  Biso   1.000  S
  C1       1.0000 0.14820  0.99740  0.66480  Biso   1.000  C
  C2       1.0000 0.21600  0.05890  0.70618  Biso   1.000  C
  C3       1.0000 0.26010  0.03650  0.74450  Biso   1.000  C
  H1       1.0000 0.24720  0.98420  0.74360  Biso   1.000  H
  C4       1.0000 0.32480  0.09000  0.78580  Biso   1.000  C
  H2       1.0000 0.35390  0.07210  0.80970  Biso   1.000  H
  C5       1.0000 0.34520  0.16690  0.79102  Biso   1.000  C
  C6       1.0000 0.30030  0.19270  0.75348  Biso   1.000  C
  C7       1.0000 0.23661  0.13901  0.71028  Biso   1.000  C
  C8       1.0000 0.41227  0.22252  0.83619  Biso   1.000  C
  Cd2      1.0000 0.77675  0.46034  0.91980  Biso   1.000  Cd
  N3       1.0000 0.86948  0.50791  0.01012  Biso   1.000  N
  N4       1.0000 0.97827  0.59948  0.08580  Biso   1.000  N
  O5       1.0000 0.76678  0.34763  0.96933  Biso   1.000  O
  O6       1.0000 0.80628  0.26415  0.99331  Biso   1.000  O
  O7       1.0000 0.06697  0.59411  0.21413  Biso   1.000  O
  O8       1.0000 0.14542  0.56053  0.16204  Biso   1.000  O
  S2       1.0000 0.91410  0.59887  0.03422  Biso   1.000  S
  C9       1.0000 0.81487  0.33073  0.99813  Biso   1.000  C
  C10      1.0000 0.88267  0.39223  0.03951  Biso   1.000  C
  C11      1.0000 0.92677  0.36983  0.07783  Biso   1.000  C
  H3       1.0000 0.91387  0.31753  0.07693  Biso   1.000  H
  C12      1.0000 0.99147  0.42333  0.11913  Biso   1.000  C
  H4       1.0000 0.02057  0.40543  0.14303  Biso   1.000  H
  C13      1.0000 0.01187  0.50023  0.12435  Biso   1.000  C
  C14      1.0000 0.96697  0.52603  0.08681  Biso   1.000  C
  C15      1.0000 0.90328  0.47234  0.04361  Biso   1.000  C
  C16      1.0000 0.07894  0.55585  0.16952  Biso   1.000  C
  Cd3      1.0000 0.44341  0.79368  0.25314  Biso   1.000  Cd
  N5       1.0000 0.53614  0.84125  0.34346  Biso   1.000  N
  N6       1.0000 0.64493  0.93282  0.41914  Biso   1.000  N
  O9       1.0000 0.43344  0.68097  0.30267  Biso   1.000  O
  O10      1.0000 0.47294  0.59749  0.32665  Biso   1.000  O
  O11      1.0000 0.73363  0.92745  0.54747  Biso   1.000  O
  O12      1.0000 0.81208  0.89387  0.49538  Biso   1.000  O
  S3       1.0000 0.58076  0.93221  0.36756  Biso   1.000  S
  C17      1.0000 0.48153  0.66407  0.33147  Biso   1.000  C
  C18      1.0000 0.54933  0.72557  0.37285  Biso   1.000  C
  C19      1.0000 0.59343  0.70317  0.41117  Biso   1.000  C
  H5       1.0000 0.58053  0.65087  0.41027  Biso   1.000  H
  C20      1.0000 0.65813  0.75667  0.45247  Biso   1.000  C
  H6       1.0000 0.68723  0.73877  0.47637  Biso   1.000  H
  C21      1.0000 0.67853  0.83357  0.45769  Biso   1.000  C
  C22      1.0000 0.63363  0.85937  0.42015  Biso   1.000  C
  C23      1.0000 0.56994  0.80568  0.37695  Biso   1.000  C
  C24      1.0000 0.74560  0.88919  0.50286  Biso   1.000  C
  Cd4      1.0000 0.87299  0.98307  0.58647  Biso   1.000  Cd
  N7       1.0000 0.82542  0.02823  0.67679  Biso   1.000  N
  N8       1.0000 0.73385  0.04545  0.75247  Biso   1.000  N
  O13      1.0000 0.98570  0.08581  0.63600  Biso   1.000  O
  O14      1.0000 0.06918  0.20879  0.65998  Biso   1.000  O
  O15      1.0000 0.73922  0.13952  0.88080  Biso   1.000  O
  O16      1.0000 0.77280  0.25155  0.82871  Biso   1.000  O
  S4       1.0000 0.73446  0.98189  0.70089  Biso   1.000  S
  C25      1.0000 0.00260  0.15080  0.66480  Biso   1.000  C
  C26      1.0000 0.94110  0.15710  0.70618  Biso   1.000  C
  C27      1.0000 0.96350  0.22360  0.74450  Biso   1.000  C
  H7       1.0000 0.01580  0.26300  0.74360  Biso   1.000  H
  C28      1.0000 0.91000  0.23480  0.78580  Biso   1.000  C
  H8       1.0000 0.92790  0.28180  0.80970  Biso   1.000  H
  C29      1.0000 0.83310  0.17830  0.79102  Biso   1.000  C
  C30      1.0000 0.80730  0.10760  0.75348  Biso   1.000  C
  C31      1.0000 0.86099  0.09760  0.71028  Biso   1.000  C
  C32      1.0000 0.77748  0.18975  0.83619  Biso   1.000  C
  Cd5      1.0000 0.53966  0.31640  0.91980  Biso   1.000  Cd
  N9       1.0000 0.49209  0.36156  0.01012  Biso   1.000  N
  N10      1.0000 0.40052  0.37878  0.08580  Biso   1.000  N
  O17      1.0000 0.65237  0.41914  0.96933  Biso   1.000  O
  O18      1.0000 0.73585  0.54212  0.99331  Biso   1.000  O
  O19      1.0000 0.40589  0.47285  0.21413  Biso   1.000  O
  O20      1.0000 0.43947  0.58488  0.16204  Biso   1.000  O
  S5       1.0000 0.40113  0.31522  0.03422  Biso   1.000  S
  C33      1.0000 0.66927  0.48413  0.99813  Biso   1.000  C
  C34      1.0000 0.60777  0.49043  0.03951  Biso   1.000  C
  C35      1.0000 0.63017  0.55693  0.07783  Biso   1.000  C
  H9       1.0000 0.68247  0.59633  0.07693  Biso   1.000  H
  C36      1.0000 0.57667  0.56813  0.11913  Biso   1.000  C
  H10      1.0000 0.59457  0.61513  0.14303  Biso   1.000  H
  C37      1.0000 0.49977  0.51163  0.12435  Biso   1.000  C
  C38      1.0000 0.47397  0.44093  0.08681  Biso   1.000  C
  C39      1.0000 0.52766  0.43093  0.04361  Biso   1.000  C
  C40      1.0000 0.44415  0.52308  0.16952  Biso   1.000  C
  Cd6      1.0000 0.20632  0.64974  0.25314  Biso   1.000  Cd
  N11      1.0000 0.15875  0.69490  0.34346  Biso   1.000  N
  N12      1.0000 0.06718  0.71212  0.41914  Biso   1.000  N
  O21      1.0000 0.31903  0.75248  0.30267  Biso   1.000  O
  O22      1.0000 0.40251  0.87546  0.32665  Biso   1.000  O
  O23      1.0000 0.07255  0.80619  0.54747  Biso   1.000  O
  O24      1.0000 0.10613  0.91822  0.49538  Biso   1.000  O
  S6       1.0000 0.06779  0.64856  0.36756  Biso   1.000  S
  C41      1.0000 0.33593  0.81747  0.33147  Biso   1.000  C
  C42      1.0000 0.27443  0.82377  0.37285  Biso   1.000  C
  C43      1.0000 0.29683  0.89027  0.41117  Biso   1.000  C
  H11      1.0000 0.34913  0.92967  0.41027  Biso   1.000  H
  C44      1.0000 0.24333  0.90147  0.45247  Biso   1.000  C
  H12      1.0000 0.26123  0.94847  0.47637  Biso   1.000  H
  C45      1.0000 0.16643  0.84497  0.45769  Biso   1.000  C
  C46      1.0000 0.14063  0.77427  0.42015  Biso   1.000  C
  C47      1.0000 0.19432  0.76427  0.37695  Biso   1.000  C
  C48      1.0000 0.11081  0.85642  0.50286  Biso   1.000  C
  Cd7      1.0000 0.01693  0.88992  0.58647  Biso   1.000  Cd
  N13      1.0000 0.97177  0.79719  0.67679  Biso   1.000  N
  N14      1.0000 0.95455  0.68840  0.75247  Biso   1.000  N
  O25      1.0000 0.91419  0.89989  0.63600  Biso   1.000  O
  O26      1.0000 0.79121  0.86039  0.65998  Biso   1.000  O
  O27      1.0000 0.86048  0.59970  0.88080  Biso   1.000  O
  O28      1.0000 0.74845  0.52125  0.82871  Biso   1.000  O
  S7       1.0000 0.01811  0.75257  0.70089  Biso   1.000  S
  C49      1.0000 0.84920  0.85180  0.66480  Biso   1.000  C
  C50      1.0000 0.84290  0.78400  0.70618  Biso   1.000  C
  C51      1.0000 0.77640  0.73990  0.74450  Biso   1.000  C
  H13      1.0000 0.73700  0.75280  0.74360  Biso   1.000  H
  C52      1.0000 0.76520  0.67520  0.78580  Biso   1.000  C
  H14      1.0000 0.71820  0.64610  0.80970  Biso   1.000  H
  C53      1.0000 0.82170  0.65480  0.79102  Biso   1.000  C
  C54      1.0000 0.89240  0.69970  0.75348  Biso   1.000  C
  C55      1.0000 0.90240  0.76339  0.71028  Biso   1.000  C
  C56      1.0000 0.81025  0.58773  0.83619  Biso   1.000  C
  Cd8      1.0000 0.68360  0.22325  0.91980  Biso   1.000  Cd
  N15      1.0000 0.63844  0.13052  0.01012  Biso   1.000  N
  N16      1.0000 0.62122  0.02173  0.08580  Biso   1.000  N
  O29      1.0000 0.58086  0.23322  0.96933  Biso   1.000  O
  O30      1.0000 0.45788  0.19372  0.99331  Biso   1.000  O
  O31      1.0000 0.52715  0.93303  0.21413  Biso   1.000  O
  O32      1.0000 0.41512  0.85458  0.16204  Biso   1.000  O
  S8       1.0000 0.68478  0.08590  0.03422  Biso   1.000  S
  C57      1.0000 0.51587  0.18513  0.99813  Biso   1.000  C
  C58      1.0000 0.50957  0.11733  0.03951  Biso   1.000  C
  C59      1.0000 0.44307  0.07323  0.07783  Biso   1.000  C
  H15      1.0000 0.40367  0.08613  0.07693  Biso   1.000  H
  C60      1.0000 0.43187  0.00853  0.11913  Biso   1.000  C
  H16      1.0000 0.38487  0.97943  0.14303  Biso   1.000  H
  C61      1.0000 0.48837  0.98813  0.12435  Biso   1.000  C
  C62      1.0000 0.55907  0.03303  0.08681  Biso   1.000  C
  C63      1.0000 0.56907  0.09672  0.04361  Biso   1.000  C
  C64      1.0000 0.47692  0.92106  0.16952  Biso   1.000  C
  Cd9      1.0000 0.35026  0.55659  0.25314  Biso   1.000  Cd
  N17      1.0000 0.30510  0.46386  0.34346  Biso   1.000  N
  N18      1.0000 0.28788  0.35507  0.41914  Biso   1.000  N
  O33      1.0000 0.24752  0.56656  0.30267  Biso   1.000  O
  O34      1.0000 0.12454  0.52706  0.32665  Biso   1.000  O
  O35      1.0000 0.19381  0.26637  0.54747  Biso   1.000  O
  O36      1.0000 0.08178  0.18792  0.49538  Biso   1.000  O
  S9       1.0000 0.35144  0.41924  0.36756  Biso   1.000  S
  C65      1.0000 0.18253  0.51847  0.33147  Biso   1.000  C
  C66      1.0000 0.17623  0.45067  0.37285  Biso   1.000  C
  C67      1.0000 0.10973  0.40657  0.41117  Biso   1.000  C
  H17      1.0000 0.07033  0.41947  0.41027  Biso   1.000  H
  C68      1.0000 0.09853  0.34187  0.45247  Biso   1.000  C
  H18      1.0000 0.05153  0.31277  0.47637  Biso   1.000  H
  C69      1.0000 0.15503  0.32147  0.45769  Biso   1.000  C
  C70      1.0000 0.22573  0.36637  0.42015  Biso   1.000  C
  C71      1.0000 0.23573  0.43006  0.37695  Biso   1.000  C
  C72      1.0000 0.14358  0.25440  0.50286  Biso   1.000  C
  Cd10     1.0000 0.88992  0.87299  0.41353  Biso   1.000  Cd
  N19      1.0000 0.79719  0.82542  0.32321  Biso   1.000  N
  N20      1.0000 0.68840  0.73385  0.24753  Biso   1.000  N
  O37      1.0000 0.89989  0.98570  0.36400  Biso   1.000  O
  O38      1.0000 0.86039  0.06918  0.34002  Biso   1.000  O
  O39      1.0000 0.59970  0.73922  0.11920  Biso   1.000  O
  O40      1.0000 0.52125  0.77280  0.17129  Biso   1.000  O
  S10      1.0000 0.75257  0.73446  0.29911  Biso   1.000  S
  C73      1.0000 0.85180  0.00260  0.33520  Biso   1.000  C
  C74      1.0000 0.78400  0.94110  0.29382  Biso   1.000  C
  C75      1.0000 0.73990  0.96350  0.25550  Biso   1.000  C
  H19      1.0000 0.75280  0.01580  0.25640  Biso   1.000  H
  C76      1.0000 0.67520  0.91000  0.21420  Biso   1.000  C
  H20      1.0000 0.64610  0.92790  0.19030  Biso   1.000  H
  C77      1.0000 0.65480  0.83310  0.20898  Biso   1.000  C
  C78      1.0000 0.69970  0.80730  0.24652  Biso   1.000  C
  C79      1.0000 0.76339  0.86099  0.28972  Biso   1.000  C
  C80      1.0000 0.58773  0.77748  0.16381  Biso   1.000  C
  Cd11     1.0000 0.55659  0.20632  0.74686  Biso   1.000  Cd
  N21      1.0000 0.46386  0.15875  0.65654  Biso   1.000  N
  N22      1.0000 0.35507  0.06718  0.58086  Biso   1.000  N
  O41      1.0000 0.56656  0.31903  0.69733  Biso   1.000  O
  O42      1.0000 0.52706  0.40251  0.67335  Biso   1.000  O
  O43      1.0000 0.26637  0.07255  0.45253  Biso   1.000  O
  O44      1.0000 0.18792  0.10613  0.50462  Biso   1.000  O
  S11      1.0000 0.41924  0.06779  0.63244  Biso   1.000  S
  C81      1.0000 0.51847  0.33593  0.66853  Biso   1.000  C
  C82      1.0000 0.45067  0.27443  0.62715  Biso   1.000  C
  C83      1.0000 0.40657  0.29683  0.58883  Biso   1.000  C
  H21      1.0000 0.41947  0.34913  0.58973  Biso   1.000  H
  C84      1.0000 0.34187  0.24333  0.54753  Biso   1.000  C
  H22      1.0000 0.31277  0.26123  0.52363  Biso   1.000  H
  C85      1.0000 0.32147  0.16643  0.54231  Biso   1.000  C
  C86      1.0000 0.36637  0.14063  0.57985  Biso   1.000  C
  C87      1.0000 0.43006  0.19432  0.62305  Biso   1.000  C
  C88      1.0000 0.25440  0.11081  0.49714  Biso   1.000  C
  Cd12     1.0000 0.22325  0.53966  0.08020  Biso   1.000  Cd
  N23      1.0000 0.13052  0.49209  0.98988  Biso   1.000  N
  N24      1.0000 0.02173  0.40052  0.91420  Biso   1.000  N
  O45      1.0000 0.23322  0.65237  0.03067  Biso   1.000  O
  O46      1.0000 0.19372  0.73585  0.00669  Biso   1.000  O
  O47      1.0000 0.93303  0.40589  0.78587  Biso   1.000  O
  O48      1.0000 0.85458  0.43947  0.83796  Biso   1.000  O
  S12      1.0000 0.08590  0.40113  0.96578  Biso   1.000  S
  C89      1.0000 0.18513  0.66927  0.00187  Biso   1.000  C
  C90      1.0000 0.11733  0.60777  0.96049  Biso   1.000  C
  C91      1.0000 0.07323  0.63017  0.92217  Biso   1.000  C
  H23      1.0000 0.08613  0.68247  0.92307  Biso   1.000  H
  C92      1.0000 0.00853  0.57667  0.88087  Biso   1.000  C
  H24      1.0000 0.97943  0.59457  0.85697  Biso   1.000  H
  C93      1.0000 0.98813  0.49977  0.87565  Biso   1.000  C
  C94      1.0000 0.03303  0.47397  0.91319  Biso   1.000  C
  C95      1.0000 0.09672  0.52766  0.95639  Biso   1.000  C
  C96      1.0000 0.92106  0.44415  0.83048  Biso   1.000  C
  Cd13     1.0000 0.12701  0.01693  0.41353  Biso   1.000  Cd
  N25      1.0000 0.17458  0.97177  0.32321  Biso   1.000  N
  N26      1.0000 0.26615  0.95455  0.24753  Biso   1.000  N
  O49      1.0000 0.01430  0.91419  0.36400  Biso   1.000  O
  O50      1.0000 0.93082  0.79121  0.34002  Biso   1.000  O
  O51      1.0000 0.26078  0.86048  0.11920  Biso   1.000  O
  O52      1.0000 0.22720  0.74845  0.17129  Biso   1.000  O
  S13      1.0000 0.26554  0.01811  0.29911  Biso   1.000  S
  C97      1.0000 0.99740  0.84920  0.33520  Biso   1.000  C
  C98      1.0000 0.05890  0.84290  0.29382  Biso   1.000  C
  C99      1.0000 0.03650  0.77640  0.25550  Biso   1.000  C
  H25      1.0000 0.98420  0.73700  0.25640  Biso   1.000  H
  C100     1.0000 0.09000  0.76520  0.21420  Biso   1.000  C
  H26      1.0000 0.07210  0.71820  0.19030  Biso   1.000  H
  C101     1.0000 0.16690  0.82170  0.20898  Biso   1.000  C
  C102     1.0000 0.19270  0.89240  0.24652  Biso   1.000  C
  C103     1.0000 0.13901  0.90240  0.28972  Biso   1.000  C
  C104     1.0000 0.22252  0.81025  0.16381  Biso   1.000  C
  Cd14     1.0000 0.79368  0.35026  0.74686  Biso   1.000  Cd
  N27      1.0000 0.84125  0.30510  0.65654  Biso   1.000  N
  N28      1.0000 0.93282  0.28788  0.58086  Biso   1.000  N
  O53      1.0000 0.68097  0.24752  0.69733  Biso   1.000  O
  O54      1.0000 0.59749  0.12454  0.67335  Biso   1.000  O
  O55      1.0000 0.92745  0.19381  0.45253  Biso   1.000  O
  O56      1.0000 0.89387  0.08178  0.50462  Biso   1.000  O
  S14      1.0000 0.93221  0.35144  0.63244  Biso   1.000  S
  C105     1.0000 0.66407  0.18253  0.66853  Biso   1.000  C
  C106     1.0000 0.72557  0.17623  0.62715  Biso   1.000  C
  C107     1.0000 0.70317  0.10973  0.58883  Biso   1.000  C
  H27      1.0000 0.65087  0.07033  0.58973  Biso   1.000  H
  C108     1.0000 0.75667  0.09853  0.54753  Biso   1.000  C
  H28      1.0000 0.73877  0.05153  0.52363  Biso   1.000  H
  C109     1.0000 0.83357  0.15503  0.54231  Biso   1.000  C
  C110     1.0000 0.85937  0.22573  0.57985  Biso   1.000  C
  C111     1.0000 0.80568  0.23573  0.62305  Biso   1.000  C
  C112     1.0000 0.88919  0.14358  0.49714  Biso   1.000  C
  Cd15     1.0000 0.46034  0.68360  0.08020  Biso   1.000  Cd
  N29      1.0000 0.50791  0.63844  0.98988  Biso   1.000  N
  N30      1.0000 0.59948  0.62122  0.91420  Biso   1.000  N
  O57      1.0000 0.34763  0.58086  0.03067  Biso   1.000  O
  O58      1.0000 0.26415  0.45788  0.00669  Biso   1.000  O
  O59      1.0000 0.59411  0.52715  0.78587  Biso   1.000  O
  O60      1.0000 0.56053  0.41512  0.83796  Biso   1.000  O
  S15      1.0000 0.59887  0.68478  0.96578  Biso   1.000  S
  C113     1.0000 0.33073  0.51587  0.00187  Biso   1.000  C
  C114     1.0000 0.39223  0.50957  0.96049  Biso   1.000  C
  C115     1.0000 0.36983  0.44307  0.92217  Biso   1.000  C
  H29      1.0000 0.31753  0.40367  0.92307  Biso   1.000  H
  C116     1.0000 0.42333  0.43187  0.88087  Biso   1.000  C
  H30      1.0000 0.40543  0.38487  0.85697  Biso   1.000  H
  C117     1.0000 0.50023  0.48837  0.87565  Biso   1.000  C
  C118     1.0000 0.52603  0.55907  0.91319  Biso   1.000  C
  C119     1.0000 0.47234  0.56907  0.95639  Biso   1.000  C
  C120     1.0000 0.55585  0.47692  0.83048  Biso   1.000  C
  Cd16     1.0000 0.98307  0.11008  0.41353  Biso   1.000  Cd
  N31      1.0000 0.02823  0.20281  0.32321  Biso   1.000  N
  N32      1.0000 0.04545  0.31160  0.24753  Biso   1.000  N
  O61      1.0000 0.08581  0.10011  0.36400  Biso   1.000  O
  O62      1.0000 0.20879  0.13961  0.34002  Biso   1.000  O
  O63      1.0000 0.13952  0.40030  0.11920  Biso   1.000  O
  O64      1.0000 0.25155  0.47875  0.17129  Biso   1.000  O
  S16      1.0000 0.98189  0.24743  0.29911  Biso   1.000  S
  C121     1.0000 0.15080  0.14820  0.33520  Biso   1.000  C
  C122     1.0000 0.15710  0.21600  0.29382  Biso   1.000  C
  C123     1.0000 0.22360  0.26010  0.25550  Biso   1.000  C
  H31      1.0000 0.26300  0.24720  0.25640  Biso   1.000  H
  C124     1.0000 0.23480  0.32480  0.21420  Biso   1.000  C
  H32      1.0000 0.28180  0.35390  0.19030  Biso   1.000  H
  C125     1.0000 0.17830  0.34520  0.20898  Biso   1.000  C
  C126     1.0000 0.10760  0.30030  0.24652  Biso   1.000  C
  C127     1.0000 0.09760  0.23661  0.28972  Biso   1.000  C
  C128     1.0000 0.18975  0.41227  0.16381  Biso   1.000  C
  Cd17     1.0000 0.64974  0.44341  0.74686  Biso   1.000  Cd
  N33      1.0000 0.69490  0.53614  0.65654  Biso   1.000  N
  N34      1.0000 0.71212  0.64493  0.58086  Biso   1.000  N
  O65      1.0000 0.75248  0.43344  0.69733  Biso   1.000  O
  O66      1.0000 0.87546  0.47294  0.67335  Biso   1.000  O
  O67      1.0000 0.80619  0.73363  0.45253  Biso   1.000  O
  O68      1.0000 0.91822  0.81208  0.50462  Biso   1.000  O
  S17      1.0000 0.64856  0.58076  0.63244  Biso   1.000  S
  C129     1.0000 0.81747  0.48153  0.66853  Biso   1.000  C
  C130     1.0000 0.82377  0.54933  0.62715  Biso   1.000  C
  C131     1.0000 0.89027  0.59343  0.58883  Biso   1.000  C
  H33      1.0000 0.92967  0.58053  0.58973  Biso   1.000  H
  C132     1.0000 0.90147  0.65813  0.54753  Biso   1.000  C
  H34      1.0000 0.94847  0.68723  0.52363  Biso   1.000  H
  C133     1.0000 0.84497  0.67853  0.54231  Biso   1.000  C
  C134     1.0000 0.77427  0.63363  0.57985  Biso   1.000  C
  C135     1.0000 0.76427  0.56994  0.62305  Biso   1.000  C
  C136     1.0000 0.85642  0.74560  0.49714  Biso   1.000  C
  Cd18     1.0000 0.31640  0.77675  0.08020  Biso   1.000  Cd
  N35      1.0000 0.36156  0.86948  0.98988  Biso   1.000  N
  N36      1.0000 0.37878  0.97827  0.91420  Biso   1.000  N
  O69      1.0000 0.41914  0.76678  0.03067  Biso   1.000  O
  O70      1.0000 0.54212  0.80628  0.00669  Biso   1.000  O
  O71      1.0000 0.47285  0.06697  0.78587  Biso   1.000  O
  O72      1.0000 0.58488  0.14542  0.83796  Biso   1.000  O
  S18      1.0000 0.31522  0.91410  0.96578  Biso   1.000  S
  C137     1.0000 0.48413  0.81487  0.00187  Biso   1.000  C
  C138     1.0000 0.49043  0.88267  0.96049  Biso   1.000  C
  C139     1.0000 0.55693  0.92677  0.92217  Biso   1.000  C
  H35      1.0000 0.59633  0.91387  0.92307  Biso   1.000  H
  C140     1.0000 0.56813  0.99147  0.88087  Biso   1.000  C
  H36      1.0000 0.61513  0.02057  0.85697  Biso   1.000  H
  C141     1.0000 0.51163  0.01187  0.87565  Biso   1.000  C
  C142     1.0000 0.44093  0.96697  0.91319  Biso   1.000  C
  C143     1.0000 0.43093  0.90328  0.95639  Biso   1.000  C
  C144     1.0000 0.52308  0.07894  0.83048  Biso   1.000  C
