data_image0
_cell_length_a       8.4612
_cell_length_b       13.1272
_cell_length_c       9.4855
_cell_angle_alpha    90
_cell_angle_beta     94.652
_cell_angle_gamma    90

_symmetry_space_group_name_H-M    "P 1"
_symmetry_int_tables_number       1

loop_
  _symmetry_equiv_pos_as_xyz
  'x, y, z'

loop_
  _atom_site_label
  _atom_site_occupancy
  _atom_site_fract_x
  _atom_site_fract_y
  _atom_site_fract_z
  _atom_site_thermal_displace_type
  _atom_site_B_iso_or_equiv
  _atom_site_type_symbol
  Gd1      1.0000 0.96108  0.26866  0.50806  Biso   1.000  Gd
  O1       1.0000 0.15870  0.13820  0.61090  Biso   1.000  O
  O2       1.0000 0.21720  0.21250  0.41620  Biso   1.000  O
  O3       1.0000 0.35030  0.11390  0.15790  Biso   1.000  O
  O4       1.0000 0.16800  0.01080  0.23200  Biso   1.000  O
  O5       1.0000 0.46320  0.20570  0.74890  Biso   1.000  O
  C1       1.0000 0.24660  0.14750  0.51130  Biso   1.000  C
  C2       1.0000 0.38190  0.07430  0.50220  Biso   1.000  C
  C3       1.0000 0.47600  0.04910  0.62630  Biso   1.000  C
  C4       1.0000 0.46090  0.11110  0.75660  Biso   1.000  C
  C5       1.0000 0.40780  0.02620  0.37580  Biso   1.000  C
  C6       1.0000 0.30080  0.05220  0.24330  Biso   1.000  C
  O6       1.0000 0.45050  0.06770  0.87320  Biso   1.000  O
  Gd2      1.0000 0.53892  0.76866  0.99194  Biso   1.000  Gd
  O7       1.0000 0.34130  0.63820  0.88910  Biso   1.000  O
  O8       1.0000 0.28280  0.71250  0.08380  Biso   1.000  O
  O9       1.0000 0.14970  0.61390  0.34210  Biso   1.000  O
  O10      1.0000 0.33200  0.51080  0.26800  Biso   1.000  O
  O11      1.0000 0.03680  0.70570  0.75110  Biso   1.000  O
  C7       1.0000 0.25340  0.64750  0.98870  Biso   1.000  C
  C8       1.0000 0.11810  0.57430  0.99780  Biso   1.000  C
  C9       1.0000 0.02400  0.54910  0.87370  Biso   1.000  C
  C10      1.0000 0.03910  0.61110  0.74340  Biso   1.000  C
  C11      1.0000 0.09220  0.52620  0.12420  Biso   1.000  C
  C12      1.0000 0.19920  0.55220  0.25670  Biso   1.000  C
  O12      1.0000 0.04950  0.56770  0.62680  Biso   1.000  O
  Gd3      1.0000 0.03892  0.73134  0.49194  Biso   1.000  Gd
  O13      1.0000 0.84130  0.86180  0.38910  Biso   1.000  O
  O14      1.0000 0.78280  0.78750  0.58380  Biso   1.000  O
  O15      1.0000 0.64970  0.88610  0.84210  Biso   1.000  O
  O16      1.0000 0.83200  0.98920  0.76800  Biso   1.000  O
  O17      1.0000 0.53680  0.79430  0.25110  Biso   1.000  O
  C13      1.0000 0.75340  0.85250  0.48870  Biso   1.000  C
  C14      1.0000 0.61810  0.92570  0.49780  Biso   1.000  C
  C15      1.0000 0.52400  0.95090  0.37370  Biso   1.000  C
  C16      1.0000 0.53910  0.88890  0.24340  Biso   1.000  C
  C17      1.0000 0.59220  0.97380  0.62420  Biso   1.000  C
  C18      1.0000 0.69920  0.94780  0.75670  Biso   1.000  C
  O18      1.0000 0.54950  0.93230  0.12680  Biso   1.000  O
  Gd4      1.0000 0.46108  0.23134  0.00806  Biso   1.000  Gd
  O19      1.0000 0.65870  0.36180  0.11090  Biso   1.000  O
  O20      1.0000 0.71720  0.28750  0.91620  Biso   1.000  O
  O21      1.0000 0.85030  0.38610  0.65790  Biso   1.000  O
  O22      1.0000 0.66800  0.48920  0.73200  Biso   1.000  O
  O23      1.0000 0.96320  0.29430  0.24890  Biso   1.000  O
  C19      1.0000 0.74660  0.35250  0.01130  Biso   1.000  C
  C20      1.0000 0.88190  0.42570  0.00220  Biso   1.000  C
  C21      1.0000 0.97600  0.45090  0.12630  Biso   1.000  C
  C22      1.0000 0.96090  0.38890  0.25660  Biso   1.000  C
  C23      1.0000 0.90780  0.47380  0.87580  Biso   1.000  C
  C24      1.0000 0.80080  0.44780  0.74330  Biso   1.000  C
  O24      1.0000 0.95050  0.43230  0.37320  Biso   1.000  O
