data_image0
_cell_length_a       8.5326
_cell_length_b       13.2128
_cell_length_c       9.5883
_cell_angle_alpha    90
_cell_angle_beta     94.585
_cell_angle_gamma    90

_symmetry_space_group_name_H-M    "P 1"
_symmetry_int_tables_number       1

loop_
  _symmetry_equiv_pos_as_xyz
  'x, y, z'

loop_
  _atom_site_label
  _atom_site_occupancy
  _atom_site_fract_x
  _atom_site_fract_y
  _atom_site_fract_z
  _atom_site_thermal_displace_type
  _atom_site_B_iso_or_equiv
  _atom_site_type_symbol
  Gd1      1.0000 0.53941  0.26882  0.49206  Biso   1.000  Gd
  C1       1.0000 0.53930  0.38940  0.74370  Biso   1.000  C
  C2       1.0000 0.52440  0.45090  0.87580  Biso   1.000  C
  C3       1.0000 0.61640  0.42570  0.99580  Biso   1.000  C
  C4       1.0000 0.40830  0.52700  0.87550  Biso   1.000  C
  C5       1.0000 0.75370  0.35100  0.98960  Biso   1.000  C
  C6       1.0000 0.30170  0.55140  0.74450  Biso   1.000  C
  O1       1.0000 0.55020  0.43240  0.62650  Biso   1.000  O
  O2       1.0000 0.53630  0.29360  0.75180  Biso   1.000  O
  O3       1.0000 0.78320  0.28830  0.08270  Biso   1.000  O
  O4       1.0000 0.84100  0.35980  0.88800  Biso   1.000  O
  O5       1.0000 0.35050  0.61460  0.65730  Biso   1.000  O
  O6       1.0000 0.16760  0.51010  0.73120  Biso   1.000  O
  Gd2      1.0000 0.96059  0.76882  0.00794  Biso   1.000  Gd
  C7       1.0000 0.96070  0.88940  0.75630  Biso   1.000  C
  C8       1.0000 0.97560  0.95090  0.62420  Biso   1.000  C
  C9       1.0000 0.88360  0.92570  0.50420  Biso   1.000  C
  C10      1.0000 0.09170  0.02700  0.62450  Biso   1.000  C
  C11      1.0000 0.74630  0.85100  0.51040  Biso   1.000  C
  C12      1.0000 0.19830  0.05140  0.75550  Biso   1.000  C
  O7       1.0000 0.94980  0.93240  0.87350  Biso   1.000  O
  O8       1.0000 0.96370  0.79360  0.74820  Biso   1.000  O
  O9       1.0000 0.71680  0.78830  0.41730  Biso   1.000  O
  O10      1.0000 0.65900  0.85980  0.61200  Biso   1.000  O
  O11      1.0000 0.14950  0.11460  0.84270  Biso   1.000  O
  O12      1.0000 0.33240  0.01010  0.76880  Biso   1.000  O
  Gd3      1.0000 0.46059  0.73118  0.50794  Biso   1.000  Gd
  C13      1.0000 0.46070  0.61060  0.25630  Biso   1.000  C
  C14      1.0000 0.47560  0.54910  0.12420  Biso   1.000  C
  C15      1.0000 0.38360  0.57430  0.00420  Biso   1.000  C
  C16      1.0000 0.59170  0.47300  0.12450  Biso   1.000  C
  C17      1.0000 0.24630  0.64900  0.01040  Biso   1.000  C
  C18      1.0000 0.69830  0.44860  0.25550  Biso   1.000  C
  O13      1.0000 0.44980  0.56760  0.37350  Biso   1.000  O
  O14      1.0000 0.46370  0.70640  0.24820  Biso   1.000  O
  O15      1.0000 0.21680  0.71170  0.91730  Biso   1.000  O
  O16      1.0000 0.15900  0.64020  0.11200  Biso   1.000  O
  O17      1.0000 0.64950  0.38540  0.34270  Biso   1.000  O
  O18      1.0000 0.83240  0.48990  0.26880  Biso   1.000  O
  Gd4      1.0000 0.03941  0.23118  0.99206  Biso   1.000  Gd
  C19      1.0000 0.03930  0.11060  0.24370  Biso   1.000  C
  C20      1.0000 0.02440  0.04910  0.37580  Biso   1.000  C
  C21      1.0000 0.11640  0.07430  0.49580  Biso   1.000  C
  C22      1.0000 0.90830  0.97300  0.37550  Biso   1.000  C
  C23      1.0000 0.25370  0.14900  0.48960  Biso   1.000  C
  C24      1.0000 0.80170  0.94860  0.24450  Biso   1.000  C
  O19      1.0000 0.05020  0.06760  0.12650  Biso   1.000  O
  O20      1.0000 0.03630  0.20640  0.25180  Biso   1.000  O
  O21      1.0000 0.28320  0.21170  0.58270  Biso   1.000  O
  O22      1.0000 0.34100  0.14020  0.38800  Biso   1.000  O
  O23      1.0000 0.85050  0.88540  0.15730  Biso   1.000  O
  O24      1.0000 0.66760  0.98990  0.23120  Biso   1.000  O
