data_image0
_cell_length_a       9.9179
_cell_length_b       7.4256
_cell_length_c       19.787
_cell_angle_alpha    90
_cell_angle_beta     90
_cell_angle_gamma    90

_symmetry_space_group_name_H-M    "P 1"
_symmetry_int_tables_number       1

loop_
  _symmetry_equiv_pos_as_xyz
  'x, y, z'

loop_
  _atom_site_label
  _atom_site_occupancy
  _atom_site_fract_x
  _atom_site_fract_y
  _atom_site_fract_z
  _atom_site_thermal_displace_type
  _atom_site_B_iso_or_equiv
  _atom_site_type_symbol
  N1       1.0000 0.12240  0.80740  0.17228  Biso   1.000  N
  N2       1.0000 0.08890  0.62680  0.16536  Biso   1.000  N
  C1       1.0000 0.15290  0.56670  0.11120  Biso   1.000  C
  H1       1.0000 0.14630  0.44930  0.09510  Biso   1.000  H
  N3       1.0000 0.22830  0.69520  0.08224  Biso   1.000  N
  N4       1.0000 0.37720  0.00140  0.06050  Biso   1.000  N
  N5       1.0000 0.44130  0.16100  0.06620  Biso   1.000  N
  N6       1.0000 0.28560  0.15480  0.14462  Biso   1.000  N
  C2       1.0000 0.20640  0.83880  0.12159  Biso   1.000  C
  C3       1.0000 0.28370  0.00150  0.10962  Biso   1.000  C
  N7       1.0000 0.38630  0.25250  0.11610  Biso   1.000  N
  N8       1.0000 0.87760  0.19260  0.67228  Biso   1.000  N
  N9       1.0000 0.91110  0.37320  0.66536  Biso   1.000  N
  C4       1.0000 0.84710  0.43330  0.61120  Biso   1.000  C
  H2       1.0000 0.85370  0.55070  0.59510  Biso   1.000  H
  N10      1.0000 0.77170  0.30480  0.58224  Biso   1.000  N
  N11      1.0000 0.62280  0.99860  0.56050  Biso   1.000  N
  N12      1.0000 0.55870  0.83900  0.56620  Biso   1.000  N
  N13      1.0000 0.71440  0.84520  0.64462  Biso   1.000  N
  C5       1.0000 0.79360  0.16120  0.62159  Biso   1.000  C
  C6       1.0000 0.71630  0.99850  0.60962  Biso   1.000  C
  N14      1.0000 0.61370  0.74750  0.61610  Biso   1.000  N
  N15      1.0000 0.87760  0.30740  0.32772  Biso   1.000  N
  N16      1.0000 0.91110  0.12680  0.33464  Biso   1.000  N
  C7       1.0000 0.84710  0.06670  0.38880  Biso   1.000  C
  H3       1.0000 0.85370  0.94930  0.40490  Biso   1.000  H
  N17      1.0000 0.77170  0.19520  0.41776  Biso   1.000  N
  N18      1.0000 0.62280  0.50140  0.43950  Biso   1.000  N
  N19      1.0000 0.55870  0.66100  0.43380  Biso   1.000  N
  N20      1.0000 0.71440  0.65480  0.35538  Biso   1.000  N
  C8       1.0000 0.79360  0.33880  0.37841  Biso   1.000  C
  C9       1.0000 0.71630  0.50150  0.39038  Biso   1.000  C
  N21      1.0000 0.61370  0.75250  0.38390  Biso   1.000  N
  N22      1.0000 0.12240  0.69260  0.82772  Biso   1.000  N
  N23      1.0000 0.08890  0.87320  0.83464  Biso   1.000  N
  C10      1.0000 0.15290  0.93330  0.88880  Biso   1.000  C
  H4       1.0000 0.14630  0.05070  0.90490  Biso   1.000  H
  N24      1.0000 0.22830  0.80480  0.91776  Biso   1.000  N
  N25      1.0000 0.37720  0.49860  0.93950  Biso   1.000  N
  N26      1.0000 0.44130  0.33900  0.93380  Biso   1.000  N
  N27      1.0000 0.28560  0.34520  0.85538  Biso   1.000  N
  C11      1.0000 0.20640  0.66120  0.87841  Biso   1.000  C
  C12      1.0000 0.28370  0.49850  0.89038  Biso   1.000  C
  N28      1.0000 0.38630  0.24750  0.88390  Biso   1.000  N
  N29      1.0000 0.87760  0.19260  0.82772  Biso   1.000  N
  N30      1.0000 0.91110  0.37320  0.83464  Biso   1.000  N
  C13      1.0000 0.84710  0.43330  0.88880  Biso   1.000  C
  H5       1.0000 0.85370  0.55070  0.90490  Biso   1.000  H
  N31      1.0000 0.77170  0.30480  0.91776  Biso   1.000  N
  N32      1.0000 0.62280  0.99860  0.93950  Biso   1.000  N
  N33      1.0000 0.55870  0.83900  0.93380  Biso   1.000  N
  N34      1.0000 0.71440  0.84520  0.85538  Biso   1.000  N
  C14      1.0000 0.79360  0.16120  0.87841  Biso   1.000  C
  C15      1.0000 0.71630  0.99850  0.89038  Biso   1.000  C
  N35      1.0000 0.61370  0.74750  0.88390  Biso   1.000  N
  N36      1.0000 0.12240  0.80740  0.32772  Biso   1.000  N
  N37      1.0000 0.08890  0.62680  0.33464  Biso   1.000  N
  C16      1.0000 0.15290  0.56670  0.38880  Biso   1.000  C
  H6       1.0000 0.14630  0.44930  0.40490  Biso   1.000  H
  N38      1.0000 0.22830  0.69520  0.41776  Biso   1.000  N
  N39      1.0000 0.37720  0.00140  0.43950  Biso   1.000  N
  N40      1.0000 0.44130  0.16100  0.43380  Biso   1.000  N
  N41      1.0000 0.28560  0.15480  0.35538  Biso   1.000  N
  C17      1.0000 0.20640  0.83880  0.37841  Biso   1.000  C
  C18      1.0000 0.28370  0.00150  0.39038  Biso   1.000  C
  N42      1.0000 0.38630  0.25250  0.38390  Biso   1.000  N
  N43      1.0000 0.12240  0.69260  0.67228  Biso   1.000  N
  N44      1.0000 0.08890  0.87320  0.66536  Biso   1.000  N
  C19      1.0000 0.15290  0.93330  0.61120  Biso   1.000  C
  H7       1.0000 0.14630  0.05070  0.59510  Biso   1.000  H
  N45      1.0000 0.22830  0.80480  0.58224  Biso   1.000  N
  N46      1.0000 0.37720  0.49860  0.56050  Biso   1.000  N
  N47      1.0000 0.44130  0.33900  0.56620  Biso   1.000  N
  N48      1.0000 0.28560  0.34520  0.64462  Biso   1.000  N
  C20      1.0000 0.20640  0.66120  0.62159  Biso   1.000  C
  C21      1.0000 0.28370  0.49850  0.60962  Biso   1.000  C
  N49      1.0000 0.38630  0.24750  0.61610  Biso   1.000  N
  N50      1.0000 0.87760  0.30740  0.17228  Biso   1.000  N
  N51      1.0000 0.91110  0.12680  0.16536  Biso   1.000  N
  C22      1.0000 0.84710  0.06670  0.11120  Biso   1.000  C
  H8       1.0000 0.85370  0.94930  0.09510  Biso   1.000  H
  N52      1.0000 0.77170  0.19520  0.08224  Biso   1.000  N
  N53      1.0000 0.62280  0.50140  0.06050  Biso   1.000  N
  N54      1.0000 0.55870  0.66100  0.06620  Biso   1.000  N
  N55      1.0000 0.71440  0.65480  0.14462  Biso   1.000  N
  C23      1.0000 0.79360  0.33880  0.12159  Biso   1.000  C
  C24      1.0000 0.71630  0.50150  0.10962  Biso   1.000  C
  N56      1.0000 0.61370  0.75250  0.11610  Biso   1.000  N
  Co1      1.0000 0.01125  0.97377  0.25000  Biso   1.000  Co
  Co2      1.0000 0.98875  0.02623  0.75000  Biso   1.000  Co
  Co3      1.0000 0.98875  0.47377  0.25000  Biso   1.000  Co
  Co4      1.0000 0.01125  0.52623  0.75000  Biso   1.000  Co
  Co5      1.0000 0.38947  0.75000  0.00000  Biso   1.000  Co
  Co6      1.0000 0.61053  0.25000  0.50000  Biso   1.000  Co
  Co7      1.0000 0.61053  0.25000  0.00000  Biso   1.000  Co
  Co8      1.0000 0.38947  0.75000  0.50000  Biso   1.000  Co
