data_LAYGAV_clean
_audit_creation_date              2014-07-02
_audit_creation_method            'Materials Studio'
_symmetry_space_group_name_H-M    'P1'
_symmetry_Int_Tables_number       1
_symmetry_cell_setting            triclinic
loop_
_symmetry_equiv_pos_as_xyz
  x,y,z
_cell_length_a                    13.9590
_cell_length_b                    23.4531
_cell_length_c                    25.5819
_cell_angle_alpha                 64.3706
_cell_angle_beta                  74.1673
_cell_angle_gamma                 72.6868
loop_
_atom_site_label
_atom_site_type_symbol
_atom_site_fract_x
_atom_site_fract_y
_atom_site_fract_z
_atom_site_U_iso_or_equiv
_atom_site_adp_type
_atom_site_occupancy
Co1    Co    0.62296   0.49518   0.75854   0.01267  Uiso   1.00
Co2    Co    0.54977   0.59911   0.83473   0.01267  Uiso   1.00
Co3    Co    0.68439   0.39860   0.69048   0.01267  Uiso   1.00
Co4    Co    0.12332   0.99518   0.25854   0.01267  Uiso   1.00
Co5    Co    0.01639   0.09911   0.33473   0.01267  Uiso   1.00
Co6    Co    0.22653   0.89860   0.19048   0.01267  Uiso   1.00
H1     H     0.85630   0.46500   0.78560   0.01267  Uiso   1.00
H2     H     0.03000   0.42890   0.77630   0.01267  Uiso   1.00
H3     H     0.05610   0.58500   0.79080   0.01267  Uiso   1.00
H4     H     0.88210   0.62070   0.80030   0.01267  Uiso   1.00
H5     H     0.21320   0.56720   0.74620   0.01267  Uiso   1.00
H6     H     0.38930   0.52920   0.72940   0.01267  Uiso   1.00
H7     H     0.34980   0.34870   0.79110   0.01267  Uiso   1.00
H8     H     0.17460   0.38820   0.80220   0.01267  Uiso   1.00
H9     H     0.42620   0.76220   0.69380   0.01267  Uiso   1.00
H10    H     0.35230   0.84050   0.61410   0.01267  Uiso   1.00
H11    H     0.38080   0.70970   0.55090   0.01267  Uiso   1.00
H12    H     0.46050   0.63070   0.62750   0.01267  Uiso   1.00
H13    H     0.22000   0.89200   0.56500   0.01267  Uiso   1.00
H14    H     0.13960   0.96880   0.48640   0.01267  Uiso   1.00
H15    H     0.31150   0.87430   0.38350   0.01267  Uiso   1.00
H16    H     0.38980   0.79540   0.46260   0.01267  Uiso   1.00
H17    H     0.51900   0.73380   0.84920   0.01267  Uiso   1.00
H18    H     0.39200   0.73780   0.02380   0.01267  Uiso   1.00
H19    H     0.28660   0.91130   0.05670   0.01267  Uiso   1.00
H20    H     0.39110   0.76720   0.19280   0.01267  Uiso   1.00
H21    H     0.45910   0.73570   0.10790   0.01267  Uiso   1.00
H22    H     0.38560   0.92710   0.96330   0.01267  Uiso   1.00
H23    H     0.41820   0.92900   0.86640   0.01267  Uiso   1.00
H24    H     0.41740   0.84120   0.85120   0.01267  Uiso   1.00
H25    H     0.32870   0.66830   0.99630   0.01267  Uiso   1.00
H26    H     0.38440   0.58950   0.95190   0.01267  Uiso   1.00
H27    H     0.84100   0.22950   0.81790   0.01267  Uiso   1.00
H28    H     0.90340   0.14850   0.89890   0.01267  Uiso   1.00
H29    H     0.85890   0.27590   0.97190   0.01267  Uiso   1.00
H30    H     0.78770   0.35890   0.89110   0.01267  Uiso   1.00
H31    H     0.02700   0.09830   0.95350   0.01267  Uiso   1.00
H32    H     0.84860   0.18830   0.05730   0.01267  Uiso   1.00
H33    H     0.09330   0.01650   0.03410   0.01267  Uiso   1.00
H34    H     0.93650   0.11370   0.13270   0.01267  Uiso   1.00
H35    H     0.89310   0.96500   0.28560   0.01267  Uiso   1.00
H36    H     0.76480   0.92890   0.27630   0.01267  Uiso   1.00
H37    H     0.56810   0.08500   0.29080   0.01267  Uiso   1.00
H38    H     0.69690   0.12070   0.30030   0.01267  Uiso   1.00
H39    H     0.47340   0.06720   0.24620   0.01267  Uiso   1.00
H40    H     0.35210   0.02920   0.22940   0.01267  Uiso   1.00
H41    H     0.51040   0.84870   0.29110   0.01267  Uiso   1.00
H42    H     0.63500   0.88820   0.30220   0.01267  Uiso   1.00
H43    H     0.11780   0.26220   0.19380   0.01267  Uiso   1.00
H44    H     0.19310   0.34050   0.11410   0.01267  Uiso   1.00
H45    H     0.35860   0.20970   0.05090   0.01267  Uiso   1.00
H46    H     0.28130   0.13070   0.12750   0.01267  Uiso   1.00
H47    H     0.32300   0.39200   0.06500   0.01267  Uiso   1.00
H48    H     0.40520   0.46880   0.98640   0.01267  Uiso   1.00
H49    H     0.43070   0.37430   0.88350   0.01267  Uiso   1.00
H50    H     0.35220   0.29540   0.96260   0.01267  Uiso   1.00
H51    H     0.89800   0.23380   0.34920   0.01267  Uiso   1.00
H52    H     0.84640   0.23780   0.52380   0.01267  Uiso   1.00
H53    H     0.74540   0.41130   0.55670   0.01267  Uiso   1.00
H54    H     0.64890   0.26720   0.69280   0.01267  Uiso   1.00
H55    H     0.69730   0.23570   0.60790   0.01267  Uiso   1.00
H56    H     0.72400   0.42710   0.46330   0.01267  Uiso   1.00
H57    H     0.78640   0.42900   0.36640   0.01267  Uiso   1.00
H58    H     0.89020   0.34120   0.35120   0.01267  Uiso   1.00
H59    H     0.00670   0.16830   0.49630   0.01267  Uiso   1.00
H60    H     0.07420   0.08950   0.45190   0.01267  Uiso   1.00
H61    H     0.11160   0.72950   0.31790   0.01267  Uiso   1.00
H62    H     0.04920   0.64850   0.39890   0.01267  Uiso   1.00
H63    H     0.89330   0.77590   0.47190   0.01267  Uiso   1.00
H64    H     0.96230   0.85890   0.39110   0.01267  Uiso   1.00
H65    H     0.92120   0.59830   0.45350   0.01267  Uiso   1.00
H66    H     0.90580   0.68830   0.55730   0.01267  Uiso   1.00
H67    H     0.85610   0.51650   0.53410   0.01267  Uiso   1.00
H68    H     0.81710   0.61370   0.63270   0.01267  Uiso   1.00
C1     C     0.73757   0.56346   0.80700   0.01267  Uiso   1.00
C2     C     0.85062   0.54316   0.79620   0.01267  Uiso   1.00
C3     C     0.89600   0.48950   0.78750   0.01267  Uiso   1.00
C4     C     0.00060   0.46770   0.78110   0.01267  Uiso   1.00
C5     C     0.06150   0.50530   0.78170   0.01267  Uiso   1.00
C6     C     0.01630   0.56020   0.78960   0.01267  Uiso   1.00
C7     C     0.91178   0.58154   0.79610   0.01267  Uiso   1.00
C8     C     0.17442   0.48036   0.77460   0.01267  Uiso   1.00
C9     C     0.23970   0.52350   0.75370   0.01267  Uiso   1.00
C10    C     0.34640   0.50010   0.74430   0.01267  Uiso   1.00
C11    C     0.38749   0.43642   0.75640   0.01267  Uiso   1.00
C12    C     0.49772   0.41406   0.74190   0.01267  Uiso   1.00
C13    C     0.32360   0.39280   0.78020   0.01267  Uiso   1.00
C14    C     0.21730   0.41750   0.78750   0.01267  Uiso   1.00
C15    C     0.49990   0.63650   0.71950   0.01267  Uiso   1.00
C16    C     0.45116   0.68908   0.66840   0.01267  Uiso   1.00
C17    C     0.41870   0.75100   0.66460   0.01267  Uiso   1.00
C18    C     0.37390   0.79810   0.61650   0.01267  Uiso   1.00
C19    C     0.36110   0.78340   0.57300   0.01267  Uiso   1.00
C20    C     0.39150   0.72110   0.57910   0.01267  Uiso   1.00
C21    C     0.43830   0.67300   0.62560   0.01267  Uiso   1.00
C22    C     0.31090   0.83560   0.52240   0.01267  Uiso   1.00
C23    C     0.23770   0.88770   0.52890   0.01267  Uiso   1.00
C24    C     0.18990   0.93410   0.48170   0.01267  Uiso   1.00
C25    C     0.21829   0.92802   0.42760   0.01267  Uiso   1.00
C26    C     0.16579   0.97702   0.37680   0.01267  Uiso   1.00
C27    C     0.29230   0.87750   0.42010   0.01267  Uiso   1.00
C28    C     0.33990   0.83000   0.46760   0.01267  Uiso   1.00
C29    C     0.47886   0.70748   0.88040   0.01267  Uiso   1.00
C30    C     0.41293   0.77924   0.93630   0.01267  Uiso   1.00
C31    C     0.39823   0.77664   0.99210   0.01267  Uiso   1.00
C32    C     0.39290   0.82900   0.00160   0.01267  Uiso   1.00
C33    C     0.32058   0.87174   0.08050   0.01267  Uiso   1.00
C34    C     0.37820   0.79280   0.15480   0.01267  Uiso   1.00
C35    C     0.41610   0.77460   0.10820   0.01267  Uiso   1.00
C36    C     0.39430   0.89010   0.95630   0.01267  Uiso   1.00
C37    C     0.41020   0.89080   0.89860   0.01267  Uiso   1.00
C38    C     0.41400   0.83830   0.88910   0.01267  Uiso   1.00
C39    C     0.37400   0.67200   0.96140   0.01267  Uiso   1.00
C40    C     0.40490   0.62870   0.93670   0.01267  Uiso   1.00
C41    C     0.75646   0.35458   0.79530   0.01267  Uiso   1.00
C42    C     0.80539   0.30052   0.84650   0.01267  Uiso   1.00
C43    C     0.84230   0.23910   0.84930   0.01267  Uiso   1.00
C44    C     0.88160   0.19070   0.89710   0.01267  Uiso   1.00
C45    C     0.88850   0.20570   0.94310   0.01267  Uiso   1.00
C46    C     0.85420   0.26660   0.94100   0.01267  Uiso   1.00
C47    C     0.81122   0.31686   0.89250   0.01267  Uiso   1.00
C48    C     0.93270   0.15180   0.99540   0.01267  Uiso   1.00
C49    C     0.00500   0.10150   0.99010   0.01267  Uiso   1.00
C50    C     0.90190   0.15560   0.05100   0.01267  Uiso   1.00
C51    C     0.07720   0.01010   0.14150   0.01267  Uiso   1.00
C52    C     0.02650   0.05870   0.09050   0.01267  Uiso   1.00
C53    C     0.04830   0.05330   0.03830   0.01267  Uiso   1.00
C54    C     0.95340   0.10940   0.09660   0.01267  Uiso   1.00
C55    C     0.89197   0.06346   0.30700   0.01267  Uiso   1.00
C56    C     0.81002   0.04316   0.29620   0.01267  Uiso   1.00
C57    C     0.82700   0.98950   0.28750   0.01267  Uiso   1.00
C58    C     0.75060   0.96770   0.28110   0.01267  Uiso   1.00
C59    C     0.65150   0.00530   0.28170   0.01267  Uiso   1.00
C60    C     0.63390   0.06020   0.28960   0.01267  Uiso   1.00
C61    C     0.71058   0.08154   0.29610   0.01267  Uiso   1.00
C62    C     0.57062   0.98036   0.27460   0.01267  Uiso   1.00
C63    C     0.48310   0.02350   0.25370   0.01267  Uiso   1.00
C64    C     0.40920   0.00010   0.24430   0.01267  Uiso   1.00
C65    C     0.41969   0.93642   0.25640   0.01267  Uiso   1.00
C66    C     0.34632   0.91406   0.24190   0.01267  Uiso   1.00
C67    C     0.50340   0.89280   0.28020   0.01267  Uiso   1.00
C68    C     0.57770   0.91750   0.28750   0.01267  Uiso   1.00
C69    C     0.14410   0.13650   0.21950   0.01267  Uiso   1.00
C70    C     0.19136   0.18908   0.16840   0.01267  Uiso   1.00
C71    C     0.16570   0.25100   0.16460   0.01267  Uiso   1.00
C72    C     0.21150   0.29810   0.11650   0.01267  Uiso   1.00
C73    C     0.28250   0.28340   0.07300   0.01267  Uiso   1.00
C74    C     0.30830   0.22110   0.07910   0.01267  Uiso   1.00
C75    C     0.26310   0.17300   0.12560   0.01267  Uiso   1.00
C76    C     0.33110   0.33560   0.02240   0.01267  Uiso   1.00
C77    C     0.34570   0.38770   0.02890   0.01267  Uiso   1.00
C78    C     0.39430   0.43410   0.98170   0.01267  Uiso   1.00
C79    C     0.42609   0.42802   0.92760   0.01267  Uiso   1.00
C80    C     0.48039   0.47702   0.87680   0.01267  Uiso   1.00
C81    C     0.41010   0.37750   0.92010   0.01267  Uiso   1.00
C82    C     0.36250   0.33000   0.96760   0.01267  Uiso   1.00
C83    C     0.93326   0.20748   0.38040   0.01267  Uiso   1.00
C84    C     0.87153   0.27924   0.43630   0.01267  Uiso   1.00
C85    C     0.83303   0.27664   0.49210   0.01267  Uiso   1.00
C86    C     0.77650   0.32900   0.50160   0.01267  Uiso   1.00
C87    C     0.72718   0.37174   0.58050   0.01267  Uiso   1.00
C88    C     0.67420   0.29280   0.65480   0.01267  Uiso   1.00
C89    C     0.70110   0.27460   0.60820   0.01267  Uiso   1.00
C90    C     0.75930   0.39010   0.45630   0.01267  Uiso   1.00
C91    C     0.80040   0.39080   0.39860   0.01267  Uiso   1.00
C92    C     0.85860   0.33830   0.38910   0.01267  Uiso   1.00
C93    C     0.99260   0.17200   0.46140   0.01267  Uiso   1.00
C94    C     0.02970   0.12870   0.43670   0.01267  Uiso   1.00
C95    C     0.09366   0.85458   0.29530   0.01267  Uiso   1.00
C96    C     0.04759   0.80052   0.34650   0.01267  Uiso   1.00
C97    C     0.06930   0.73910   0.34930   0.01267  Uiso   1.00
C98    C     0.03060   0.69070   0.39710   0.01267  Uiso   1.00
C99    C     0.96270   0.70570   0.44310   0.01267  Uiso   1.00
C100   C     0.93820   0.76660   0.44100   0.01267  Uiso   1.00
C101   C     0.97942   0.81686   0.39250   0.01267  Uiso   1.00
C102   C     0.92010   0.65180   0.49540   0.01267  Uiso   1.00
C103   C     0.90340   0.60150   0.49010   0.01267  Uiso   1.00
C104   C     0.89150   0.65560   0.55100   0.01267  Uiso   1.00
C105   C     0.77120   0.51010   0.64150   0.01267  Uiso   1.00
C106   C     0.82430   0.55870   0.59050   0.01267  Uiso   1.00
C107   C     0.86010   0.55330   0.53830   0.01267  Uiso   1.00
C108   C     0.84060   0.60940   0.59660   0.01267  Uiso   1.00
N1     N     0.47177   0.65066   0.88500   0.01267  Uiso   1.00
N2     N     0.42083   0.72344   0.92630   0.01267  Uiso   1.00
N3     N     0.37713   0.82614   0.06120   0.01267  Uiso   1.00
N4     N     0.31790   0.85440   0.13860   0.01267  Uiso   1.00
N5     N     0.99257   0.15066   0.38500   0.01267  Uiso   1.00
N6     N     0.92943   0.22344   0.42630   0.01267  Uiso   1.00
N7     N     0.73553   0.32614   0.56120   0.01267  Uiso   1.00
N8     N     0.68910   0.35440   0.63860   0.01267  Uiso   1.00
O1     O     0.68204   0.53492   0.79960   0.01267  Uiso   1.00
O2     O     0.69691   0.60708   0.82730   0.01267  Uiso   1.00
O3     O     0.55831   0.45405   0.71673   0.01267  Uiso   1.00
O4     O     0.53331   0.35608   0.75150   0.01267  Uiso   1.00
O5     O     0.50416   0.65376   0.75912   0.01267  Uiso   1.00
O6     O     0.53060   0.58190   0.71870   0.01267  Uiso   1.00
O7     O     0.18728   0.96774   0.33070   0.01267  Uiso   1.00
O8     O     0.10332   0.02394   0.38542   0.01267  Uiso   1.00
O9     O     0.71539   0.40681   0.79741   0.01267  Uiso   1.00
O10    O     0.76382   0.33753   0.75283   0.01267  Uiso   1.00
O11    O     0.05966   0.02118   0.18570   0.01267  Uiso   1.00
O12    O     0.14112   0.96366   0.13190   0.01267  Uiso   1.00
O13    O     0.98344   0.03492   0.29960   0.01267  Uiso   1.00
O14    O     0.86871   0.10708   0.32730   0.01267  Uiso   1.00
O15    O     0.27091   0.95405   0.21673   0.01267  Uiso   1.00
O16    O     0.35911   0.85608   0.25150   0.01267  Uiso   1.00
O17    O     0.08296   0.15376   0.25912   0.01267  Uiso   1.00
O18    O     0.16880   0.08190   0.21870   0.01267  Uiso   1.00
O19    O     0.51428   0.46774   0.83070   0.01267  Uiso   1.00
O20    O     0.48732   0.52394   0.88542   0.01267  Uiso   1.00
O21    O     0.08039   0.90681   0.29741   0.01267  Uiso   1.00
O22    O     0.14582   0.83753   0.25283   0.01267  Uiso   1.00
O23    O     0.73346   0.52118   0.68570   0.01267  Uiso   1.00
O24    O     0.76332   0.46366   0.63190   0.01267  Uiso   1.00
Co7    Co    0.87668   0.00482   0.74146   0.01267  Uiso   1.00
Co8    Co    0.98361   0.90089   0.66527   0.01267  Uiso   1.00
Co9    Co    0.77347   0.10140   0.80952   0.01267  Uiso   1.00
Co10   Co    0.37704   0.50482   0.24146   0.01267  Uiso   1.00
Co11   Co    0.45023   0.40089   0.16527   0.01267  Uiso   1.00
Co12   Co    0.31561   0.60140   0.30952   0.01267  Uiso   1.00
H69    H     0.10690   0.03500   0.71440   0.01267  Uiso   1.00
H70    H     0.23520   0.07110   0.72370   0.01267  Uiso   1.00
H71    H     0.43190   0.91500   0.70920   0.01267  Uiso   1.00
H72    H     0.30310   0.87930   0.69970   0.01267  Uiso   1.00
H73    H     0.52660   0.93280   0.75380   0.01267  Uiso   1.00
H74    H     0.64790   0.97080   0.77060   0.01267  Uiso   1.00
H75    H     0.48960   0.15130   0.70890   0.01267  Uiso   1.00
H76    H     0.36500   0.11180   0.69780   0.01267  Uiso   1.00
H77    H     0.88220   0.73780   0.80620   0.01267  Uiso   1.00
H78    H     0.80690   0.65950   0.88590   0.01267  Uiso   1.00
H79    H     0.64140   0.79030   0.94910   0.01267  Uiso   1.00
H80    H     0.71870   0.86930   0.87250   0.01267  Uiso   1.00
H81    H     0.67700   0.60800   0.93500   0.01267  Uiso   1.00
H82    H     0.59480   0.53120   0.01360   0.01267  Uiso   1.00
H83    H     0.56930   0.62570   0.11650   0.01267  Uiso   1.00
H84    H     0.64780   0.70460   0.03740   0.01267  Uiso   1.00
H85    H     0.10200   0.76620   0.65080   0.01267  Uiso   1.00
H86    H     0.15360   0.76220   0.47620   0.01267  Uiso   1.00
H87    H     0.25460   0.58870   0.44330   0.01267  Uiso   1.00
H88    H     0.35110   0.73280   0.30720   0.01267  Uiso   1.00
H89    H     0.30270   0.76430   0.39210   0.01267  Uiso   1.00
H90    H     0.27600   0.57290   0.53670   0.01267  Uiso   1.00
H91    H     0.21360   0.57100   0.63360   0.01267  Uiso   1.00
H92    H     0.10980   0.65880   0.64880   0.01267  Uiso   1.00
H93    H     0.99330   0.83170   0.50370   0.01267  Uiso   1.00
H94    H     0.92580   0.91050   0.54810   0.01267  Uiso   1.00
H95    H     0.88840   0.27050   0.68210   0.01267  Uiso   1.00
H96    H     0.95080   0.35150   0.60110   0.01267  Uiso   1.00
H97    H     0.10670   0.22410   0.52810   0.01267  Uiso   1.00
H98    H     0.03770   0.14110   0.60890   0.01267  Uiso   1.00
H99    H     0.07880   0.40170   0.54650   0.01267  Uiso   1.00
H100   H     0.09420   0.31170   0.44270   0.01267  Uiso   1.00
H101   H     0.14390   0.48350   0.46590   0.01267  Uiso   1.00
H102   H     0.18290   0.38630   0.36730   0.01267  Uiso   1.00
H103   H     0.14370   0.53500   0.21440   0.01267  Uiso   1.00
H104   H     0.97000   0.57110   0.22370   0.01267  Uiso   1.00
H105   H     0.94390   0.41500   0.20920   0.01267  Uiso   1.00
H106   H     0.11790   0.37930   0.19970   0.01267  Uiso   1.00
H107   H     0.78680   0.43280   0.25380   0.01267  Uiso   1.00
H108   H     0.61070   0.47080   0.27060   0.01267  Uiso   1.00
H109   H     0.65020   0.65130   0.20890   0.01267  Uiso   1.00
H110   H     0.82540   0.61180   0.19780   0.01267  Uiso   1.00
H111   H     0.57380   0.23780   0.30620   0.01267  Uiso   1.00
H112   H     0.64770   0.15950   0.38590   0.01267  Uiso   1.00
H113   H     0.61920   0.29030   0.44910   0.01267  Uiso   1.00
H114   H     0.53950   0.36930   0.37250   0.01267  Uiso   1.00
H115   H     0.78000   0.10800   0.43500   0.01267  Uiso   1.00
H116   H     0.86040   0.03120   0.51360   0.01267  Uiso   1.00
H117   H     0.68850   0.12570   0.61650   0.01267  Uiso   1.00
H118   H     0.61020   0.20460   0.53740   0.01267  Uiso   1.00
H119   H     0.48100   0.26620   0.15080   0.01267  Uiso   1.00
H120   H     0.60800   0.26220   0.97620   0.01267  Uiso   1.00
H121   H     0.71340   0.08870   0.94330   0.01267  Uiso   1.00
H122   H     0.60890   0.23280   0.80720   0.01267  Uiso   1.00
H123   H     0.54090   0.26430   0.89210   0.01267  Uiso   1.00
H124   H     0.61440   0.07290   0.03670   0.01267  Uiso   1.00
H125   H     0.58180   0.07100   0.13360   0.01267  Uiso   1.00
H126   H     0.58260   0.15880   0.14880   0.01267  Uiso   1.00
H127   H     0.67130   0.33170   0.00370   0.01267  Uiso   1.00
H128   H     0.61560   0.41050   0.04810   0.01267  Uiso   1.00
H129   H     0.15900   0.77050   0.18210   0.01267  Uiso   1.00
H130   H     0.09660   0.85150   0.10110   0.01267  Uiso   1.00
H131   H     0.14110   0.72410   0.02810   0.01267  Uiso   1.00
H132   H     0.21230   0.64110   0.10890   0.01267  Uiso   1.00
H133   H     0.97300   0.90170   0.04650   0.01267  Uiso   1.00
H134   H     0.15140   0.81170   0.94270   0.01267  Uiso   1.00
H135   H     0.90670   0.98350   0.96590   0.01267  Uiso   1.00
H136   H     0.06350   0.88630   0.86730   0.01267  Uiso   1.00
C109   C     0.10803   0.93654   0.69300   0.01267  Uiso   1.00
C110   C     0.18998   0.95684   0.70380   0.01267  Uiso   1.00
C111   C     0.17300   0.01050   0.71250   0.01267  Uiso   1.00
C112   C     0.24940   0.03230   0.71890   0.01267  Uiso   1.00
C113   C     0.34850   0.99470   0.71830   0.01267  Uiso   1.00
C114   C     0.36610   0.93980   0.71040   0.01267  Uiso   1.00
C115   C     0.28942   0.91846   0.70390   0.01267  Uiso   1.00
C116   C     0.42938   0.01964   0.72540   0.01267  Uiso   1.00
C117   C     0.51690   0.97650   0.74630   0.01267  Uiso   1.00
C118   C     0.59080   0.99990   0.75570   0.01267  Uiso   1.00
C119   C     0.58031   0.06358   0.74360   0.01267  Uiso   1.00
C120   C     0.65368   0.08594   0.75810   0.01267  Uiso   1.00
C121   C     0.49660   0.10720   0.71980   0.01267  Uiso   1.00
C122   C     0.42230   0.08250   0.71250   0.01267  Uiso   1.00
C123   C     0.85590   0.86350   0.78050   0.01267  Uiso   1.00
C124   C     0.80864   0.81092   0.83160   0.01267  Uiso   1.00
C125   C     0.83430   0.74900   0.83540   0.01267  Uiso   1.00
C126   C     0.78850   0.70190   0.88350   0.01267  Uiso   1.00
C127   C     0.71750   0.71660   0.92700   0.01267  Uiso   1.00
C128   C     0.69170   0.77890   0.92090   0.01267  Uiso   1.00
C129   C     0.73690   0.82700   0.87440   0.01267  Uiso   1.00
C130   C     0.66890   0.66440   0.97760   0.01267  Uiso   1.00
C131   C     0.65430   0.61230   0.97110   0.01267  Uiso   1.00
C132   C     0.60570   0.56590   0.01830   0.01267  Uiso   1.00
C133   C     0.57391   0.57198   0.07240   0.01267  Uiso   1.00
C134   C     0.51961   0.52298   0.12320   0.01267  Uiso   1.00
C135   C     0.58990   0.62250   0.07990   0.01267  Uiso   1.00
C136   C     0.63750   0.67000   0.03240   0.01267  Uiso   1.00
C137   C     0.06674   0.79252   0.61960   0.01267  Uiso   1.00
C138   C     0.12847   0.72076   0.56370   0.01267  Uiso   1.00
C139   C     0.16697   0.72336   0.50790   0.01267  Uiso   1.00
C140   C     0.22350   0.67100   0.49840   0.01267  Uiso   1.00
C141   C     0.27282   0.62826   0.41950   0.01267  Uiso   1.00
C142   C     0.32580   0.70720   0.34520   0.01267  Uiso   1.00
C143   C     0.29890   0.72540   0.39180   0.01267  Uiso   1.00
C144   C     0.24070   0.60990   0.54370   0.01267  Uiso   1.00
C145   C     0.19960   0.60920   0.60140   0.01267  Uiso   1.00
C146   C     0.14140   0.66170   0.61090   0.01267  Uiso   1.00
C147   C     0.00740   0.82800   0.53860   0.01267  Uiso   1.00
C148   C     0.97030   0.87130   0.56330   0.01267  Uiso   1.00
C149   C     0.90634   0.14542   0.70470   0.01267  Uiso   1.00
C150   C     0.95241   0.19948   0.65350   0.01267  Uiso   1.00
C151   C     0.93070   0.26090   0.65070   0.01267  Uiso   1.00
C152   C     0.96940   0.30930   0.60290   0.01267  Uiso   1.00
C153   C     0.03730   0.29430   0.55690   0.01267  Uiso   1.00
C154   C     0.06180   0.23340   0.55900   0.01267  Uiso   1.00
C155   C     0.02058   0.18314   0.60750   0.01267  Uiso   1.00
C156   C     0.07990   0.34820   0.50460   0.01267  Uiso   1.00
C157   C     0.09660   0.39850   0.50990   0.01267  Uiso   1.00
C158   C     0.10850   0.34440   0.44900   0.01267  Uiso   1.00
C159   C     0.22880   0.48990   0.35850   0.01267  Uiso   1.00
C160   C     0.17570   0.44130   0.40950   0.01267  Uiso   1.00
C161   C     0.13990   0.44670   0.46170   0.01267  Uiso   1.00
C162   C     0.15940   0.39060   0.40340   0.01267  Uiso   1.00
C163   C     0.26243   0.43654   0.19300   0.01267  Uiso   1.00
C164   C     0.14938   0.45684   0.20380   0.01267  Uiso   1.00
C165   C     0.10400   0.51050   0.21250   0.01267  Uiso   1.00
C166   C     0.99940   0.53230   0.21890   0.01267  Uiso   1.00
C167   C     0.93850   0.49470   0.21830   0.01267  Uiso   1.00
C168   C     0.98370   0.43980   0.21040   0.01267  Uiso   1.00
C169   C     0.08822   0.41846   0.20390   0.01267  Uiso   1.00
C170   C     0.82558   0.51964   0.22540   0.01267  Uiso   1.00
C171   C     0.76030   0.47650   0.24630   0.01267  Uiso   1.00
C172   C     0.65360   0.49990   0.25570   0.01267  Uiso   1.00
C173   C     0.61251   0.56358   0.24360   0.01267  Uiso   1.00
C174   C     0.50228   0.58594   0.25810   0.01267  Uiso   1.00
C175   C     0.67640   0.60720   0.21980   0.01267  Uiso   1.00
C176   C     0.78270   0.58250   0.21250   0.01267  Uiso   1.00
C177   C     0.50010   0.36350   0.28050   0.01267  Uiso   1.00
C178   C     0.54884   0.31092   0.33160   0.01267  Uiso   1.00
C179   C     0.58130   0.24900   0.33540   0.01267  Uiso   1.00
C180   C     0.62610   0.20190   0.38350   0.01267  Uiso   1.00
C181   C     0.63890   0.21660   0.42700   0.01267  Uiso   1.00
C182   C     0.60850   0.27890   0.42090   0.01267  Uiso   1.00
C183   C     0.56170   0.32700   0.37440   0.01267  Uiso   1.00
C184   C     0.68910   0.16440   0.47760   0.01267  Uiso   1.00
C185   C     0.76230   0.11230   0.47110   0.01267  Uiso   1.00
C186   C     0.81010   0.06590   0.51830   0.01267  Uiso   1.00
C187   C     0.78171   0.07198   0.57240   0.01267  Uiso   1.00
C188   C     0.83421   0.02298   0.62320   0.01267  Uiso   1.00
C189   C     0.70770   0.12250   0.57990   0.01267  Uiso   1.00
C190   C     0.66010   0.17000   0.53240   0.01267  Uiso   1.00
C191   C     0.52114   0.29252   0.11960   0.01267  Uiso   1.00
C192   C     0.58707   0.22076   0.06370   0.01267  Uiso   1.00
C193   C     0.60177   0.22336   0.00790   0.01267  Uiso   1.00
C194   C     0.60710   0.17100   0.99840   0.01267  Uiso   1.00
C195   C     0.67942   0.12826   0.91950   0.01267  Uiso   1.00
C196   C     0.62180   0.20720   0.84520   0.01267  Uiso   1.00
C197   C     0.58390   0.22540   0.89180   0.01267  Uiso   1.00
C198   C     0.60570   0.10990   0.04370   0.01267  Uiso   1.00
C199   C     0.58980   0.10920   0.10140   0.01267  Uiso   1.00
C200   C     0.58600   0.16170   0.11090   0.01267  Uiso   1.00
C201   C     0.62600   0.32800   0.03860   0.01267  Uiso   1.00
C202   C     0.59510   0.37130   0.06330   0.01267  Uiso   1.00
C203   C     0.24354   0.64542   0.20470   0.01267  Uiso   1.00
C204   C     0.19461   0.69948   0.15350   0.01267  Uiso   1.00
C205   C     0.15770   0.76090   0.15070   0.01267  Uiso   1.00
C206   C     0.11840   0.80930   0.10290   0.01267  Uiso   1.00
C207   C     0.11150   0.79430   0.05690   0.01267  Uiso   1.00
C208   C     0.14580   0.73340   0.05900   0.01267  Uiso   1.00
C209   C     0.18878   0.68314   0.10750   0.01267  Uiso   1.00
C210   C     0.06730   0.84820   0.00460   0.01267  Uiso   1.00
C211   C     0.99500   0.89850   0.00990   0.01267  Uiso   1.00
C212   C     0.09810   0.84440   0.94900   0.01267  Uiso   1.00
C213   C     0.92280   0.98990   0.85850   0.01267  Uiso   1.00
C214   C     0.97350   0.94130   0.90950   0.01267  Uiso   1.00
C215   C     0.95170   0.94670   0.96170   0.01267  Uiso   1.00
C216   C     0.04660   0.89060   0.90340   0.01267  Uiso   1.00
N9     N     0.00743   0.84934   0.61500   0.01267  Uiso   1.00
N10    N     0.07057   0.77656   0.57370   0.01267  Uiso   1.00
N11    N     0.26447   0.67386   0.43880   0.01267  Uiso   1.00
N12    N     0.31090   0.64560   0.36140   0.01267  Uiso   1.00
N13    N     0.52823   0.34934   0.11500   0.01267  Uiso   1.00
N14    N     0.57917   0.27656   0.07370   0.01267  Uiso   1.00
N15    N     0.62287   0.17386   0.93880   0.01267  Uiso   1.00
N16    N     0.68210   0.14560   0.86140   0.01267  Uiso   1.00
O25    O     0.01656   0.96508   0.70040   0.01267  Uiso   1.00
O26    O     0.13129   0.89292   0.67270   0.01267  Uiso   1.00
O27    O     0.72909   0.04595   0.78327   0.01267  Uiso   1.00
O28    O     0.64089   0.14392   0.74850   0.01267  Uiso   1.00
O29    O     0.91704   0.84624   0.74088   0.01267  Uiso   1.00
O30    O     0.83120   0.91810   0.78130   0.01267  Uiso   1.00
O31    O     0.48572   0.53226   0.16930   0.01267  Uiso   1.00
O32    O     0.51268   0.47606   0.11458   0.01267  Uiso   1.00
O33    O     0.91961   0.09319   0.70259   0.01267  Uiso   1.00
O34    O     0.85418   0.16247   0.74717   0.01267  Uiso   1.00
O35    O     0.26654   0.47882   0.31430   0.01267  Uiso   1.00
O36    O     0.23668   0.53634   0.36810   0.01267  Uiso   1.00
O37    O     0.31796   0.46508   0.20040   0.01267  Uiso   1.00
O38    O     0.30309   0.39292   0.17270   0.01267  Uiso   1.00
O39    O     0.44169   0.54595   0.28327   0.01267  Uiso   1.00
O40    O     0.46669   0.64392   0.24850   0.01267  Uiso   1.00
O41    O     0.49584   0.34624   0.24088   0.01267  Uiso   1.00
O42    O     0.46940   0.41810   0.28130   0.01267  Uiso   1.00
O43    O     0.81272   0.03226   0.66930   0.01267  Uiso   1.00
O44    O     0.89668   0.97606   0.61458   0.01267  Uiso   1.00
O45    O     0.28461   0.59319   0.20259   0.01267  Uiso   1.00
O46    O     0.23618   0.66247   0.24717   0.01267  Uiso   1.00
O47    O     0.94034   0.97882   0.81430   0.01267  Uiso   1.00
O48    O     0.85888   0.03634   0.86810   0.01267  Uiso   1.00
