data_LAZHUR_clean
_audit_creation_date              2014-07-02
_audit_creation_method            'Materials Studio'
_symmetry_space_group_name_H-M    'P1'
_symmetry_Int_Tables_number       1
_symmetry_cell_setting            triclinic
loop_
_symmetry_equiv_pos_as_xyz
  x,y,z
_cell_length_a                    9.3137
_cell_length_b                    10.4063
_cell_length_c                    23.8890
_cell_angle_alpha                 91.6030
_cell_angle_beta                  90.0000
_cell_angle_gamma                 90.0000
loop_
_atom_site_label
_atom_site_type_symbol
_atom_site_fract_x
_atom_site_fract_y
_atom_site_fract_z
_atom_site_U_iso_or_equiv
_atom_site_adp_type
_atom_site_occupancy
Co1    Co    0.14072   0.00000   0.75000   0.01267  Uiso   1.00
Co2    Co    0.85928   0.00000   0.25000   0.01267  Uiso   1.00
Co3    Co    0.50000   0.50000   0.50000   0.01267  Uiso   1.00
Co4    Co    0.50000   0.50000  -0.00000   0.01267  Uiso   1.00
H1     H     0.86940   0.81210   0.62790   0.01267  Uiso   1.00
H2     H     0.29210   0.40090   0.30120   0.01267  Uiso   1.00
H3     H     0.18810   0.30860   0.26720   0.01267  Uiso   1.00
H4     H     0.92480   0.63570   0.38230   0.01267  Uiso   1.00
H5     H     0.51590   0.90850   0.54420   0.01267  Uiso   1.00
H6     H     0.74650   0.64920   0.44690   0.01267  Uiso   1.00
H7     H     0.73390   0.17710   0.63190   0.01267  Uiso   1.00
H8     H     0.56840   0.34240   0.16080   0.01267  Uiso   1.00
H9     H     0.81890   0.26760   0.35530   0.01267  Uiso   1.00
H10    H     0.40910   0.21810   0.30480   0.01267  Uiso   1.00
H11    H     0.53930   0.11860   0.57640   0.01267  Uiso   1.00
H12    H     0.63990   0.29500   0.41910   0.01267  Uiso   1.00
H13    H     0.60600   0.09040   0.31180   0.01267  Uiso   1.00
H14    H     0.76400   0.21470   0.17390   0.01267  Uiso   1.00
H15    H     0.12360   0.57010   0.33070   0.01267  Uiso   1.00
H16    H     0.99910   0.60990   0.29020   0.01267  Uiso   1.00
H17    H     0.86940   0.18790   0.87210   0.01267  Uiso   1.00
H18    H     0.29210   0.59910   0.19880   0.01267  Uiso   1.00
H19    H     0.18810   0.69140   0.23280   0.01267  Uiso   1.00
H20    H     0.92480   0.36430   0.11770   0.01267  Uiso   1.00
H21    H     0.51590   0.09150   0.95580   0.01267  Uiso   1.00
H22    H     0.74650   0.35080   0.05310   0.01267  Uiso   1.00
H23    H     0.73390   0.82290   0.86810   0.01267  Uiso   1.00
H24    H     0.56840   0.65760   0.33920   0.01267  Uiso   1.00
H25    H     0.81890   0.73240   0.14470   0.01267  Uiso   1.00
H26    H     0.40910   0.78190   0.19520   0.01267  Uiso   1.00
H27    H     0.53930   0.88140   0.92360   0.01267  Uiso   1.00
H28    H     0.63990   0.70500   0.08090   0.01267  Uiso   1.00
H29    H     0.60600   0.90960   0.18820   0.01267  Uiso   1.00
H30    H     0.76400   0.78530   0.32610   0.01267  Uiso   1.00
H31    H     0.12360   0.42990   0.16930   0.01267  Uiso   1.00
H32    H     0.99910   0.39010   0.20980   0.01267  Uiso   1.00
H33    H     0.13060   0.18790   0.37210   0.01267  Uiso   1.00
H34    H     0.70790   0.59910   0.69880   0.01267  Uiso   1.00
H35    H     0.81190   0.69140   0.73280   0.01267  Uiso   1.00
H36    H     0.07520   0.36430   0.61770   0.01267  Uiso   1.00
H37    H     0.48410   0.09150   0.45580   0.01267  Uiso   1.00
H38    H     0.25350   0.35080   0.55310   0.01267  Uiso   1.00
H39    H     0.26610   0.82290   0.36810   0.01267  Uiso   1.00
H40    H     0.43160   0.65760   0.83920   0.01267  Uiso   1.00
H41    H     0.18110   0.73240   0.64470   0.01267  Uiso   1.00
H42    H     0.59090   0.78190   0.69520   0.01267  Uiso   1.00
H43    H     0.46070   0.88140   0.42360   0.01267  Uiso   1.00
H44    H     0.36010   0.70500   0.58090   0.01267  Uiso   1.00
H45    H     0.39400   0.90960   0.68820   0.01267  Uiso   1.00
H46    H     0.23600   0.78530   0.82610   0.01267  Uiso   1.00
H47    H     0.87640   0.42990   0.66930   0.01267  Uiso   1.00
H48    H     0.00090   0.39010   0.70980   0.01267  Uiso   1.00
H49    H     0.13060   0.81210   0.12790   0.01267  Uiso   1.00
H50    H     0.70790   0.40090   0.80120   0.01267  Uiso   1.00
H51    H     0.81190   0.30860   0.76720   0.01267  Uiso   1.00
H52    H     0.07520   0.63570   0.88230   0.01267  Uiso   1.00
H53    H     0.48410   0.90850   0.04420   0.01267  Uiso   1.00
H54    H     0.25350   0.64920   0.94690   0.01267  Uiso   1.00
H55    H     0.26610   0.17710   0.13190   0.01267  Uiso   1.00
H56    H     0.43160   0.34240   0.66080   0.01267  Uiso   1.00
H57    H     0.18110   0.26760   0.85530   0.01267  Uiso   1.00
H58    H     0.59090   0.21810   0.80480   0.01267  Uiso   1.00
H59    H     0.46070   0.11860   0.07640   0.01267  Uiso   1.00
H60    H     0.36010   0.29500   0.91910   0.01267  Uiso   1.00
H61    H     0.39400   0.09040   0.81180   0.01267  Uiso   1.00
H62    H     0.23600   0.21470   0.67390   0.01267  Uiso   1.00
H63    H     0.87640   0.57010   0.83070   0.01267  Uiso   1.00
H64    H     0.00090   0.60990   0.79020   0.01267  Uiso   1.00
C1     C     0.80380   0.87410   0.61720   0.01267  Uiso   1.00
C2     C     0.24650   0.38550   0.26518   0.01267  Uiso   1.00
C3     C     0.86620   0.56500   0.38829   0.01267  Uiso   1.00
C4     C     0.59200   0.93130   0.56765   0.01267  Uiso   1.00
C5     C     0.82230   0.00120   0.63519   0.01267  Uiso   1.00
C6     C     0.68850   0.83910   0.58340   0.01267  Uiso   1.00
C7     C     0.94630   0.03900   0.67094   0.01267  Uiso   1.00
C8     C     0.88610   0.45100   0.35798   0.01267  Uiso   1.00
C9     C     0.46490   0.29410   0.23152   0.01267  Uiso   1.00
C10    C     0.75870   0.57160   0.42718   0.01267  Uiso   1.00
C11    C     0.66920   0.69980   0.56585   0.01267  Uiso   1.00
C12    C     0.72290   0.09200   0.61973   0.01267  Uiso   1.00
C13    C     0.57410   0.29200   0.19224   0.01267  Uiso   1.00
C14    C     0.80330   0.34810   0.37210   0.01267  Uiso   1.00
C15    C     0.47930   0.21820   0.27711   0.01267  Uiso   1.00
C16    C     0.60680   0.05730   0.58626   0.01267  Uiso   1.00
C17    C     0.69740   0.36540   0.41120   0.01267  Uiso   1.00
C18    C     0.59840   0.14300   0.28113   0.01267  Uiso   1.00
C19    C     0.69100   0.21450   0.20041   0.01267  Uiso   1.00
C20    C     0.06270   0.54030   0.30009   0.01267  Uiso   1.00
C21    C     0.80380   0.12590   0.88280   0.01267  Uiso   1.00
C22    C     0.24650   0.61450   0.23482   0.01267  Uiso   1.00
C23    C     0.86620   0.43500   0.11171   0.01267  Uiso   1.00
C24    C     0.59200   0.06870   0.93235   0.01267  Uiso   1.00
C25    C     0.82230   0.99880   0.86481   0.01267  Uiso   1.00
C26    C     0.68850   0.16090   0.91660   0.01267  Uiso   1.00
C27    C     0.94630   0.96100   0.82906   0.01267  Uiso   1.00
C28    C     0.88610   0.54900   0.14202   0.01267  Uiso   1.00
C29    C     0.46490   0.70590   0.26848   0.01267  Uiso   1.00
C30    C     0.75870   0.42840   0.07282   0.01267  Uiso   1.00
C31    C     0.66920   0.30020   0.93415   0.01267  Uiso   1.00
C32    C     0.72290   0.90800   0.88027   0.01267  Uiso   1.00
C33    C     0.57410   0.70800   0.30776   0.01267  Uiso   1.00
C34    C     0.80330   0.65190   0.12790   0.01267  Uiso   1.00
C35    C     0.47930   0.78180   0.22289   0.01267  Uiso   1.00
C36    C     0.60680   0.94270   0.91374   0.01267  Uiso   1.00
C37    C     0.69740   0.63460   0.08880   0.01267  Uiso   1.00
C38    C     0.59840   0.85700   0.21887   0.01267  Uiso   1.00
C39    C     0.69100   0.78550   0.29959   0.01267  Uiso   1.00
C40    C     0.06270   0.45970   0.19991   0.01267  Uiso   1.00
C41    C     0.19620   0.12590   0.38280   0.01267  Uiso   1.00
C42    C     0.75350   0.61450   0.73482   0.01267  Uiso   1.00
C43    C     0.13380   0.43500   0.61171   0.01267  Uiso   1.00
C44    C     0.40800   0.06870   0.43235   0.01267  Uiso   1.00
C45    C     0.17770   0.99880   0.36481   0.01267  Uiso   1.00
C46    C     0.31150   0.16090   0.41660   0.01267  Uiso   1.00
C47    C     0.05370   0.96100   0.32906   0.01267  Uiso   1.00
C48    C     0.11390   0.54900   0.64202   0.01267  Uiso   1.00
C49    C     0.53510   0.70590   0.76848   0.01267  Uiso   1.00
C50    C     0.24130   0.42840   0.57282   0.01267  Uiso   1.00
C51    C     0.33080   0.30020   0.43415   0.01267  Uiso   1.00
C52    C     0.27710   0.90800   0.38027   0.01267  Uiso   1.00
C53    C     0.42590   0.70800   0.80776   0.01267  Uiso   1.00
C54    C     0.19670   0.65190   0.62790   0.01267  Uiso   1.00
C55    C     0.52070   0.78180   0.72289   0.01267  Uiso   1.00
C56    C     0.39320   0.94270   0.41374   0.01267  Uiso   1.00
C57    C     0.30260   0.63460   0.58880   0.01267  Uiso   1.00
C58    C     0.40160   0.85700   0.71887   0.01267  Uiso   1.00
C59    C     0.30900   0.78550   0.79959   0.01267  Uiso   1.00
C60    C     0.93730   0.45970   0.69991   0.01267  Uiso   1.00
C61    C     0.19620   0.87410   0.11720   0.01267  Uiso   1.00
C62    C     0.75350   0.38550   0.76518   0.01267  Uiso   1.00
C63    C     0.13380   0.56500   0.88829   0.01267  Uiso   1.00
C64    C     0.40800   0.93130   0.06765   0.01267  Uiso   1.00
C65    C     0.17770   0.00120   0.13519   0.01267  Uiso   1.00
C66    C     0.31150   0.83910   0.08340   0.01267  Uiso   1.00
C67    C     0.05370   0.03900   0.17094   0.01267  Uiso   1.00
C68    C     0.11390   0.45100   0.85798   0.01267  Uiso   1.00
C69    C     0.53510   0.29410   0.73152   0.01267  Uiso   1.00
C70    C     0.24130   0.57160   0.92718   0.01267  Uiso   1.00
C71    C     0.33080   0.69980   0.06585   0.01267  Uiso   1.00
C72    C     0.27710   0.09200   0.11973   0.01267  Uiso   1.00
C73    C     0.42590   0.29200   0.69224   0.01267  Uiso   1.00
C74    C     0.19670   0.34810   0.87210   0.01267  Uiso   1.00
C75    C     0.52070   0.21820   0.77711   0.01267  Uiso   1.00
C76    C     0.39320   0.05730   0.08626   0.01267  Uiso   1.00
C77    C     0.30260   0.36540   0.91120   0.01267  Uiso   1.00
C78    C     0.40160   0.14300   0.78113   0.01267  Uiso   1.00
C79    C     0.30900   0.21450   0.70041   0.01267  Uiso   1.00
C80    C     0.93730   0.54030   0.80009   0.01267  Uiso   1.00
C81    C     0.15420   0.50000   0.25000   0.01267  Uiso   1.00
C82    C     0.84580   0.50000   0.75000   0.01267  Uiso   1.00
N1     N     0.70590   0.14000   0.24343   0.01267  Uiso   1.00
N2     N     0.67030   0.47580   0.43907   0.01267  Uiso   1.00
N3     N     0.70590   0.86000   0.25657   0.01267  Uiso   1.00
N4     N     0.67030   0.52420   0.06093   0.01267  Uiso   1.00
N5     N     0.29410   0.86000   0.75657   0.01267  Uiso   1.00
N6     N     0.32970   0.52420   0.56093   0.01267  Uiso   1.00
N7     N     0.29410   0.14000   0.74343   0.01267  Uiso   1.00
N8     N     0.32970   0.47580   0.93907   0.01267  Uiso   1.00
O1     O     0.73580   0.61830   0.59217   0.01267  Uiso   1.00
O2     O     0.58080   0.67590   0.52710   0.01267  Uiso   1.00
O3     O     0.03670   0.95230   0.68210   0.01267  Uiso   1.00
O4     O     0.95820   0.14890   0.68996   0.01267  Uiso   1.00
O5     O     0.98100   0.43210   0.31657   0.01267  Uiso   1.00
O6     O     0.35320   0.37030   0.22187   0.01267  Uiso   1.00
O7     O     0.73580   0.38170   0.90783   0.01267  Uiso   1.00
O8     O     0.58080   0.32410   0.97290   0.01267  Uiso   1.00
O9     O     0.03670   0.04770   0.81790   0.01267  Uiso   1.00
O10    O     0.95820   0.85110   0.81004   0.01267  Uiso   1.00
O11    O     0.98100   0.56790   0.18343   0.01267  Uiso   1.00
O12    O     0.35320   0.62970   0.27813   0.01267  Uiso   1.00
O13    O     0.26420   0.38170   0.40783   0.01267  Uiso   1.00
O14    O     0.41920   0.32410   0.47290   0.01267  Uiso   1.00
O15    O     0.96330   0.04770   0.31790   0.01267  Uiso   1.00
O16    O     0.04180   0.85110   0.31004   0.01267  Uiso   1.00
O17    O     0.01900   0.56790   0.68343   0.01267  Uiso   1.00
O18    O     0.64680   0.62970   0.77813   0.01267  Uiso   1.00
O19    O     0.26420   0.61830   0.09217   0.01267  Uiso   1.00
O20    O     0.41920   0.67590   0.02710   0.01267  Uiso   1.00
O21    O     0.96330   0.95230   0.18210   0.01267  Uiso   1.00
O22    O     0.04180   0.14890   0.18996   0.01267  Uiso   1.00
O23    O     0.01900   0.43210   0.81657   0.01267  Uiso   1.00
O24    O     0.64680   0.37030   0.72187   0.01267  Uiso   1.00
