data_LAZJAZ_SL
_audit_creation_date              2015-05-20
_audit_creation_method            'Materials Studio'
_symmetry_space_group_name_H-M    'P1'
_symmetry_Int_Tables_number       1
_symmetry_cell_setting            triclinic
loop_
_symmetry_equiv_pos_as_xyz
  x,y,z
_cell_length_a                    9.0056
_cell_length_b                    10.7263
_cell_length_c                    12.9899
_cell_angle_alpha                 104.0470
_cell_angle_beta                  90.0000
_cell_angle_gamma                 90.0000
loop_
_atom_site_label
_atom_site_type_symbol
_atom_site_fract_x
_atom_site_fract_y
_atom_site_fract_z
_atom_site_U_iso_or_equiv
_atom_site_adp_type
_atom_site_occupancy
Zn1    Zn    0.61926   0.50000   1.00000   0.01267  Uiso   1.00
Zn2    Zn    0.93446  -0.00000   0.50000   0.01267  Uiso   1.00
H3     H     0.77580   0.17950   0.38680   0.01267  Uiso   1.00
H4     H     0.60280   0.17000   0.25630   0.01267  Uiso   1.00
H5     H     0.61950   0.78750   0.20130   0.01267  Uiso   1.00
H6     H     0.77450   0.81010   0.34070   0.01267  Uiso   1.00
H7     H     0.51170   0.11530   0.07730   0.01267  Uiso   1.00
H8     H     0.37730   0.10810   0.15340   0.01267  Uiso   1.00
H9     H     0.30260   0.82160   0.02970   0.01267  Uiso   1.00
H10    H     0.20030   0.92910   0.09830   0.01267  Uiso   1.00
H11    H     0.90030   0.80880   0.84390   0.01267  Uiso   1.00
H12    H     0.70770   0.68080   0.86600   0.01267  Uiso   1.00
H13    H     0.88790   0.61900   0.11830   0.01267  Uiso   1.00
H14    H     0.08900   0.74240   0.10210   0.01267  Uiso   1.00
H15    H     0.31150   0.29570   0.75570   0.01267  Uiso   1.00
H16    H     0.99240   0.40700   0.58310   0.01267  Uiso   1.00
H17    H     0.23770   0.66760   0.78260   0.01267  Uiso   1.00
H18    H     0.77580   0.82050   0.61320   0.01267  Uiso   1.00
H19    H     0.60280   0.83000   0.74370   0.01267  Uiso   1.00
H20    H     0.61950   0.21250   0.79870   0.01267  Uiso   1.00
H21    H     0.77450   0.18990   0.65930   0.01267  Uiso   1.00
H22    H     0.51170   0.88470   0.92270   0.01267  Uiso   1.00
H23    H     0.37730   0.89190   0.84660   0.01267  Uiso   1.00
H24    H     0.30260   0.17840   0.97030   0.01267  Uiso   1.00
H25    H     0.20030   0.07090   0.90170   0.01267  Uiso   1.00
H26    H     0.90030   0.19120   0.15610   0.01267  Uiso   1.00
H27    H     0.70770   0.31920   0.13400   0.01267  Uiso   1.00
H28    H     0.88790   0.38100   0.88170   0.01267  Uiso   1.00
H29    H     0.08900   0.25760   0.89790   0.01267  Uiso   1.00
H30    H     0.31150   0.70430   0.24430   0.01267  Uiso   1.00
H31    H     0.99240   0.59300   0.41690   0.01267  Uiso   1.00
H32    H     0.23770   0.33240   0.21740   0.01267  Uiso   1.00
C33    C     0.74220   0.09930   0.34940   0.01267  Uiso   1.00
C34    C     0.64080   0.09490   0.26980   0.01267  Uiso   1.00
C35    C     0.59630   0.97470   0.20960   0.01267  Uiso   1.00
C36    C     0.64870   0.86920   0.23840   0.01267  Uiso   1.00
C37    C     0.74320   0.88360   0.32090   0.01267  Uiso   1.00
C38    C     0.43760   0.05890   0.09580   0.01267  Uiso   1.00
C39    C     0.24330   0.89680   0.02850   0.01267  Uiso   1.00
C40    C     0.01830   0.78840   0.96970   0.01267  Uiso   1.00
C41    C     0.90110   0.76960   0.90040   0.01267  Uiso   1.00
C42    C     0.78570   0.69320   0.91430   0.01267  Uiso   1.00
C43    C     0.89140   0.65690   0.06110   0.01267  Uiso   1.00
C44    C     0.01250   0.73130   0.05250   0.01267  Uiso   1.00
C45    C     0.42170   0.52350   0.85670   0.01267  Uiso   1.00
C46    C     0.29570   0.48760   0.77980   0.01267  Uiso   1.00
C47    C     0.25910   0.36100   0.73610   0.01267  Uiso   1.00
C48    C     0.14540   0.33080   0.66370   0.01267  Uiso   1.00
C49    C     0.06830   0.42750   0.63290   0.01267  Uiso   1.00
C50    C     0.21590   0.58220   0.75090   0.01267  Uiso   1.00
C51    C     0.10410   0.19140   0.61680   0.01267  Uiso   1.00
C52    C     0.10470   0.55490   0.67650   0.01267  Uiso   1.00
C53    C     0.74220   0.90070   0.65060   0.01267  Uiso   1.00
C54    C     0.64080   0.90510   0.73020   0.01267  Uiso   1.00
C55    C     0.59630   0.02530   0.79040   0.01267  Uiso   1.00
C56    C     0.64870   0.13080   0.76160   0.01267  Uiso   1.00
C57    C     0.74320   0.11640   0.67910   0.01267  Uiso   1.00
C58    C     0.43760   0.94110   0.90420   0.01267  Uiso   1.00
C59    C     0.24330   0.10320   0.97150   0.01267  Uiso   1.00
C60    C     0.01830   0.21160   0.03030   0.01267  Uiso   1.00
C61    C     0.90110   0.23040   0.09960   0.01267  Uiso   1.00
C62    C     0.78570   0.30680   0.08570   0.01267  Uiso   1.00
C63    C     0.89140   0.34310   0.93890   0.01267  Uiso   1.00
C64    C     0.01250   0.26870   0.94750   0.01267  Uiso   1.00
C65    C     0.42170   0.47650   0.14330   0.01267  Uiso   1.00
C66    C     0.29570   0.51240   0.22020   0.01267  Uiso   1.00
C67    C     0.25910   0.63900   0.26390   0.01267  Uiso   1.00
C68    C     0.14540   0.66920   0.33630   0.01267  Uiso   1.00
C69    C     0.06830   0.57250   0.36710   0.01267  Uiso   1.00
C70    C     0.21590   0.41780   0.24910   0.01267  Uiso   1.00
C71    C     0.10410   0.80860   0.38320   0.01267  Uiso   1.00
C72    C     0.10470   0.44510   0.32350   0.01267  Uiso   1.00
C73    C     0.34100  -0.00000  -0.00000   0.01267  Uiso   1.00
N74    N     0.79480   0.99760   0.37620   0.01267  Uiso   1.00
N75    N     0.77950   0.63560   0.99380   0.01267  Uiso   1.00
N76    N     0.79480   0.00240   0.62380   0.01267  Uiso   1.00
N77    N     0.77950   0.36440   0.00620   0.01267  Uiso   1.00
O78    O     0.44400   0.63510   0.90130   0.01267  Uiso   1.00
O79    O     0.50350   0.43320   0.87200   0.01267  Uiso   1.00
O80    O     0.01390   0.17210   0.54020   0.01267  Uiso   1.00
O81    O     0.15350   0.10910   0.65460   0.01267  Uiso   1.00
O82    O     0.12890   0.86330   0.95130   0.01267  Uiso   1.00
O83    O     0.50620   0.95450   0.12580   0.01267  Uiso   1.00
O84    O     0.02940   0.65000   0.64730   0.01267  Uiso   1.00
O85    O     0.44400   0.36490   0.09870   0.01267  Uiso   1.00
O86    O     0.50350   0.56680   0.12800   0.01267  Uiso   1.00
O87    O     0.01390   0.82790   0.45980   0.01267  Uiso   1.00
O88    O     0.15350   0.89090   0.34540   0.01267  Uiso   1.00
O89    O     0.12890   0.13670   0.04870   0.01267  Uiso   1.00
O90    O     0.50620   0.04550   0.87420   0.01267  Uiso   1.00
O91    O     0.02940   0.35000   0.35270   0.01267  Uiso   1.00
H93    H     0.04992   0.74251   0.70593   0.00000  Uiso   1.00
H92    H     0.96771   0.39052   0.42730   0.00000  Uiso   1.00
