data_LAZLEF_clean
_audit_creation_date              2014-07-02
_audit_creation_method            'Materials Studio'
_symmetry_space_group_name_H-M    'P1'
_symmetry_Int_Tables_number       1
_symmetry_cell_setting            triclinic
loop_
_symmetry_equiv_pos_as_xyz
  x,y,z
_cell_length_a                    10.1093
_cell_length_b                    13.0570
_cell_length_c                    24.3590
_cell_angle_alpha                 85.5420
_cell_angle_beta                  85.3140
_cell_angle_gamma                 80.7490
loop_
_atom_site_label
_atom_site_type_symbol
_atom_site_fract_x
_atom_site_fract_y
_atom_site_fract_z
_atom_site_U_iso_or_equiv
_atom_site_adp_type
_atom_site_occupancy
Cd1    Cd    0.36366   0.54459   0.58310   0.01267  Uiso   1.00
Cd2    Cd    0.07343   0.40745   0.57777   0.01267  Uiso   1.00
Cd3    Cd    0.85158   0.67869   0.60729   0.01267  Uiso   1.00
Cd4    Cd    0.63634   0.45541   0.41690   0.01267  Uiso   1.00
Cd5    Cd    0.92657   0.59255   0.42223   0.01267  Uiso   1.00
Cd6    Cd    0.14842   0.32131   0.39271   0.01267  Uiso   1.00
H1     H     0.14170   0.02620   0.80100   0.01267  Uiso   1.00
H2     H     0.20830   0.03930   0.89010   0.01267  Uiso   1.00
H3     H     0.58190   0.92070   0.84140   0.01267  Uiso   1.00
H4     H     0.51770   0.91790   0.75320   0.01267  Uiso   1.00
H5     H     0.42410   0.77030   0.57310   0.01267  Uiso   1.00
H6     H     0.38720   0.92740   0.61180   0.01267  Uiso   1.00
H7     H     0.26340   0.78110   0.75360   0.01267  Uiso   1.00
H8     H     0.30540   0.62850   0.70970   0.01267  Uiso   1.00
H9     H     0.20290   0.31130   0.68780   0.01267  Uiso   1.00
H10    H     0.28780   0.16180   0.73620   0.01267  Uiso   1.00
H11    H     0.15360   0.00510   0.62200   0.01267  Uiso   1.00
H12    H     0.08500   0.15960   0.57580   0.01267  Uiso   1.00
H13    H     0.86640   0.10100   0.86640   0.01267  Uiso   1.00
H14    H     0.76290   0.05000   0.79370   0.01267  Uiso   1.00
H15    H     0.86030   0.29670   0.70010   0.01267  Uiso   1.00
H16    H     0.96320   0.34890   0.77220   0.01267  Uiso   1.00
H17    H     0.41710   0.36450   0.99200   0.01267  Uiso   1.00
H18    H     0.52600   0.42040   0.06390   0.01267  Uiso   1.00
H19    H     0.16820   0.48880   0.14680   0.01267  Uiso   1.00
H20    H     0.06310   0.43490   0.07500   0.01267  Uiso   1.00
H21    H     0.39670   0.40340   0.69400   0.01267  Uiso   1.00
H22    H     0.52300   0.25830   0.73480   0.01267  Uiso   1.00
H23    H     0.74200   0.22240   0.59200   0.01267  Uiso   1.00
H24    H     0.61310   0.36880   0.55550   0.01267  Uiso   1.00
H25    H     0.65340   0.89720   0.59370   0.01267  Uiso   1.00
H26    H     0.60690   0.05880   0.62590   0.01267  Uiso   1.00
H27    H     0.93610   0.99040   0.71000   0.01267  Uiso   1.00
H28    H     0.97600   0.83030   0.67350   0.01267  Uiso   1.00
H29    H     0.28650   0.23260   0.27410   0.01267  Uiso   1.00
H30    H     0.36000   0.29440   0.18870   0.01267  Uiso   1.00
H31    H     0.39510   0.55840   0.25480   0.01267  Uiso   1.00
H32    H     0.32180   0.48900   0.33740   0.01267  Uiso   1.00
H33    H     0.48280   0.80200   0.11190   0.01267  Uiso   1.00
H34    H     0.36900   0.66570   0.10730   0.01267  Uiso   1.00
H35    H     0.64900   0.49470   0.19800   0.01267  Uiso   1.00
H36    H     0.75580   0.63800   0.19560   0.01267  Uiso   1.00
H37    H     0.85830   0.97380   0.19900   0.01267  Uiso   1.00
H38    H     0.79170   0.96070   0.10990   0.01267  Uiso   1.00
H39    H     0.41810   0.07930   0.15860   0.01267  Uiso   1.00
H40    H     0.48230   0.08210   0.24680   0.01267  Uiso   1.00
H41    H     0.57590   0.22970   0.42690   0.01267  Uiso   1.00
H42    H     0.61280   0.07260   0.38820   0.01267  Uiso   1.00
H43    H     0.73660   0.21890   0.24640   0.01267  Uiso   1.00
H44    H     0.69460   0.37150   0.29030   0.01267  Uiso   1.00
H45    H     0.79710   0.68870   0.31220   0.01267  Uiso   1.00
H46    H     0.71220   0.83820   0.26380   0.01267  Uiso   1.00
H47    H     0.84640   0.99490   0.37800   0.01267  Uiso   1.00
H48    H     0.91500   0.84040   0.42420   0.01267  Uiso   1.00
H49    H     0.13360   0.89900   0.13360   0.01267  Uiso   1.00
H50    H     0.23710   0.95000   0.20630   0.01267  Uiso   1.00
H51    H     0.13970   0.70330   0.29990   0.01267  Uiso   1.00
H52    H     0.03680   0.65110   0.22780   0.01267  Uiso   1.00
H53    H     0.58290   0.63550   0.00800   0.01267  Uiso   1.00
H54    H     0.47400   0.57960   0.93610   0.01267  Uiso   1.00
H55    H     0.83180   0.51120   0.85320   0.01267  Uiso   1.00
H56    H     0.93690   0.56510   0.92500   0.01267  Uiso   1.00
H57    H     0.60330   0.59660   0.30600   0.01267  Uiso   1.00
H58    H     0.47700   0.74170   0.26520   0.01267  Uiso   1.00
H59    H     0.25800   0.77760   0.40800   0.01267  Uiso   1.00
H60    H     0.38690   0.63120   0.44450   0.01267  Uiso   1.00
H61    H     0.34660   0.10280   0.40630   0.01267  Uiso   1.00
H62    H     0.39310   0.94120   0.37410   0.01267  Uiso   1.00
H63    H     0.06390   0.00960   0.29000   0.01267  Uiso   1.00
H64    H     0.02400   0.16970   0.32650   0.01267  Uiso   1.00
H65    H     0.71350   0.76740   0.72590   0.01267  Uiso   1.00
H66    H     0.64000   0.70560   0.81130   0.01267  Uiso   1.00
H67    H     0.60490   0.44160   0.74520   0.01267  Uiso   1.00
H68    H     0.67820   0.51100   0.66260   0.01267  Uiso   1.00
H69    H     0.51720   0.19800   0.88810   0.01267  Uiso   1.00
H70    H     0.63100   0.33430   0.89270   0.01267  Uiso   1.00
H71    H     0.35100   0.50530   0.80200   0.01267  Uiso   1.00
H72    H     0.24420   0.36200   0.80440   0.01267  Uiso   1.00
C1     C     0.44450   0.98740   0.92860   0.01267  Uiso   1.00
C2     C     0.47870   0.99490   0.97290   0.01267  Uiso   1.00
C3     C     0.32400   0.97100   0.76790   0.01267  Uiso   1.00
C4     C     0.23130   0.00640   0.80860   0.01267  Uiso   1.00
C5     C     0.27130   0.01320   0.86260   0.01267  Uiso   1.00
C6     C     0.40240   0.98140   0.87420   0.01267  Uiso   1.00
C7     C     0.49310   0.94420   0.83370   0.01267  Uiso   1.00
C8     C     0.45350   0.94120   0.78080   0.01267  Uiso   1.00
C9     C     0.39080   0.77300   0.60980   0.01267  Uiso   1.00
C10    C     0.36830   0.86810   0.63270   0.01267  Uiso   1.00
C11    C     0.31660   0.87450   0.68760   0.01267  Uiso   1.00
C12    C     0.29500   0.78150   0.71670   0.01267  Uiso   1.00
C13    C     0.32110   0.68970   0.68990   0.01267  Uiso   1.00
C14    C     0.19650   0.24820   0.67370   0.01267  Uiso   1.00
C15    C     0.24720   0.15840   0.70370   0.01267  Uiso   1.00
C16    C     0.23680   0.06280   0.68440   0.01267  Uiso   1.00
C17    C     0.16900   0.06640   0.63570   0.01267  Uiso   1.00
C18    C     0.12600   0.15980   0.60860   0.01267  Uiso   1.00
C19    C     0.98590   0.26430   0.87210   0.01267  Uiso   1.00
C20    C     0.04190   0.29440   0.90700   0.01267  Uiso   1.00
C21    C     0.10620   0.33100   0.94720   0.01267  Uiso   1.00
C22    C     0.16320   0.36170   0.98220   0.01267  Uiso   1.00
C23    C     0.92280   0.23260   0.82690   0.01267  Uiso   1.00
C24    C     0.86390   0.14080   0.83300   0.01267  Uiso   1.00
C25    C     0.80270   0.10980   0.78960   0.01267  Uiso   1.00
C26    C     0.80150   0.16910   0.74000   0.01267  Uiso   1.00
C27    C     0.86130   0.25790   0.73370   0.01267  Uiso   1.00
C28    C     0.92250   0.28950   0.77700   0.01267  Uiso   1.00
C29    C     0.22860   0.39760   0.02540   0.01267  Uiso   1.00
C30    C     0.36650   0.39050   0.02300   0.01267  Uiso   1.00
C31    C     0.43340   0.42180   0.06660   0.01267  Uiso   1.00
C32    C     0.35590   0.45410   0.11270   0.01267  Uiso   1.00
C33    C     0.21890   0.46280   0.11590   0.01267  Uiso   1.00
C34    C     0.15590   0.43200   0.07220   0.01267  Uiso   1.00
C35    C     0.46790   0.36700   0.67330   0.01267  Uiso   1.00
C36    C     0.54370   0.27990   0.69830   0.01267  Uiso   1.00
C37    C     0.64860   0.22690   0.66820   0.01267  Uiso   1.00
C38    C     0.67340   0.25900   0.61380   0.01267  Uiso   1.00
C39    C     0.59460   0.34640   0.59210   0.01267  Uiso   1.00
C40    C     0.71170   0.91630   0.61730   0.01267  Uiso   1.00
C41    C     0.68220   0.01360   0.63700   0.01267  Uiso   1.00
C42    C     0.76350   0.04450   0.67300   0.01267  Uiso   1.00
C43    C     0.87660   0.97320   0.68630   0.01267  Uiso   1.00
C44    C     0.90010   0.87670   0.66420   0.01267  Uiso   1.00
C45    C     0.30720   0.29980   0.27010   0.01267  Uiso   1.00
C46    C     0.35120   0.33620   0.21850   0.01267  Uiso   1.00
C47    C     0.38230   0.43600   0.21140   0.01267  Uiso   1.00
C48    C     0.37200   0.49200   0.25740   0.01267  Uiso   1.00
C49    C     0.32770   0.44930   0.30700   0.01267  Uiso   1.00
C50    C     0.51780   0.73830   0.12890   0.01267  Uiso   1.00
C51    C     0.44630   0.65740   0.12650   0.01267  Uiso   1.00
C52    C     0.49410   0.56350   0.15370   0.01267  Uiso   1.00
C53    C     0.61260   0.55670   0.17970   0.01267  Uiso   1.00
C54    C     0.67650   0.64370   0.17800   0.01267  Uiso   1.00
C55    C     0.55550   0.01260   0.07140   0.01267  Uiso   1.00
C56    C     0.52130   0.00510   0.02710   0.01267  Uiso   1.00
C57    C     0.67600   0.02900   0.23210   0.01267  Uiso   1.00
C58    C     0.76870   0.99360   0.19140   0.01267  Uiso   1.00
C59    C     0.72870   0.98680   0.13740   0.01267  Uiso   1.00
C60    C     0.59760   0.01860   0.12580   0.01267  Uiso   1.00
C61    C     0.50690   0.05580   0.16630   0.01267  Uiso   1.00
C62    C     0.54650   0.05880   0.21920   0.01267  Uiso   1.00
C63    C     0.60920   0.22700   0.39020   0.01267  Uiso   1.00
C64    C     0.63170   0.13190   0.36730   0.01267  Uiso   1.00
C65    C     0.68340   0.12550   0.31240   0.01267  Uiso   1.00
C66    C     0.70500   0.21850   0.28330   0.01267  Uiso   1.00
C67    C     0.67890   0.31030   0.31010   0.01267  Uiso   1.00
C68    C     0.80350   0.75180   0.32630   0.01267  Uiso   1.00
C69    C     0.75280   0.84160   0.29630   0.01267  Uiso   1.00
C70    C     0.76320   0.93720   0.31560   0.01267  Uiso   1.00
C71    C     0.83100   0.93360   0.36430   0.01267  Uiso   1.00
C72    C     0.87400   0.84020   0.39140   0.01267  Uiso   1.00
C73    C     0.01410   0.73570   0.12790   0.01267  Uiso   1.00
C74    C     0.95810   0.70560   0.09300   0.01267  Uiso   1.00
C75    C     0.89380   0.66900   0.05280   0.01267  Uiso   1.00
C76    C     0.83680   0.63830   0.01780   0.01267  Uiso   1.00
C77    C     0.07720   0.76740   0.17310   0.01267  Uiso   1.00
C78    C     0.13610   0.85920   0.16700   0.01267  Uiso   1.00
C79    C     0.19730   0.89020   0.21040   0.01267  Uiso   1.00
C80    C     0.19850   0.83090   0.26000   0.01267  Uiso   1.00
C81    C     0.13870   0.74210   0.26630   0.01267  Uiso   1.00
C82    C     0.07750   0.71050   0.22300   0.01267  Uiso   1.00
C83    C     0.77140   0.60240   0.97460   0.01267  Uiso   1.00
C84    C     0.63350   0.60950   0.97700   0.01267  Uiso   1.00
C85    C     0.56660   0.57820   0.93340   0.01267  Uiso   1.00
C86    C     0.64410   0.54590   0.88730   0.01267  Uiso   1.00
C87    C     0.78110   0.53720   0.88410   0.01267  Uiso   1.00
C88    C     0.84410   0.56800   0.92780   0.01267  Uiso   1.00
C89    C     0.53210   0.63300   0.32670   0.01267  Uiso   1.00
C90    C     0.45630   0.72010   0.30170   0.01267  Uiso   1.00
C91    C     0.35140   0.77310   0.33180   0.01267  Uiso   1.00
C92    C     0.32660   0.74100   0.38620   0.01267  Uiso   1.00
C93    C     0.40540   0.65360   0.40790   0.01267  Uiso   1.00
C94    C     0.28830   0.08370   0.38270   0.01267  Uiso   1.00
C95    C     0.31780   0.98640   0.36300   0.01267  Uiso   1.00
C96    C     0.23650   0.95550   0.32700   0.01267  Uiso   1.00
C97    C     0.12340   0.02680   0.31370   0.01267  Uiso   1.00
C98    C     0.09990   0.12330   0.33580   0.01267  Uiso   1.00
C99    C     0.69280   0.70020   0.72990   0.01267  Uiso   1.00
C100   C     0.64880   0.66380   0.78150   0.01267  Uiso   1.00
C101   C     0.61770   0.56400   0.78860   0.01267  Uiso   1.00
C102   C     0.62800   0.50800   0.74260   0.01267  Uiso   1.00
C103   C     0.67230   0.55070   0.69300   0.01267  Uiso   1.00
C104   C     0.48220   0.26170   0.87110   0.01267  Uiso   1.00
C105   C     0.55370   0.34260   0.87350   0.01267  Uiso   1.00
C106   C     0.50590   0.43650   0.84630   0.01267  Uiso   1.00
C107   C     0.38740   0.44330   0.82030   0.01267  Uiso   1.00
C108   C     0.32350   0.35630   0.82200   0.01267  Uiso   1.00
S1     S     0.06630   0.52994   0.67910   0.01267  Uiso   1.00
S2     S     0.08578   0.66566   0.51793   0.01267  Uiso   1.00
S3     S     0.33564   0.37793   0.48013   0.01267  Uiso   1.00
S4     S     0.93370   0.47006   0.32090   0.01267  Uiso   1.00
S5     S     0.91422   0.33434   0.48207   0.01267  Uiso   1.00
S6     S     0.66436   0.62207   0.51987   0.01267  Uiso   1.00
N1     N     0.28670   0.96990   0.71280   0.01267  Uiso   1.00
N2     N     0.36760   0.68490   0.63720   0.01267  Uiso   1.00
N3     N     0.13930   0.25170   0.62640   0.01267  Uiso   1.00
N4     N     0.73530   0.14150   0.69460   0.01267  Uiso   1.00
N5     N     0.49320   0.40010   0.62120   0.01267  Uiso   1.00
N6     N     0.81870   0.84750   0.63010   0.01267  Uiso   1.00
N7     N     0.41960   0.47750   0.15860   0.01267  Uiso   1.00
N8     N     0.29230   0.35520   0.31530   0.01267  Uiso   1.00
N9     N     0.63000   0.73400   0.15270   0.01267  Uiso   1.00
N10    N     0.71330   0.03010   0.28720   0.01267  Uiso   1.00
N11    N     0.63240   0.31510   0.36280   0.01267  Uiso   1.00
N12    N     0.86070   0.74830   0.37360   0.01267  Uiso   1.00
N13    N     0.26470   0.85850   0.30540   0.01267  Uiso   1.00
N14    N     0.50680   0.59990   0.37880   0.01267  Uiso   1.00
N15    N     0.18130   0.15250   0.36990   0.01267  Uiso   1.00
N16    N     0.58040   0.52250   0.84140   0.01267  Uiso   1.00
N17    N     0.70770   0.64480   0.68470   0.01267  Uiso   1.00
N18    N     0.37000   0.26600   0.84730   0.01267  Uiso   1.00
O1     O     0.19460   0.49660   0.64598   0.01267  Uiso   1.00
O2     O     0.96520   0.47330   0.65871   0.01267  Uiso   1.00
O3     O     0.02270   0.64190   0.66890   0.01267  Uiso   1.00
O4     O     0.08620   0.50360   0.73690   0.01267  Uiso   1.00
O5     O     0.22670   0.65640   0.52924   0.01267  Uiso   1.00
O6     O     0.02040   0.57960   0.54590   0.01267  Uiso   1.00
O7     O     0.00980   0.76110   0.53790   0.01267  Uiso   1.00
O8     O     0.07650   0.66540   0.45807   0.01267  Uiso   1.00
O9     O     0.27390   0.41970   0.53271   0.01267  Uiso   1.00
O10    O     0.26410   0.43460   0.43350   0.01267  Uiso   1.00
O11    O     0.32060   0.27200   0.47800   0.01267  Uiso   1.00
O12    O     0.47190   0.39710   0.47430   0.01267  Uiso   1.00
O13    O     0.80540   0.50340   0.35402   0.01267  Uiso   1.00
O14    O     0.03480   0.52670   0.34129   0.01267  Uiso   1.00
O15    O     0.97730   0.35810   0.33110   0.01267  Uiso   1.00
O16    O     0.91380   0.49640   0.26310   0.01267  Uiso   1.00
O17    O     0.77330   0.34360   0.47076   0.01267  Uiso   1.00
O18    O     0.97960   0.42040   0.45410   0.01267  Uiso   1.00
O19    O     0.99020   0.23890   0.46210   0.01267  Uiso   1.00
O20    O     0.92350   0.33460   0.54193   0.01267  Uiso   1.00
O21    O     0.72610   0.58030   0.46729   0.01267  Uiso   1.00
O22    O     0.73590   0.56540   0.56650   0.01267  Uiso   1.00
O23    O     0.67940   0.72800   0.52200   0.01267  Uiso   1.00
O24    O     0.52810   0.60290   0.52570   0.01267  Uiso   1.00
