data_LAZPUZ_clean
_audit_creation_date              2014-07-02
_audit_creation_method            'Materials Studio'
_symmetry_space_group_name_H-M    'P1'
_symmetry_Int_Tables_number       1
_symmetry_cell_setting            triclinic
loop_
_symmetry_equiv_pos_as_xyz
  x,y,z
_cell_length_a                    7.9529
_cell_length_b                    17.2466
_cell_length_c                    23.2702
_cell_angle_alpha                 90.0000
_cell_angle_beta                  90.0000
_cell_angle_gamma                 90.0000
loop_
_atom_site_label
_atom_site_type_symbol
_atom_site_fract_x
_atom_site_fract_y
_atom_site_fract_z
_atom_site_U_iso_or_equiv
_atom_site_adp_type
_atom_site_occupancy
Pr1    Pr    0.86085   0.89596   0.28162   0.01267  Uiso   1.00
Pr2    Pr    0.63915   0.10404   0.78162   0.01267  Uiso   1.00
Pr3    Pr    0.13915   0.39596   0.21838   0.01267  Uiso   1.00
Pr4    Pr    0.36085   0.60404   0.71838   0.01267  Uiso   1.00
Pr5    Pr    0.13915   0.10404   0.71838   0.01267  Uiso   1.00
Pr6    Pr    0.36085   0.89596   0.21838   0.01267  Uiso   1.00
Pr7    Pr    0.86085   0.60404   0.78162   0.01267  Uiso   1.00
Pr8    Pr    0.63915   0.39596   0.28162   0.01267  Uiso   1.00
Cu1    Cu    0.50000   0.00000   0.00000   0.01267  Uiso   1.00
Cu2    Cu    0.00000   0.00000   0.50000   0.01267  Uiso   1.00
Cu3    Cu    0.50000   0.50000   0.50000   0.01267  Uiso   1.00
Cu4    Cu    0.00000   0.50000   0.00000   0.01267  Uiso   1.00
H1     H     0.12550   0.83000   0.99330   0.01267  Uiso   1.00
H2     H     0.88070   0.75780   0.99020   0.01267  Uiso   1.00
H3     H     0.68080   0.77380   0.06130   0.01267  Uiso   1.00
H4     H     0.29450   0.83670   0.83840   0.01267  Uiso   1.00
H5     H     0.28030   0.93070   0.90840   0.01267  Uiso   1.00
H6     H     0.75120   0.89720   0.94900   0.01267  Uiso   1.00
H7     H     0.77450   0.79960   0.88330   0.01267  Uiso   1.00
H8     H     0.37450   0.17000   0.49330   0.01267  Uiso   1.00
H9     H     0.61930   0.24220   0.49020   0.01267  Uiso   1.00
H10    H     0.81920   0.22620   0.56130   0.01267  Uiso   1.00
H11    H     0.20550   0.16330   0.33840   0.01267  Uiso   1.00
H12    H     0.21970   0.06930   0.40840   0.01267  Uiso   1.00
H13    H     0.74880   0.10280   0.44900   0.01267  Uiso   1.00
H14    H     0.72550   0.20040   0.38330   0.01267  Uiso   1.00
H15    H     0.87450   0.33000   0.50670   0.01267  Uiso   1.00
H16    H     0.11930   0.25780   0.50980   0.01267  Uiso   1.00
H17    H     0.31920   0.27380   0.43870   0.01267  Uiso   1.00
H18    H     0.70550   0.33670   0.66160   0.01267  Uiso   1.00
H19    H     0.71970   0.43070   0.59160   0.01267  Uiso   1.00
H20    H     0.24880   0.39720   0.55100   0.01267  Uiso   1.00
H21    H     0.22550   0.29960   0.61670   0.01267  Uiso   1.00
H22    H     0.62550   0.67000   0.00670   0.01267  Uiso   1.00
H23    H     0.38070   0.74220   0.00980   0.01267  Uiso   1.00
H24    H     0.18080   0.72620   0.93870   0.01267  Uiso   1.00
H25    H     0.79450   0.66330   0.16160   0.01267  Uiso   1.00
H26    H     0.78030   0.56930   0.09160   0.01267  Uiso   1.00
H27    H     0.25120   0.60280   0.05100   0.01267  Uiso   1.00
H28    H     0.27450   0.70040   0.11670   0.01267  Uiso   1.00
H29    H     0.87450   0.17000   0.00670   0.01267  Uiso   1.00
H30    H     0.11930   0.24220   0.00980   0.01267  Uiso   1.00
H31    H     0.31920   0.22620   0.93870   0.01267  Uiso   1.00
H32    H     0.70550   0.16330   0.16160   0.01267  Uiso   1.00
H33    H     0.71970   0.06930   0.09160   0.01267  Uiso   1.00
H34    H     0.24880   0.10280   0.05100   0.01267  Uiso   1.00
H35    H     0.22550   0.20040   0.11670   0.01267  Uiso   1.00
H36    H     0.62550   0.83000   0.50670   0.01267  Uiso   1.00
H37    H     0.38070   0.75780   0.50980   0.01267  Uiso   1.00
H38    H     0.18080   0.77380   0.43870   0.01267  Uiso   1.00
H39    H     0.79450   0.83670   0.66160   0.01267  Uiso   1.00
H40    H     0.78030   0.93070   0.59160   0.01267  Uiso   1.00
H41    H     0.25120   0.89720   0.55100   0.01267  Uiso   1.00
H42    H     0.27450   0.79960   0.61670   0.01267  Uiso   1.00
H43    H     0.12550   0.67000   0.49330   0.01267  Uiso   1.00
H44    H     0.88070   0.74220   0.49020   0.01267  Uiso   1.00
H45    H     0.68080   0.72620   0.56130   0.01267  Uiso   1.00
H46    H     0.29450   0.66330   0.33840   0.01267  Uiso   1.00
H47    H     0.28030   0.56930   0.40840   0.01267  Uiso   1.00
H48    H     0.75120   0.60280   0.44900   0.01267  Uiso   1.00
H49    H     0.77450   0.70040   0.38330   0.01267  Uiso   1.00
H50    H     0.37450   0.33000   0.99330   0.01267  Uiso   1.00
H51    H     0.61930   0.25780   0.99020   0.01267  Uiso   1.00
H52    H     0.81920   0.27380   0.06130   0.01267  Uiso   1.00
H53    H     0.20550   0.33670   0.83840   0.01267  Uiso   1.00
H54    H     0.21970   0.43070   0.90840   0.01267  Uiso   1.00
H55    H     0.74880   0.39720   0.94900   0.01267  Uiso   1.00
H56    H     0.72550   0.29960   0.88330   0.01267  Uiso   1.00
C1     C     0.66980   0.85830   0.15224   0.01267  Uiso   1.00
C2     C     0.99040   0.96170   0.15287   0.01267  Uiso   1.00
C3     C     0.24090   0.92810   0.06926   0.01267  Uiso   1.00
C4     C     0.80380   0.85490   0.10730   0.01267  Uiso   1.00
C5     C     0.95350   0.89840   0.10941   0.01267  Uiso   1.00
C6     C     0.07400   0.88730   0.06673   0.01267  Uiso   1.00
C7     C     0.04530   0.83570   0.02200   0.01267  Uiso   1.00
C8     C     0.89890   0.79280   0.01990   0.01267  Uiso   1.00
C9     C     0.77940   0.80280   0.06260   0.01267  Uiso   1.00
C10    C     0.55490   0.74250   0.80966   0.01267  Uiso   1.00
C11    C     0.53630   0.80630   0.85338   0.01267  Uiso   1.00
C12    C     0.38800   0.84730   0.86110   0.01267  Uiso   1.00
C13    C     0.38090   0.90420   0.90290   0.01267  Uiso   1.00
C14    C     0.65760   0.88390   0.92710   0.01267  Uiso   1.00
C15    C     0.67300   0.82580   0.88740   0.01267  Uiso   1.00
C16    C     0.83020   0.14170   0.65224   0.01267  Uiso   1.00
C17    C     0.50960   0.03830   0.65287   0.01267  Uiso   1.00
C18    C     0.25910   0.07190   0.56926   0.01267  Uiso   1.00
C19    C     0.69620   0.14510   0.60730   0.01267  Uiso   1.00
C20    C     0.54650   0.10160   0.60941   0.01267  Uiso   1.00
C21    C     0.42600   0.11270   0.56673   0.01267  Uiso   1.00
C22    C     0.45470   0.16430   0.52200   0.01267  Uiso   1.00
C23    C     0.60110   0.20720   0.51990   0.01267  Uiso   1.00
C24    C     0.72060   0.19720   0.56260   0.01267  Uiso   1.00
C25    C     0.94510   0.25750   0.30966   0.01267  Uiso   1.00
C26    C     0.96370   0.19370   0.35338   0.01267  Uiso   1.00
C27    C     0.11200   0.15270   0.36110   0.01267  Uiso   1.00
C28    C     0.11910   0.09580   0.40290   0.01267  Uiso   1.00
C29    C     0.84240   0.11610   0.42710   0.01267  Uiso   1.00
C30    C     0.82700   0.17420   0.38740   0.01267  Uiso   1.00
C31    C     0.33020   0.35830   0.34776   0.01267  Uiso   1.00
C32    C     0.00960   0.46170   0.34713   0.01267  Uiso   1.00
C33    C     0.75910   0.42810   0.43074   0.01267  Uiso   1.00
C34    C     0.19620   0.35490   0.39270   0.01267  Uiso   1.00
C35    C     0.04650   0.39840   0.39059   0.01267  Uiso   1.00
C36    C     0.92600   0.38730   0.43327   0.01267  Uiso   1.00
C37    C     0.95470   0.33570   0.47800   0.01267  Uiso   1.00
C38    C     0.10110   0.29280   0.48010   0.01267  Uiso   1.00
C39    C     0.22060   0.30280   0.43740   0.01267  Uiso   1.00
C40    C     0.44510   0.24250   0.69034   0.01267  Uiso   1.00
C41    C     0.46370   0.30630   0.64662   0.01267  Uiso   1.00
C42    C     0.61200   0.34730   0.63890   0.01267  Uiso   1.00
C43    C     0.61910   0.40420   0.59710   0.01267  Uiso   1.00
C44    C     0.34240   0.38390   0.57290   0.01267  Uiso   1.00
C45    C     0.32700   0.32580   0.61260   0.01267  Uiso   1.00
C46    C     0.16980   0.64170   0.84776   0.01267  Uiso   1.00
C47    C     0.49040   0.53830   0.84713   0.01267  Uiso   1.00
C48    C     0.74090   0.57190   0.93074   0.01267  Uiso   1.00
C49    C     0.30380   0.64510   0.89270   0.01267  Uiso   1.00
C50    C     0.45350   0.60160   0.89059   0.01267  Uiso   1.00
C51    C     0.57400   0.61270   0.93327   0.01267  Uiso   1.00
C52    C     0.54530   0.66430   0.97800   0.01267  Uiso   1.00
C53    C     0.39890   0.70720   0.98010   0.01267  Uiso   1.00
C54    C     0.27940   0.69720   0.93740   0.01267  Uiso   1.00
C55    C     0.05490   0.75750   0.19034   0.01267  Uiso   1.00
C56    C     0.03630   0.69370   0.14662   0.01267  Uiso   1.00
C57    C     0.88800   0.65270   0.13890   0.01267  Uiso   1.00
C58    C     0.88090   0.59580   0.09710   0.01267  Uiso   1.00
C59    C     0.15760   0.61610   0.07290   0.01267  Uiso   1.00
C60    C     0.17300   0.67420   0.11260   0.01267  Uiso   1.00
C61    C     0.33020   0.14170   0.84776   0.01267  Uiso   1.00
C62    C     0.00960   0.03830   0.84713   0.01267  Uiso   1.00
C63    C     0.75910   0.07190   0.93074   0.01267  Uiso   1.00
C64    C     0.19620   0.14510   0.89270   0.01267  Uiso   1.00
C65    C     0.04650   0.10160   0.89059   0.01267  Uiso   1.00
C66    C     0.92600   0.11270   0.93327   0.01267  Uiso   1.00
C67    C     0.95470   0.16430   0.97800   0.01267  Uiso   1.00
C68    C     0.10110   0.20720   0.98010   0.01267  Uiso   1.00
C69    C     0.22060   0.19720   0.93740   0.01267  Uiso   1.00
C70    C     0.44510   0.25750   0.19034   0.01267  Uiso   1.00
C71    C     0.46370   0.19370   0.14662   0.01267  Uiso   1.00
C72    C     0.61200   0.15270   0.13890   0.01267  Uiso   1.00
C73    C     0.61910   0.09580   0.09710   0.01267  Uiso   1.00
C74    C     0.34240   0.11610   0.07290   0.01267  Uiso   1.00
C75    C     0.32700   0.17420   0.11260   0.01267  Uiso   1.00
C76    C     0.16980   0.85830   0.34776   0.01267  Uiso   1.00
C77    C     0.49040   0.96170   0.34713   0.01267  Uiso   1.00
C78    C     0.74090   0.92810   0.43074   0.01267  Uiso   1.00
C79    C     0.30380   0.85490   0.39270   0.01267  Uiso   1.00
C80    C     0.45350   0.89840   0.39059   0.01267  Uiso   1.00
C81    C     0.57400   0.88730   0.43327   0.01267  Uiso   1.00
C82    C     0.54530   0.83570   0.47800   0.01267  Uiso   1.00
C83    C     0.39890   0.79280   0.48010   0.01267  Uiso   1.00
C84    C     0.27940   0.80280   0.43740   0.01267  Uiso   1.00
C85    C     0.05490   0.74250   0.69034   0.01267  Uiso   1.00
C86    C     0.03630   0.80630   0.64662   0.01267  Uiso   1.00
C87    C     0.88800   0.84730   0.63890   0.01267  Uiso   1.00
C88    C     0.88090   0.90420   0.59710   0.01267  Uiso   1.00
C89    C     0.15760   0.88390   0.57290   0.01267  Uiso   1.00
C90    C     0.17300   0.82580   0.61260   0.01267  Uiso   1.00
C91    C     0.66980   0.64170   0.65224   0.01267  Uiso   1.00
C92    C     0.99040   0.53830   0.65287   0.01267  Uiso   1.00
C93    C     0.24090   0.57190   0.56926   0.01267  Uiso   1.00
C94    C     0.80380   0.64510   0.60730   0.01267  Uiso   1.00
C95    C     0.95350   0.60160   0.60941   0.01267  Uiso   1.00
C96    C     0.07400   0.61270   0.56673   0.01267  Uiso   1.00
C97    C     0.04530   0.66430   0.52200   0.01267  Uiso   1.00
C98    C     0.89890   0.70720   0.51990   0.01267  Uiso   1.00
C99    C     0.77940   0.69720   0.56260   0.01267  Uiso   1.00
C100   C     0.55490   0.75750   0.30966   0.01267  Uiso   1.00
C101   C     0.53630   0.69370   0.35338   0.01267  Uiso   1.00
C102   C     0.38800   0.65270   0.36110   0.01267  Uiso   1.00
C103   C     0.38090   0.59580   0.40290   0.01267  Uiso   1.00
C104   C     0.65760   0.61610   0.42710   0.01267  Uiso   1.00
C105   C     0.67300   0.67420   0.38740   0.01267  Uiso   1.00
C106   C     0.83020   0.35830   0.15224   0.01267  Uiso   1.00
C107   C     0.50960   0.46170   0.15287   0.01267  Uiso   1.00
C108   C     0.25910   0.42810   0.06926   0.01267  Uiso   1.00
C109   C     0.69620   0.35490   0.10730   0.01267  Uiso   1.00
C110   C     0.54650   0.39840   0.10941   0.01267  Uiso   1.00
C111   C     0.42600   0.38730   0.06673   0.01267  Uiso   1.00
C112   C     0.45470   0.33570   0.02200   0.01267  Uiso   1.00
C113   C     0.60110   0.29280   0.01990   0.01267  Uiso   1.00
C114   C     0.72060   0.30280   0.06260   0.01267  Uiso   1.00
C115   C     0.94510   0.24250   0.80966   0.01267  Uiso   1.00
C116   C     0.96370   0.30630   0.85338   0.01267  Uiso   1.00
C117   C     0.11200   0.34730   0.86110   0.01267  Uiso   1.00
C118   C     0.11910   0.40420   0.90290   0.01267  Uiso   1.00
C119   C     0.84240   0.38390   0.92710   0.01267  Uiso   1.00
C120   C     0.82700   0.32580   0.88740   0.01267  Uiso   1.00
N1     N     0.51320   0.92270   0.93589   0.01267  Uiso   1.00
N2     N     0.98680   0.07730   0.43589   0.01267  Uiso   1.00
N3     N     0.48680   0.42270   0.56411   0.01267  Uiso   1.00
N4     N     0.01320   0.57730   0.06411   0.01267  Uiso   1.00
N5     N     0.48680   0.07730   0.06411   0.01267  Uiso   1.00
N6     N     0.01320   0.92270   0.56411   0.01267  Uiso   1.00
N7     N     0.51320   0.57730   0.43589   0.01267  Uiso   1.00
N8     N     0.98680   0.42270   0.93589   0.01267  Uiso   1.00
O1     O     0.68410   0.90790   0.19344   0.01267  Uiso   1.00
O2     O     0.54490   0.81560   0.14885   0.01267  Uiso   1.00
O3     O     0.04700   0.94124   0.20241   0.01267  Uiso   1.00
O4     O     0.97090   0.02910   0.13671   0.01267  Uiso   1.00
O5     O     0.31570   0.93560   0.11499   0.01267  Uiso   1.00
O6     O     0.29300   0.95170   0.02069   0.01267  Uiso   1.00
O7     O     0.69800   0.71310   0.80657   0.01267  Uiso   1.00
O8     O     0.42990   0.72281   0.78023   0.01267  Uiso   1.00
O9     O     0.81590   0.09210   0.69344   0.01267  Uiso   1.00
O10    O     0.95510   0.18440   0.64885   0.01267  Uiso   1.00
O11    O     0.45300   0.05876   0.70241   0.01267  Uiso   1.00
O12    O     0.52910   0.97090   0.63671   0.01267  Uiso   1.00
O13    O     0.18430   0.06440   0.61499   0.01267  Uiso   1.00
O14    O     0.20700   0.04830   0.52069   0.01267  Uiso   1.00
O15    O     0.80200   0.28690   0.30657   0.01267  Uiso   1.00
O16    O     0.07010   0.27719   0.28023   0.01267  Uiso   1.00
O17    O     0.31590   0.40790   0.30656   0.01267  Uiso   1.00
O18    O     0.45510   0.31560   0.35115   0.01267  Uiso   1.00
O19    O     0.95300   0.44124   0.29759   0.01267  Uiso   1.00
O20    O     0.02910   0.52910   0.36329   0.01267  Uiso   1.00
O21    O     0.68430   0.43560   0.38501   0.01267  Uiso   1.00
O22    O     0.70700   0.45170   0.47931   0.01267  Uiso   1.00
O23    O     0.30200   0.21310   0.69343   0.01267  Uiso   1.00
O24    O     0.57010   0.22281   0.71977   0.01267  Uiso   1.00
O25    O     0.18410   0.59210   0.80656   0.01267  Uiso   1.00
O26    O     0.04490   0.68440   0.85115   0.01267  Uiso   1.00
O27    O     0.54700   0.55876   0.79759   0.01267  Uiso   1.00
O28    O     0.47090   0.47090   0.86329   0.01267  Uiso   1.00
O29    O     0.81570   0.56440   0.88501   0.01267  Uiso   1.00
O30    O     0.79300   0.54830   0.97931   0.01267  Uiso   1.00
O31    O     0.19800   0.78690   0.19343   0.01267  Uiso   1.00
O32    O     0.92990   0.77719   0.21977   0.01267  Uiso   1.00
O33    O     0.31590   0.09210   0.80656   0.01267  Uiso   1.00
O34    O     0.45510   0.18440   0.85115   0.01267  Uiso   1.00
O35    O     0.95300   0.05876   0.79759   0.01267  Uiso   1.00
O36    O     0.02910   0.97090   0.86329   0.01267  Uiso   1.00
O37    O     0.68430   0.06440   0.88501   0.01267  Uiso   1.00
O38    O     0.70700   0.04830   0.97931   0.01267  Uiso   1.00
O39    O     0.30200   0.28690   0.19343   0.01267  Uiso   1.00
O40    O     0.57010   0.27719   0.21977   0.01267  Uiso   1.00
O41    O     0.18410   0.90790   0.30656   0.01267  Uiso   1.00
O42    O     0.04490   0.81560   0.35115   0.01267  Uiso   1.00
O43    O     0.54700   0.94124   0.29759   0.01267  Uiso   1.00
O44    O     0.47090   0.02910   0.36329   0.01267  Uiso   1.00
O45    O     0.81570   0.93560   0.38501   0.01267  Uiso   1.00
O46    O     0.79300   0.95170   0.47931   0.01267  Uiso   1.00
O47    O     0.19800   0.71310   0.69343   0.01267  Uiso   1.00
O48    O     0.92990   0.72281   0.71977   0.01267  Uiso   1.00
O49    O     0.68410   0.59210   0.69344   0.01267  Uiso   1.00
O50    O     0.54490   0.68440   0.64885   0.01267  Uiso   1.00
O51    O     0.04700   0.55876   0.70241   0.01267  Uiso   1.00
O52    O     0.97090   0.47090   0.63671   0.01267  Uiso   1.00
O53    O     0.31570   0.56440   0.61499   0.01267  Uiso   1.00
O54    O     0.29300   0.54830   0.52069   0.01267  Uiso   1.00
O55    O     0.69800   0.78690   0.30657   0.01267  Uiso   1.00
O56    O     0.42990   0.77719   0.28023   0.01267  Uiso   1.00
O57    O     0.81590   0.40790   0.19344   0.01267  Uiso   1.00
O58    O     0.95510   0.31560   0.14885   0.01267  Uiso   1.00
O59    O     0.45300   0.44124   0.20241   0.01267  Uiso   1.00
O60    O     0.52910   0.52910   0.13671   0.01267  Uiso   1.00
O61    O     0.18430   0.43560   0.11499   0.01267  Uiso   1.00
O62    O     0.20700   0.45170   0.02069   0.01267  Uiso   1.00
O63    O     0.80200   0.21310   0.80657   0.01267  Uiso   1.00
O64    O     0.07010   0.22281   0.78023   0.01267  Uiso   1.00
