data_LAZPIN_clean
_audit_creation_date              2014-07-02
_audit_creation_method            'Materials Studio'
_symmetry_space_group_name_H-M    'P1'
_symmetry_Int_Tables_number       1
_symmetry_cell_setting            triclinic
loop_
_symmetry_equiv_pos_as_xyz
  x,y,z
_cell_length_a                    8.0191
_cell_length_b                    17.3050
_cell_length_c                    23.3034
_cell_angle_alpha                 90.0000
_cell_angle_beta                  90.0000
_cell_angle_gamma                 90.0000
loop_
_atom_site_label
_atom_site_type_symbol
_atom_site_fract_x
_atom_site_fract_y
_atom_site_fract_z
_atom_site_U_iso_or_equiv
_atom_site_adp_type
_atom_site_occupancy
La1    La    0.63702   0.89671   0.78241   0.01267  Uiso   1.00
La2    La    0.86298   0.10329   0.28241   0.01267  Uiso   1.00
La3    La    0.36298   0.39671   0.71759   0.01267  Uiso   1.00
La4    La    0.13702   0.60329   0.21759   0.01267  Uiso   1.00
La5    La    0.36298   0.10329   0.21759   0.01267  Uiso   1.00
La6    La    0.13702   0.89671   0.71759   0.01267  Uiso   1.00
La7    La    0.63702   0.60329   0.28241   0.01267  Uiso   1.00
La8    La    0.86298   0.39671   0.78241   0.01267  Uiso   1.00
Cu1    Cu    0.00000   0.00000   0.50000   0.01267  Uiso   1.00
Cu2    Cu    0.50000   0.00000   0.00000   0.01267  Uiso   1.00
Cu3    Cu    0.00000   0.50000   0.00000   0.01267  Uiso   1.00
Cu4    Cu    0.50000   0.50000   0.50000   0.01267  Uiso   1.00
H1     H     0.37280   0.83190   0.49230   0.01267  Uiso   1.00
H2     H     0.61470   0.75780   0.48990   0.01267  Uiso   1.00
H3     H     0.81290   0.77450   0.56050   0.01267  Uiso   1.00
H4     H     0.79730   0.16290   0.66150   0.01267  Uiso   1.00
H5     H     0.78160   0.06900   0.59130   0.01267  Uiso   1.00
H6     H     0.24960   0.10110   0.55090   0.01267  Uiso   1.00
H7     H     0.27130   0.20120   0.61530   0.01267  Uiso   1.00
H8     H     0.12720   0.16810   0.99230   0.01267  Uiso   1.00
H9     H     0.88530   0.24220   0.98990   0.01267  Uiso   1.00
H10    H     0.68710   0.22550   0.06050   0.01267  Uiso   1.00
H11    H     0.70270   0.83710   0.16150   0.01267  Uiso   1.00
H12    H     0.71840   0.93100   0.09130   0.01267  Uiso   1.00
H13    H     0.25040   0.89890   0.05090   0.01267  Uiso   1.00
H14    H     0.22870   0.79880   0.11530   0.01267  Uiso   1.00
H15    H     0.62720   0.33190   0.00770   0.01267  Uiso   1.00
H16    H     0.38530   0.25780   0.01010   0.01267  Uiso   1.00
H17    H     0.18710   0.27450   0.93950   0.01267  Uiso   1.00
H18    H     0.20270   0.66290   0.83850   0.01267  Uiso   1.00
H19    H     0.21840   0.56900   0.90870   0.01267  Uiso   1.00
H20    H     0.75040   0.60110   0.94910   0.01267  Uiso   1.00
H21    H     0.72870   0.70120   0.88470   0.01267  Uiso   1.00
H22    H     0.87280   0.66810   0.50770   0.01267  Uiso   1.00
H23    H     0.11470   0.74220   0.51010   0.01267  Uiso   1.00
H24    H     0.31290   0.72550   0.43950   0.01267  Uiso   1.00
H25    H     0.29730   0.33710   0.33850   0.01267  Uiso   1.00
H26    H     0.28160   0.43100   0.40870   0.01267  Uiso   1.00
H27    H     0.74960   0.39890   0.44910   0.01267  Uiso   1.00
H28    H     0.77130   0.29880   0.38470   0.01267  Uiso   1.00
H29    H     0.62720   0.16810   0.50770   0.01267  Uiso   1.00
H30    H     0.38530   0.24220   0.51010   0.01267  Uiso   1.00
H31    H     0.18710   0.22550   0.43950   0.01267  Uiso   1.00
H32    H     0.20270   0.83710   0.33850   0.01267  Uiso   1.00
H33    H     0.21840   0.93100   0.40870   0.01267  Uiso   1.00
H34    H     0.75040   0.89890   0.44910   0.01267  Uiso   1.00
H35    H     0.72870   0.79880   0.38470   0.01267  Uiso   1.00
H36    H     0.87280   0.83190   0.00770   0.01267  Uiso   1.00
H37    H     0.11470   0.75780   0.01010   0.01267  Uiso   1.00
H38    H     0.31290   0.77450   0.93950   0.01267  Uiso   1.00
H39    H     0.29730   0.16290   0.83850   0.01267  Uiso   1.00
H40    H     0.28160   0.06900   0.90870   0.01267  Uiso   1.00
H41    H     0.74960   0.10110   0.94910   0.01267  Uiso   1.00
H42    H     0.77130   0.20120   0.88470   0.01267  Uiso   1.00
H43    H     0.37280   0.66810   0.99230   0.01267  Uiso   1.00
H44    H     0.61470   0.74220   0.98990   0.01267  Uiso   1.00
H45    H     0.81290   0.72550   0.06050   0.01267  Uiso   1.00
H46    H     0.79730   0.33710   0.16150   0.01267  Uiso   1.00
H47    H     0.78160   0.43100   0.09130   0.01267  Uiso   1.00
H48    H     0.24960   0.39890   0.05090   0.01267  Uiso   1.00
H49    H     0.27130   0.29880   0.11530   0.01267  Uiso   1.00
H50    H     0.12720   0.33190   0.49230   0.01267  Uiso   1.00
H51    H     0.88530   0.25780   0.48990   0.01267  Uiso   1.00
H52    H     0.68710   0.27450   0.56050   0.01267  Uiso   1.00
H53    H     0.70270   0.66290   0.66150   0.01267  Uiso   1.00
H54    H     0.71840   0.56900   0.59130   0.01267  Uiso   1.00
H55    H     0.25040   0.60110   0.55090   0.01267  Uiso   1.00
H56    H     0.22870   0.70120   0.61530   0.01267  Uiso   1.00
C1     C     0.82570   0.85968   0.65114   0.01267  Uiso   1.00
C2     C     0.50770   0.96262   0.65222   0.01267  Uiso   1.00
C3     C     0.25970   0.93052   0.56770   0.01267  Uiso   1.00
C4     C     0.69120   0.85586   0.60633   0.01267  Uiso   1.00
C5     C     0.54470   0.89966   0.60875   0.01267  Uiso   1.00
C6     C     0.42500   0.88914   0.56564   0.01267  Uiso   1.00
C7     C     0.45220   0.83730   0.52108   0.01267  Uiso   1.00
C8     C     0.59740   0.79340   0.51927   0.01267  Uiso   1.00
C9     C     0.71520   0.80338   0.56169   0.01267  Uiso   1.00
C10    C     0.05550   0.25691   0.68996   0.01267  Uiso   1.00
C11    C     0.03630   0.19319   0.64606   0.01267  Uiso   1.00
C12    C     0.88960   0.15236   0.63862   0.01267  Uiso   1.00
C13    C     0.88140   0.09550   0.59671   0.01267  Uiso   1.00
C14    C     0.15660   0.11519   0.57235   0.01267  Uiso   1.00
C15    C     0.17140   0.17430   0.61176   0.01267  Uiso   1.00
C16    C     0.67430   0.14032   0.15114   0.01267  Uiso   1.00
C17    C     0.99230   0.03738   0.15222   0.01267  Uiso   1.00
C18    C     0.24030   0.06948   0.06770   0.01267  Uiso   1.00
C19    C     0.80880   0.14414   0.10633   0.01267  Uiso   1.00
C20    C     0.95530   0.10034   0.10875   0.01267  Uiso   1.00
C21    C     0.07500   0.11086   0.06564   0.01267  Uiso   1.00
C22    C     0.04780   0.16270   0.02108   0.01267  Uiso   1.00
C23    C     0.90260   0.20660   0.01927   0.01267  Uiso   1.00
C24    C     0.78480   0.19662   0.06169   0.01267  Uiso   1.00
C25    C     0.44450   0.74309   0.18996   0.01267  Uiso   1.00
C26    C     0.46370   0.80681   0.14606   0.01267  Uiso   1.00
C27    C     0.61040   0.84764   0.13862   0.01267  Uiso   1.00
C28    C     0.61860   0.90450   0.09671   0.01267  Uiso   1.00
C29    C     0.34340   0.88481   0.07235   0.01267  Uiso   1.00
C30    C     0.32860   0.82570   0.11176   0.01267  Uiso   1.00
C31    C     0.17430   0.35968   0.84886   0.01267  Uiso   1.00
C32    C     0.49230   0.46262   0.84778   0.01267  Uiso   1.00
C33    C     0.74030   0.43052   0.93230   0.01267  Uiso   1.00
C34    C     0.30880   0.35586   0.89367   0.01267  Uiso   1.00
C35    C     0.45530   0.39966   0.89125   0.01267  Uiso   1.00
C36    C     0.57500   0.38914   0.93436   0.01267  Uiso   1.00
C37    C     0.54780   0.33730   0.97892   0.01267  Uiso   1.00
C38    C     0.40260   0.29340   0.98073   0.01267  Uiso   1.00
C39    C     0.28480   0.30338   0.93831   0.01267  Uiso   1.00
C40    C     0.94450   0.75691   0.81004   0.01267  Uiso   1.00
C41    C     0.96370   0.69319   0.85394   0.01267  Uiso   1.00
C42    C     0.11040   0.65236   0.86138   0.01267  Uiso   1.00
C43    C     0.11860   0.59550   0.90329   0.01267  Uiso   1.00
C44    C     0.84340   0.61519   0.92765   0.01267  Uiso   1.00
C45    C     0.82860   0.67430   0.88824   0.01267  Uiso   1.00
C46    C     0.32570   0.64032   0.34886   0.01267  Uiso   1.00
C47    C     0.00770   0.53738   0.34778   0.01267  Uiso   1.00
C48    C     0.75970   0.56948   0.43230   0.01267  Uiso   1.00
C49    C     0.19120   0.64414   0.39367   0.01267  Uiso   1.00
C50    C     0.04470   0.60034   0.39125   0.01267  Uiso   1.00
C51    C     0.92500   0.61086   0.43436   0.01267  Uiso   1.00
C52    C     0.95220   0.66270   0.47892   0.01267  Uiso   1.00
C53    C     0.09740   0.70660   0.48073   0.01267  Uiso   1.00
C54    C     0.21520   0.69662   0.43831   0.01267  Uiso   1.00
C55    C     0.55550   0.24309   0.31004   0.01267  Uiso   1.00
C56    C     0.53630   0.30681   0.35394   0.01267  Uiso   1.00
C57    C     0.38960   0.34764   0.36138   0.01267  Uiso   1.00
C58    C     0.38140   0.40450   0.40329   0.01267  Uiso   1.00
C59    C     0.65660   0.38481   0.42765   0.01267  Uiso   1.00
C60    C     0.67140   0.32570   0.38824   0.01267  Uiso   1.00
C61    C     0.17430   0.14032   0.34886   0.01267  Uiso   1.00
C62    C     0.49230   0.03738   0.34778   0.01267  Uiso   1.00
C63    C     0.74030   0.06948   0.43230   0.01267  Uiso   1.00
C64    C     0.30880   0.14414   0.39367   0.01267  Uiso   1.00
C65    C     0.45530   0.10034   0.39125   0.01267  Uiso   1.00
C66    C     0.57500   0.11086   0.43436   0.01267  Uiso   1.00
C67    C     0.54780   0.16270   0.47892   0.01267  Uiso   1.00
C68    C     0.40260   0.20660   0.48073   0.01267  Uiso   1.00
C69    C     0.28480   0.19662   0.43831   0.01267  Uiso   1.00
C70    C     0.94450   0.74309   0.31004   0.01267  Uiso   1.00
C71    C     0.96370   0.80681   0.35394   0.01267  Uiso   1.00
C72    C     0.11040   0.84764   0.36138   0.01267  Uiso   1.00
C73    C     0.11860   0.90450   0.40329   0.01267  Uiso   1.00
C74    C     0.84340   0.88481   0.42765   0.01267  Uiso   1.00
C75    C     0.82860   0.82570   0.38824   0.01267  Uiso   1.00
C76    C     0.32570   0.85968   0.84886   0.01267  Uiso   1.00
C77    C     0.00770   0.96262   0.84778   0.01267  Uiso   1.00
C78    C     0.75970   0.93052   0.93230   0.01267  Uiso   1.00
C79    C     0.19120   0.85586   0.89367   0.01267  Uiso   1.00
C80    C     0.04470   0.89966   0.89125   0.01267  Uiso   1.00
C81    C     0.92500   0.88914   0.93436   0.01267  Uiso   1.00
C82    C     0.95220   0.83730   0.97892   0.01267  Uiso   1.00
C83    C     0.09740   0.79340   0.98073   0.01267  Uiso   1.00
C84    C     0.21520   0.80338   0.93831   0.01267  Uiso   1.00
C85    C     0.55550   0.25691   0.81004   0.01267  Uiso   1.00
C86    C     0.53630   0.19319   0.85394   0.01267  Uiso   1.00
C87    C     0.38960   0.15236   0.86138   0.01267  Uiso   1.00
C88    C     0.38140   0.09550   0.90329   0.01267  Uiso   1.00
C89    C     0.65660   0.11519   0.92765   0.01267  Uiso   1.00
C90    C     0.67140   0.17430   0.88824   0.01267  Uiso   1.00
C91    C     0.82570   0.64032   0.15114   0.01267  Uiso   1.00
C92    C     0.50770   0.53738   0.15222   0.01267  Uiso   1.00
C93    C     0.25970   0.56948   0.06770   0.01267  Uiso   1.00
C94    C     0.69120   0.64414   0.10633   0.01267  Uiso   1.00
C95    C     0.54470   0.60034   0.10875   0.01267  Uiso   1.00
C96    C     0.42500   0.61086   0.06564   0.01267  Uiso   1.00
C97    C     0.45220   0.66270   0.02108   0.01267  Uiso   1.00
C98    C     0.59740   0.70660   0.01927   0.01267  Uiso   1.00
C99    C     0.71520   0.69662   0.06169   0.01267  Uiso   1.00
C100   C     0.05550   0.24309   0.18996   0.01267  Uiso   1.00
C101   C     0.03630   0.30681   0.14606   0.01267  Uiso   1.00
C102   C     0.88960   0.34764   0.13862   0.01267  Uiso   1.00
C103   C     0.88140   0.40450   0.09671   0.01267  Uiso   1.00
C104   C     0.15660   0.38481   0.07235   0.01267  Uiso   1.00
C105   C     0.17140   0.32570   0.11176   0.01267  Uiso   1.00
C106   C     0.67430   0.35968   0.65114   0.01267  Uiso   1.00
C107   C     0.99230   0.46262   0.65222   0.01267  Uiso   1.00
C108   C     0.24030   0.43052   0.56770   0.01267  Uiso   1.00
C109   C     0.80880   0.35586   0.60633   0.01267  Uiso   1.00
C110   C     0.95530   0.39966   0.60875   0.01267  Uiso   1.00
C111   C     0.07500   0.38914   0.56564   0.01267  Uiso   1.00
C112   C     0.04780   0.33730   0.52108   0.01267  Uiso   1.00
C113   C     0.90260   0.29340   0.51927   0.01267  Uiso   1.00
C114   C     0.78480   0.30338   0.56169   0.01267  Uiso   1.00
C115   C     0.44450   0.75691   0.68996   0.01267  Uiso   1.00
C116   C     0.46370   0.69319   0.64606   0.01267  Uiso   1.00
C117   C     0.61040   0.65236   0.63862   0.01267  Uiso   1.00
C118   C     0.61860   0.59550   0.59671   0.01267  Uiso   1.00
C119   C     0.34340   0.61519   0.57235   0.01267  Uiso   1.00
C120   C     0.32860   0.67430   0.61176   0.01267  Uiso   1.00
N1     N     0.01270   0.07746   0.56386   0.01267  Uiso   1.00
N2     N     0.48730   0.92254   0.06386   0.01267  Uiso   1.00
N3     N     0.98730   0.57746   0.93614   0.01267  Uiso   1.00
N4     N     0.51270   0.42254   0.43614   0.01267  Uiso   1.00
N5     N     0.98730   0.92254   0.43614   0.01267  Uiso   1.00
N6     N     0.51270   0.07746   0.93614   0.01267  Uiso   1.00
N7     N     0.01270   0.42254   0.06386   0.01267  Uiso   1.00
N8     N     0.48730   0.57746   0.56386   0.01267  Uiso   1.00
O1     O     0.81210   0.90865   0.69232   0.01267  Uiso   1.00
O2     O     0.94950   0.81688   0.64711   0.01267  Uiso   1.00
O3     O     0.45080   0.94178   0.70133   0.01267  Uiso   1.00
O4     O     0.52830   0.02954   0.63601   0.01267  Uiso   1.00
O5     O     0.18400   0.93672   0.61347   0.01267  Uiso   1.00
O6     O     0.20930   0.95423   0.51925   0.01267  Uiso   1.00
O7     O     0.19810   0.28571   0.69330   0.01267  Uiso   1.00
O8     O     0.93230   0.27655   0.71951   0.01267  Uiso   1.00
O9     O     0.68790   0.09135   0.19232   0.01267  Uiso   1.00
O10    O     0.55050   0.18312   0.14711   0.01267  Uiso   1.00
O11    O     0.04920   0.05822   0.20133   0.01267  Uiso   1.00
O12    O     0.97170   0.97046   0.13601   0.01267  Uiso   1.00
O13    O     0.31600   0.06328   0.11347   0.01267  Uiso   1.00
O14    O     0.29070   0.04577   0.01925   0.01267  Uiso   1.00
O15    O     0.30190   0.71429   0.19330   0.01267  Uiso   1.00
O16    O     0.56770   0.72345   0.21951   0.01267  Uiso   1.00
O17    O     0.18790   0.40865   0.80768   0.01267  Uiso   1.00
O18    O     0.05050   0.31688   0.85289   0.01267  Uiso   1.00
O19    O     0.54920   0.44178   0.79867   0.01267  Uiso   1.00
O20    O     0.47170   0.52954   0.86399   0.01267  Uiso   1.00
O21    O     0.81600   0.43672   0.88653   0.01267  Uiso   1.00
O22    O     0.79070   0.45423   0.98075   0.01267  Uiso   1.00
O23    O     0.80190   0.78571   0.80670   0.01267  Uiso   1.00
O24    O     0.06770   0.77655   0.78049   0.01267  Uiso   1.00
O25    O     0.31210   0.59135   0.30768   0.01267  Uiso   1.00
O26    O     0.44950   0.68312   0.35289   0.01267  Uiso   1.00
O27    O     0.95080   0.55822   0.29867   0.01267  Uiso   1.00
O28    O     0.02830   0.47046   0.36399   0.01267  Uiso   1.00
O29    O     0.68400   0.56328   0.38653   0.01267  Uiso   1.00
O30    O     0.70930   0.54577   0.48075   0.01267  Uiso   1.00
O31    O     0.69810   0.21429   0.30670   0.01267  Uiso   1.00
O32    O     0.43230   0.22345   0.28049   0.01267  Uiso   1.00
O33    O     0.18790   0.09135   0.30768   0.01267  Uiso   1.00
O34    O     0.05050   0.18312   0.35289   0.01267  Uiso   1.00
O35    O     0.54920   0.05822   0.29867   0.01267  Uiso   1.00
O36    O     0.47170   0.97046   0.36399   0.01267  Uiso   1.00
O37    O     0.81600   0.06328   0.38653   0.01267  Uiso   1.00
O38    O     0.79070   0.04577   0.48075   0.01267  Uiso   1.00
O39    O     0.80190   0.71429   0.30670   0.01267  Uiso   1.00
O40    O     0.06770   0.72345   0.28049   0.01267  Uiso   1.00
O41    O     0.31210   0.90865   0.80768   0.01267  Uiso   1.00
O42    O     0.44950   0.81688   0.85289   0.01267  Uiso   1.00
O43    O     0.95080   0.94178   0.79867   0.01267  Uiso   1.00
O44    O     0.02830   0.02954   0.86399   0.01267  Uiso   1.00
O45    O     0.68400   0.93672   0.88653   0.01267  Uiso   1.00
O46    O     0.70930   0.95423   0.98075   0.01267  Uiso   1.00
O47    O     0.69810   0.28571   0.80670   0.01267  Uiso   1.00
O48    O     0.43230   0.27655   0.78049   0.01267  Uiso   1.00
O49    O     0.81210   0.59135   0.19232   0.01267  Uiso   1.00
O50    O     0.94950   0.68312   0.14711   0.01267  Uiso   1.00
O51    O     0.45080   0.55822   0.20133   0.01267  Uiso   1.00
O52    O     0.52830   0.47046   0.13601   0.01267  Uiso   1.00
O53    O     0.18400   0.56328   0.11347   0.01267  Uiso   1.00
O54    O     0.20930   0.54577   0.01925   0.01267  Uiso   1.00
O55    O     0.19810   0.21429   0.19330   0.01267  Uiso   1.00
O56    O     0.93230   0.22345   0.21951   0.01267  Uiso   1.00
O57    O     0.68790   0.40865   0.69232   0.01267  Uiso   1.00
O58    O     0.55050   0.31688   0.64711   0.01267  Uiso   1.00
O59    O     0.04920   0.44178   0.70133   0.01267  Uiso   1.00
O60    O     0.97170   0.52954   0.63601   0.01267  Uiso   1.00
O61    O     0.31600   0.43672   0.61347   0.01267  Uiso   1.00
O62    O     0.29070   0.45423   0.51925   0.01267  Uiso   1.00
O63    O     0.30190   0.78571   0.69330   0.01267  Uiso   1.00
O64    O     0.56770   0.77655   0.71951   0.01267  Uiso   1.00
