data_LAZXOB_clean
_audit_creation_date              2014-07-02
_audit_creation_method            'Materials Studio'
_symmetry_space_group_name_H-M    'P1'
_symmetry_Int_Tables_number       1
_symmetry_cell_setting            triclinic
loop_
_symmetry_equiv_pos_as_xyz
  x,y,z
_cell_length_a                    17.5575
_cell_length_b                    17.5575
_cell_length_c                    17.5575
_cell_angle_alpha                 108.3390
_cell_angle_beta                  110.0400
_cell_angle_gamma                 110.0400
loop_
_atom_site_label
_atom_site_type_symbol
_atom_site_fract_x
_atom_site_fract_y
_atom_site_fract_z
_atom_site_U_iso_or_equiv
_atom_site_adp_type
_atom_site_occupancy
Cu1    Cu    0.47032   0.04468   0.04716   0.01267  Uiso   1.00
Cu2    Cu    0.52968   0.57684   0.57436   0.01267  Uiso   1.00
Cu3    Cu    0.99752   0.42316   0.95284   0.01267  Uiso   1.00
Cu4    Cu    0.00248   0.95532   0.42564   0.01267  Uiso   1.00
Cu5    Cu    0.52968   0.95532   0.95284   0.01267  Uiso   1.00
Cu6    Cu    0.47032   0.42316   0.42564   0.01267  Uiso   1.00
Cu7    Cu    0.00248   0.57684   0.04716   0.01267  Uiso   1.00
Cu8    Cu    0.99752   0.04468   0.57436   0.01267  Uiso   1.00
Cu9    Cu    0.06600   0.50000   0.56600   0.01267  Uiso   1.00
Cu10   Cu    0.93400   0.50000   0.43400   0.01267  Uiso   1.00
Cu11   Cu    0.43440   0.43440   1.00000   0.01267  Uiso   1.00
Cu12   Cu    0.56560   0.56560   0.00000   0.01267  Uiso   1.00
H1     H     0.45440   0.74660   0.99620   0.01267  Uiso   1.00
H2     H     0.66290   0.88840   0.14570   0.01267  Uiso   1.00
H3     H     0.73640   0.20090   0.26410   0.01267  Uiso   1.00
H4     H     0.23630   0.83700   0.99290   0.01267  Uiso   1.00
H5     H     0.54560   0.54180   0.29220   0.01267  Uiso   1.00
H6     H     0.33710   0.48280   0.22550   0.01267  Uiso   1.00
H7     H     0.26360   0.52770   0.46450   0.01267  Uiso   1.00
H8     H     0.76370   0.75660   0.60070   0.01267  Uiso   1.00
H9     H     0.75040   0.45820   0.00380   0.01267  Uiso   1.00
H10    H     0.74270   0.51720   0.85430   0.01267  Uiso   1.00
H11    H     0.93680   0.47230   0.73590   0.01267  Uiso   1.00
H12    H     0.84410   0.24340   0.00710   0.01267  Uiso   1.00
H13    H     0.24960   0.25340   0.70780   0.01267  Uiso   1.00
H14    H     0.25730   0.11160   0.77450   0.01267  Uiso   1.00
H15    H     0.06320   0.79910   0.53550   0.01267  Uiso   1.00
H16    H     0.15590   0.16300   0.39930   0.01267  Uiso   1.00
H17    H     0.54560   0.25340   0.00380   0.01267  Uiso   1.00
H18    H     0.33710   0.11160   0.85430   0.01267  Uiso   1.00
H19    H     0.26360   0.79910   0.73590   0.01267  Uiso   1.00
H20    H     0.76370   0.16300   0.00710   0.01267  Uiso   1.00
H21    H     0.45440   0.45820   0.70780   0.01267  Uiso   1.00
H22    H     0.66290   0.51720   0.77450   0.01267  Uiso   1.00
H23    H     0.73640   0.47230   0.53550   0.01267  Uiso   1.00
H24    H     0.23630   0.24340   0.39930   0.01267  Uiso   1.00
H25    H     0.24960   0.54180   0.99620   0.01267  Uiso   1.00
H26    H     0.25730   0.48280   0.14570   0.01267  Uiso   1.00
H27    H     0.06320   0.52770   0.26410   0.01267  Uiso   1.00
H28    H     0.15590   0.75660   0.99290   0.01267  Uiso   1.00
H29    H     0.75040   0.74660   0.29220   0.01267  Uiso   1.00
H30    H     0.74270   0.88840   0.22550   0.01267  Uiso   1.00
H31    H     0.93680   0.20090   0.46450   0.01267  Uiso   1.00
H32    H     0.84410   0.83700   0.60070   0.01267  Uiso   1.00
C1     C     0.34580   0.76580   0.99020   0.01267  Uiso   1.00
C2     C     0.39540   0.72060   0.99280   0.01267  Uiso   1.00
C3     C     0.39290   0.85100   0.98530   0.01267  Uiso   1.00
C4     C     0.72720   0.07970   0.23410   0.01267  Uiso   1.00
C5     C     0.76760   0.16940   0.28180   0.01267  Uiso   1.00
C6     C     0.63260   0.02920   0.14120   0.01267  Uiso   1.00
C7     C     0.65420   0.64440   0.42000   0.01267  Uiso   1.00
C8     C     0.60460   0.59740   0.32520   0.01267  Uiso   1.00
C9     C     0.60710   0.59240   0.45810   0.01267  Uiso   1.00
C10    C     0.27280   0.50690   0.35250   0.01267  Uiso   1.00
C11    C     0.23240   0.51420   0.40180   0.01267  Uiso   1.00
C12    C     0.36740   0.50860   0.39660   0.01267  Uiso   1.00
C13    C     0.77560   0.35560   0.00980   0.01267  Uiso   1.00
C14    C     0.72780   0.40260   0.00720   0.01267  Uiso   1.00
C15    C     0.86570   0.40760   0.01470   0.01267  Uiso   1.00
C16    C     0.84560   0.49310   0.76590   0.01267  Uiso   1.00
C17    C     0.88760   0.48580   0.71820   0.01267  Uiso   1.00
C18    C     0.88800   0.49140   0.85880   0.01267  Uiso   1.00
C19    C     0.22440   0.23420   0.58000   0.01267  Uiso   1.00
C20    C     0.27220   0.27940   0.67480   0.01267  Uiso   1.00
C21    C     0.13430   0.14900   0.54190   0.01267  Uiso   1.00
C22    C     0.15440   0.92030   0.64750   0.01267  Uiso   1.00
C23    C     0.11240   0.83060   0.59820   0.01267  Uiso   1.00
C24    C     0.11200   0.97080   0.60340   0.01267  Uiso   1.00
C25    C     0.65420   0.23420   0.00980   0.01267  Uiso   1.00
C26    C     0.60460   0.27940   0.00720   0.01267  Uiso   1.00
C27    C     0.60710   0.14900   0.01470   0.01267  Uiso   1.00
C28    C     0.27280   0.92030   0.76590   0.01267  Uiso   1.00
C29    C     0.23240   0.83060   0.71820   0.01267  Uiso   1.00
C30    C     0.36740   0.97080   0.85880   0.01267  Uiso   1.00
C31    C     0.34580   0.35560   0.58000   0.01267  Uiso   1.00
C32    C     0.39540   0.40260   0.67480   0.01267  Uiso   1.00
C33    C     0.39290   0.40760   0.54190   0.01267  Uiso   1.00
C34    C     0.72720   0.49310   0.64750   0.01267  Uiso   1.00
C35    C     0.76760   0.48580   0.59820   0.01267  Uiso   1.00
C36    C     0.63260   0.49140   0.60340   0.01267  Uiso   1.00
C37    C     0.22440   0.64440   0.99020   0.01267  Uiso   1.00
C38    C     0.27220   0.59740   0.99280   0.01267  Uiso   1.00
C39    C     0.13430   0.59240   0.98530   0.01267  Uiso   1.00
C40    C     0.15440   0.50690   0.23410   0.01267  Uiso   1.00
C41    C     0.11240   0.51420   0.28180   0.01267  Uiso   1.00
C42    C     0.11200   0.50860   0.14120   0.01267  Uiso   1.00
C43    C     0.77560   0.76580   0.42000   0.01267  Uiso   1.00
C44    C     0.72780   0.72060   0.32520   0.01267  Uiso   1.00
C45    C     0.86570   0.85100   0.45810   0.01267  Uiso   1.00
C46    C     0.84560   0.07970   0.35250   0.01267  Uiso   1.00
C47    C     0.88760   0.16940   0.40180   0.01267  Uiso   1.00
C48    C     0.88800   0.02920   0.39660   0.01267  Uiso   1.00
C49    C     0.75680   0.02430   0.26750   0.01267  Uiso   1.00
C50    C     0.69900   0.91250   0.21350   0.01267  Uiso   1.00
C51    C     0.63400   0.88200   0.24800   0.01267  Uiso   1.00
C52    C     0.85890   0.21940   0.36050   0.01267  Uiso   1.00
C53    C     0.91230   0.32640   0.41410   0.01267  Uiso   1.00
C54    C     0.24320   0.51070   0.26750   0.01267  Uiso   1.00
C55    C     0.30100   0.51450   0.21350   0.01267  Uiso   1.00
C56    C     0.36600   0.61400   0.24800   0.01267  Uiso   1.00
C57    C     0.14110   0.50160   0.36050   0.01267  Uiso   1.00
C58    C     0.08770   0.50180   0.41410   0.01267  Uiso   1.00
C59    C     0.75680   0.48930   0.73250   0.01267  Uiso   1.00
C60    C     0.69900   0.48550   0.78650   0.01267  Uiso   1.00
C61    C     0.63400   0.38600   0.75200   0.01267  Uiso   1.00
C62    C     0.85890   0.49840   0.63950   0.01267  Uiso   1.00
C63    C     0.91230   0.49820   0.58590   0.01267  Uiso   1.00
C64    C     0.24320   0.97570   0.73250   0.01267  Uiso   1.00
C65    C     0.30100   0.08750   0.78650   0.01267  Uiso   1.00
C66    C     0.36600   0.11800   0.75200   0.01267  Uiso   1.00
C67    C     0.14110   0.78060   0.63950   0.01267  Uiso   1.00
C68    C     0.08770   0.67360   0.58590   0.01267  Uiso   1.00
C69    C     0.41290   0.58730   0.00020   0.01267  Uiso   1.00
C70    C     0.14200   0.71600   0.85800   0.01267  Uiso   1.00
C71    C     0.25390   0.72650   0.98040   0.01267  Uiso   1.00
C72    C     0.35680   0.63370   0.99050   0.01267  Uiso   1.00
C73    C     0.19770   0.76920   0.96690   0.01267  Uiso   1.00
C74    C     0.58710   0.58730   0.17440   0.01267  Uiso   1.00
C75    C     0.85800   0.71600   0.57400   0.01267  Uiso   1.00
C76    C     0.74610   0.72650   0.47260   0.01267  Uiso   1.00
C77    C     0.64320   0.63370   0.27690   0.01267  Uiso   1.00
C78    C     0.80230   0.76920   0.57150   0.01267  Uiso   1.00
C79    C     0.58710   0.41270   0.99980   0.01267  Uiso   1.00
C80    C     0.85800   0.28400   0.14200   0.01267  Uiso   1.00
C81    C     0.74610   0.27350   0.01960   0.01267  Uiso   1.00
C82    C     0.64320   0.36630   0.00950   0.01267  Uiso   1.00
C83    C     0.80230   0.23080   0.03310   0.01267  Uiso   1.00
C84    C     0.41290   0.41270   0.82560   0.01267  Uiso   1.00
C85    C     0.14200   0.28400   0.42600   0.01267  Uiso   1.00
C86    C     0.25390   0.27350   0.52740   0.01267  Uiso   1.00
C87    C     0.35680   0.36630   0.72310   0.01267  Uiso   1.00
C88    C     0.19770   0.23080   0.42850   0.01267  Uiso   1.00
O1     O     0.57060   0.05520   0.14680   0.01267  Uiso   1.00
O2     O     0.98750   0.36430   0.48640   0.01267  Uiso   1.00
O3     O     0.43550   0.85320   0.94810   0.01267  Uiso   1.00
O4     O     0.38540   0.92100   0.02700   0.01267  Uiso   1.00
O5     O     0.37350   0.50580   0.99530   0.01267  Uiso   1.00
O6     O     0.62390   0.98050   0.07380   0.01267  Uiso   1.00
O7     O     0.42940   0.57620   0.48460   0.01267  Uiso   1.00
O8     O     0.01250   0.49890   0.37680   0.01267  Uiso   1.00
O9     O     0.56450   0.51260   0.41770   0.01267  Uiso   1.00
O10    O     0.61460   0.64160   0.53560   0.01267  Uiso   1.00
O11    O     0.62650   0.62180   0.13230   0.01267  Uiso   1.00
O12    O     0.37610   0.44990   0.35660   0.01267  Uiso   1.00
O13    O     0.90840   0.42380   0.85320   0.01267  Uiso   1.00
O14    O     0.87790   0.50110   0.51360   0.01267  Uiso   1.00
O15    O     0.90510   0.48740   0.05190   0.01267  Uiso   1.00
O16    O     0.89400   0.35840   0.97300   0.01267  Uiso   1.00
O17    O     0.51050   0.37820   0.00470   0.01267  Uiso   1.00
O18    O     0.90670   0.55010   0.92620   0.01267  Uiso   1.00
O19    O     0.09160   0.94480   0.51540   0.01267  Uiso   1.00
O20    O     0.12210   0.63570   0.62320   0.01267  Uiso   1.00
O21    O     0.09490   0.14680   0.58230   0.01267  Uiso   1.00
O22    O     0.10600   0.07900   0.46440   0.01267  Uiso   1.00
O23    O     0.48950   0.49420   0.86770   0.01267  Uiso   1.00
O24    O     0.09330   0.01950   0.64340   0.01267  Uiso   1.00
O25    O     0.42940   0.94480   0.85320   0.01267  Uiso   1.00
O26    O     0.01250   0.63570   0.51360   0.01267  Uiso   1.00
O27    O     0.56450   0.14680   0.05190   0.01267  Uiso   1.00
O28    O     0.61460   0.07900   0.97300   0.01267  Uiso   1.00
O29    O     0.62650   0.49420   0.00470   0.01267  Uiso   1.00
O30    O     0.37610   0.01950   0.92620   0.01267  Uiso   1.00
O31    O     0.57060   0.42380   0.51540   0.01267  Uiso   1.00
O32    O     0.98750   0.50110   0.62320   0.01267  Uiso   1.00
O33    O     0.43550   0.48740   0.58230   0.01267  Uiso   1.00
O34    O     0.38540   0.35840   0.46440   0.01267  Uiso   1.00
O35    O     0.37350   0.37820   0.86770   0.01267  Uiso   1.00
O36    O     0.62390   0.55010   0.64340   0.01267  Uiso   1.00
O37    O     0.09160   0.57620   0.14680   0.01267  Uiso   1.00
O38    O     0.12210   0.49890   0.48640   0.01267  Uiso   1.00
O39    O     0.09490   0.51260   0.94810   0.01267  Uiso   1.00
O40    O     0.10600   0.64160   0.02700   0.01267  Uiso   1.00
O41    O     0.48950   0.62180   0.99530   0.01267  Uiso   1.00
O42    O     0.09330   0.44990   0.07380   0.01267  Uiso   1.00
O43    O     0.90840   0.05520   0.48460   0.01267  Uiso   1.00
O44    O     0.87790   0.36430   0.37680   0.01267  Uiso   1.00
O45    O     0.90510   0.85320   0.41770   0.01267  Uiso   1.00
O46    O     0.89400   0.92100   0.53560   0.01267  Uiso   1.00
O47    O     0.51050   0.50580   0.13230   0.01267  Uiso   1.00
O48    O     0.90670   0.98050   0.35660   0.01267  Uiso   1.00
