data_LECFUW_charged
_audit_creation_date              2014-07-02
_audit_creation_method            'Materials Studio'
_symmetry_space_group_name_H-M    'P1'
_symmetry_Int_Tables_number       1
_symmetry_cell_setting            triclinic
loop_
_symmetry_equiv_pos_as_xyz
  x,y,z
_cell_length_a                    16.9906
_cell_length_b                    19.4438
_cell_length_c                    19.4438
_cell_angle_alpha                 68.1155
_cell_angle_beta                  73.0656
_cell_angle_gamma                 106.9340
loop_
_atom_site_label
_atom_site_type_symbol
_atom_site_fract_x
_atom_site_fract_y
_atom_site_fract_z
_atom_site_U_iso_or_equiv
_atom_site_adp_type
_atom_site_occupancy
Cu1    Cu    0.05275   0.57608   0.37961   0.01267  Uiso   1.00
Cu2    Cu    0.11440   0.44425   0.49987   0.01267  Uiso   1.00
Cu3    Cu    0.97044   0.72732   0.31683   0.01267  Uiso   1.00
Cu4    Cu    0.43236   0.37961   0.04431   0.01267  Uiso   1.00
Cu5    Cu    0.61427   0.49987   0.05588   0.01267  Uiso   1.00
Cu6    Cu    0.28727   0.31683   0.95585   0.01267  Uiso   1.00
Cu7    Cu    0.47667   0.04431   0.57608   0.01267  Uiso   1.00
Cu8    Cu    0.67015   0.05588   0.44425   0.01267  Uiso   1.00
Cu9    Cu    0.24312   0.95585   0.72732   0.01267  Uiso   1.00
Cu10   Cu    0.94725   0.42392   0.62039   0.01267  Uiso   1.00
Cu11   Cu    0.88560   0.55575   0.50013   0.01267  Uiso   1.00
Cu12   Cu    0.02956   0.27268   0.68317   0.01267  Uiso   1.00
Cu13   Cu    0.56764   0.62039   0.95569   0.01267  Uiso   1.00
Cu14   Cu    0.38573   0.50013   0.94412   0.01267  Uiso   1.00
Cu15   Cu    0.71273   0.68317   0.04415   0.01267  Uiso   1.00
Cu16   Cu    0.52333   0.95569   0.42392   0.01267  Uiso   1.00
Cu17   Cu    0.32985   0.94412   0.55575   0.01267  Uiso   1.00
Cu18   Cu    0.75688   0.04415   0.27268   0.01267  Uiso   1.00
H1     H     0.69500   0.86600   0.19370   0.01267  Uiso   1.00
H2     H     0.48290   0.67710   0.21900   0.01267  Uiso   1.00
H3     H     0.43030   0.79500   0.34890   0.01267  Uiso   1.00
H4     H     0.22990   0.76610   0.26060   0.01267  Uiso   1.00
H5     H     0.33470   0.79090   0.20500   0.01267  Uiso   1.00
H6     H     0.30970   0.80970   0.27990   0.01267  Uiso   1.00
H7     H     0.33860   0.56040   0.40890   0.01267  Uiso   1.00
H8     H     0.03620   0.23020   0.16330   0.01267  Uiso   1.00
H9     H     0.18990   0.42180   0.18090   0.01267  Uiso   1.00
H10    H     0.92950   0.25410   0.36480   0.01267  Uiso   1.00
H11    H     0.98700   0.52400   0.26000   0.01267  Uiso   1.00
H12    H     0.95840   0.43780   0.26050   0.01267  Uiso   1.00
H13    H     0.05750   0.51400   0.19360   0.01267  Uiso   1.00
H14    H     0.10880   0.33380   0.40670   0.01267  Uiso   1.00
H15    H     0.88870   0.19370   0.94030   0.01267  Uiso   1.00
H16    H     0.70190   0.21900   0.10390   0.01267  Uiso   1.00
H17    H     0.77920   0.34890   0.85610   0.01267  Uiso   1.00
H18    H     0.49050   0.26060   0.97330   0.01267  Uiso   1.00
H19    H     0.53970   0.20500   0.00410   0.01267  Uiso   1.00
H20    H     0.58960   0.27990   0.91040   0.01267  Uiso   1.00
H21    H     0.74750   0.40890   0.03070   0.01267  Uiso   1.00
H22    H     0.19950   0.16330   0.60650   0.01267  Uiso   1.00
H23    H     0.37080   0.18090   0.39730   0.01267  Uiso   1.00
H24    H     0.29430   0.36480   0.38110   0.01267  Uiso   1.00
H25    H     0.24700   0.26000   0.21600   0.01267  Uiso   1.00
H26    H     0.21890   0.26050   0.30170   0.01267  Uiso   1.00
H27    H     0.25110   0.19360   0.29240   0.01267  Uiso   1.00
H28    H     0.51550   0.40670   0.25950   0.01267  Uiso   1.00
H29    H     0.82900   0.94030   0.86600   0.01267  Uiso   1.00
H30    H     0.80580   0.10390   0.67710   0.01267  Uiso   1.00
H31    H     0.63530   0.85610   0.79500   0.01267  Uiso   1.00
H32    H     0.46380   0.97330   0.76610   0.01267  Uiso   1.00
H33    H     0.54380   0.00410   0.79090   0.01267  Uiso   1.00
H34    H     0.50000   0.91040   0.80970   0.01267  Uiso   1.00
H35    H     0.77820   0.03070   0.56040   0.01267  Uiso   1.00
H36    H     0.80600   0.60650   0.23020   0.01267  Uiso   1.00
H37    H     0.76810   0.39730   0.42180   0.01267  Uiso   1.00
H38    H     0.67540   0.38110   0.25410   0.01267  Uiso   1.00
H39    H     0.46300   0.21600   0.52400   0.01267  Uiso   1.00
H40    H     0.52060   0.30170   0.43780   0.01267  Uiso   1.00
H41    H     0.54350   0.29240   0.51400   0.01267  Uiso   1.00
H42    H     0.77500   0.25950   0.33380   0.01267  Uiso   1.00
H43    H     0.30500   0.13400   0.80630   0.01267  Uiso   1.00
H44    H     0.51710   0.32290   0.78100   0.01267  Uiso   1.00
H45    H     0.56970   0.20500   0.65110   0.01267  Uiso   1.00
H46    H     0.77010   0.23390   0.73940   0.01267  Uiso   1.00
H47    H     0.66530   0.20910   0.79500   0.01267  Uiso   1.00
H48    H     0.69030   0.19030   0.72010   0.01267  Uiso   1.00
H49    H     0.66140   0.43960   0.59110   0.01267  Uiso   1.00
H50    H     0.96380   0.76980   0.83670   0.01267  Uiso   1.00
H51    H     0.81010   0.57820   0.81910   0.01267  Uiso   1.00
H52    H     0.07050   0.74590   0.63520   0.01267  Uiso   1.00
H53    H     0.01300   0.47600   0.74000   0.01267  Uiso   1.00
H54    H     0.04160   0.56220   0.73950   0.01267  Uiso   1.00
H55    H     0.94250   0.48600   0.80640   0.01267  Uiso   1.00
H56    H     0.89120   0.66620   0.59330   0.01267  Uiso   1.00
H57    H     0.11130   0.80630   0.05970   0.01267  Uiso   1.00
H58    H     0.29810   0.78100   0.89610   0.01267  Uiso   1.00
H59    H     0.22080   0.65110   0.14390   0.01267  Uiso   1.00
H60    H     0.50950   0.73940   0.02670   0.01267  Uiso   1.00
H61    H     0.46030   0.79500   0.99590   0.01267  Uiso   1.00
H62    H     0.41040   0.72010   0.08960   0.01267  Uiso   1.00
H63    H     0.25250   0.59110   0.96930   0.01267  Uiso   1.00
H64    H     0.80050   0.83670   0.39350   0.01267  Uiso   1.00
H65    H     0.62920   0.81910   0.60270   0.01267  Uiso   1.00
H66    H     0.70570   0.63520   0.61890   0.01267  Uiso   1.00
H67    H     0.75300   0.74000   0.78400   0.01267  Uiso   1.00
H68    H     0.78110   0.73950   0.69830   0.01267  Uiso   1.00
H69    H     0.74890   0.80640   0.70760   0.01267  Uiso   1.00
H70    H     0.48450   0.59330   0.74050   0.01267  Uiso   1.00
H71    H     0.17100   0.05970   0.13400   0.01267  Uiso   1.00
H72    H     0.19420   0.89610   0.32290   0.01267  Uiso   1.00
H73    H     0.36470   0.14390   0.20500   0.01267  Uiso   1.00
H74    H     0.53620   0.02670   0.23390   0.01267  Uiso   1.00
H75    H     0.45620   0.99590   0.20910   0.01267  Uiso   1.00
H76    H     0.50000   0.08960   0.19030   0.01267  Uiso   1.00
H77    H     0.22180   0.96930   0.43960   0.01267  Uiso   1.00
H78    H     0.19400   0.39350   0.76980   0.01267  Uiso   1.00
H79    H     0.23190   0.60270   0.57820   0.01267  Uiso   1.00
H80    H     0.32460   0.61890   0.74590   0.01267  Uiso   1.00
H81    H     0.53700   0.78400   0.47600   0.01267  Uiso   1.00
H82    H     0.47940   0.69830   0.56220   0.01267  Uiso   1.00
H83    H     0.45650   0.70760   0.48600   0.01267  Uiso   1.00
H84    H     0.22500   0.74050   0.66620   0.01267  Uiso   1.00
C1     C     0.60191   0.90448   0.29845   0.01267  Uiso   1.00
C2     C     0.56768   0.84078   0.27384   0.01267  Uiso   1.00
C3     C     0.63087   0.83106   0.21795   0.01267  Uiso   1.00
C4     C     0.59921   0.76948   0.19795   0.01267  Uiso   1.00
C5     C     0.50494   0.71811   0.23319   0.01267  Uiso   1.00
C6     C     0.44397   0.72838   0.28957   0.01267  Uiso   1.00
C7     C     0.47340   0.78903   0.31053   0.01267  Uiso   1.00
C8     C     0.66802   0.75641   0.13985   0.01267  Uiso   1.00
C9     C     0.28865   0.77068   0.26113   0.01267  Uiso   1.00
C10    C     0.27614   0.68726   0.31904   0.01267  Uiso   1.00
C11    C     0.30676   0.58940   0.38852   0.01267  Uiso   1.00
C12    C     0.87855   0.15684   0.30309   0.01267  Uiso   1.00
C13    C     0.96932   0.23080   0.26914   0.01267  Uiso   1.00
C14    C     0.04271   0.25904   0.19301   0.01267  Uiso   1.00
C15    C     0.12546   0.32943   0.16044   0.01267  Uiso   1.00
C16    C     0.13455   0.37362   0.20277   0.01267  Uiso   1.00
C17    C     0.06029   0.34483   0.27805   0.01267  Uiso   1.00
C18    C     0.97834   0.27338   0.31256   0.01267  Uiso   1.00
C19    C     0.20562   0.35799   0.07959   0.01267  Uiso   1.00
C20    C     0.00960   0.48571   0.25081   0.01267  Uiso   1.00
C21    C     0.04839   0.45702   0.30915   0.01267  Uiso   1.00
C22    C     0.09147   0.37627   0.38446   0.01267  Uiso   1.00
C23    C     0.90036   0.29845   0.79707   0.01267  Uiso   1.00
C24    C     0.84152   0.27384   0.88538   0.01267  Uiso   1.00
C25    C     0.84882   0.21795   0.95099   0.01267  Uiso   1.00
C26    C     0.79716   0.19795   0.03257   0.01267  Uiso   1.00
C27    C     0.73813   0.23319   0.04870   0.01267  Uiso   1.00
C28    C     0.73354   0.28957   0.98205   0.01267  Uiso   1.00
C29    C     0.78393   0.31053   0.90044   0.01267  Uiso   1.00
C30    C     0.80787   0.13985   0.10374   0.01267  Uiso   1.00
C31    C     0.54978   0.26113   0.96819   0.01267  Uiso   1.00
C32    C     0.59518   0.31904   0.99370   0.01267  Uiso   1.00
C33    C     0.69528   0.38852   0.02208   0.01267  Uiso   1.00
C34    C     0.18164   0.30309   0.54007   0.01267  Uiso   1.00
C35    C     0.23846   0.26914   0.50006   0.01267  Uiso   1.00
C36    C     0.23572   0.19301   0.54795   0.01267  Uiso   1.00
C37    C     0.28590   0.16044   0.51013   0.01267  Uiso   1.00
C38    C     0.33732   0.20277   0.42361   0.01267  Uiso   1.00
C39    C     0.33834   0.27805   0.37712   0.01267  Uiso   1.00
C40    C     0.29090   0.31256   0.41406   0.01267  Uiso   1.00
C41    C     0.28521   0.07959   0.56242   0.01267  Uiso   1.00
C42    C     0.26041   0.25081   0.26348   0.01267  Uiso   1.00
C43    C     0.35754   0.30915   0.23383   0.01267  Uiso   1.00
C44    C     0.47593   0.38446   0.23927   0.01267  Uiso   1.00
C45    C     0.69743   0.79707   0.90448   0.01267  Uiso   1.00
C46    C     0.72690   0.88538   0.84078   0.01267  Uiso   1.00
C47    C     0.79981   0.95099   0.83106   0.01267  Uiso   1.00
C48    C     0.82973   0.03257   0.76948   0.01267  Uiso   1.00
C49    C     0.78683   0.04870   0.71811   0.01267  Uiso   1.00
C50    C     0.71559   0.98205   0.72838   0.01267  Uiso   1.00
C51    C     0.68437   0.90044   0.78903   0.01267  Uiso   1.00
C52    C     0.91161   0.10374   0.75641   0.01267  Uiso   1.00
C53    C     0.51797   0.96819   0.77068   0.01267  Uiso   1.00
C54    C     0.58888   0.99370   0.68726   0.01267  Uiso   1.00
C55    C     0.71736   0.02208   0.58940   0.01267  Uiso   1.00
C56    C     0.72171   0.54007   0.15684   0.01267  Uiso   1.00
C57    C     0.73852   0.50006   0.23080   0.01267  Uiso   1.00
C58    C     0.78367   0.54795   0.25904   0.01267  Uiso   1.00
C59    C     0.79603   0.51013   0.32943   0.01267  Uiso   1.00
C60    C     0.76093   0.42361   0.37362   0.01267  Uiso   1.00
C61    C     0.71546   0.37712   0.34483   0.01267  Uiso   1.00
C62    C     0.70496   0.41406   0.27338   0.01267  Uiso   1.00
C63    C     0.84763   0.56242   0.35799   0.01267  Uiso   1.00
C64    C     0.52389   0.26348   0.48571   0.01267  Uiso   1.00
C65    C     0.59137   0.23383   0.45702   0.01267  Uiso   1.00
C66    C     0.71520   0.23927   0.37627   0.01267  Uiso   1.00
C67    C     0.39809   0.09552   0.70155   0.01267  Uiso   1.00
C68    C     0.43232   0.15922   0.72616   0.01267  Uiso   1.00
C69    C     0.36913   0.16894   0.78205   0.01267  Uiso   1.00
C70    C     0.40079   0.23052   0.80205   0.01267  Uiso   1.00
C71    C     0.49506   0.28189   0.76681   0.01267  Uiso   1.00
C72    C     0.55603   0.27162   0.71043   0.01267  Uiso   1.00
C73    C     0.52660   0.21097   0.68947   0.01267  Uiso   1.00
C74    C     0.33198   0.24359   0.86015   0.01267  Uiso   1.00
C75    C     0.71135   0.22932   0.73887   0.01267  Uiso   1.00
C76    C     0.72386   0.31274   0.68096   0.01267  Uiso   1.00
C77    C     0.69324   0.41060   0.61148   0.01267  Uiso   1.00
C78    C     0.12145   0.84316   0.69691   0.01267  Uiso   1.00
C79    C     0.03068   0.76920   0.73086   0.01267  Uiso   1.00
C80    C     0.95729   0.74096   0.80699   0.01267  Uiso   1.00
C81    C     0.87454   0.67057   0.83956   0.01267  Uiso   1.00
C82    C     0.86545   0.62638   0.79723   0.01267  Uiso   1.00
C83    C     0.93971   0.65517   0.72195   0.01267  Uiso   1.00
C84    C     0.02166   0.72662   0.68744   0.01267  Uiso   1.00
C85    C     0.79438   0.64201   0.92041   0.01267  Uiso   1.00
C86    C     0.99040   0.51429   0.74919   0.01267  Uiso   1.00
C87    C     0.95161   0.54298   0.69085   0.01267  Uiso   1.00
C88    C     0.90853   0.62373   0.61554   0.01267  Uiso   1.00
C89    C     0.09964   0.70155   0.20293   0.01267  Uiso   1.00
C90    C     0.15848   0.72616   0.11462   0.01267  Uiso   1.00
C91    C     0.15118   0.78205   0.04901   0.01267  Uiso   1.00
C92    C     0.20284   0.80205   0.96743   0.01267  Uiso   1.00
C93    C     0.26187   0.76681   0.95130   0.01267  Uiso   1.00
C94    C     0.26646   0.71043   0.01795   0.01267  Uiso   1.00
C95    C     0.21607   0.68947   0.09956   0.01267  Uiso   1.00
C96    C     0.19213   0.86015   0.89626   0.01267  Uiso   1.00
C97    C     0.45022   0.73887   0.03181   0.01267  Uiso   1.00
C98    C     0.40482   0.68096   0.00630   0.01267  Uiso   1.00
C99    C     0.30472   0.61148   0.97792   0.01267  Uiso   1.00
C100   C     0.81836   0.69691   0.45993   0.01267  Uiso   1.00
C101   C     0.76154   0.73086   0.49994   0.01267  Uiso   1.00
C102   C     0.76428   0.80699   0.45205   0.01267  Uiso   1.00
C103   C     0.71410   0.83956   0.48987   0.01267  Uiso   1.00
C104   C     0.66268   0.79723   0.57639   0.01267  Uiso   1.00
C105   C     0.66166   0.72195   0.62288   0.01267  Uiso   1.00
C106   C     0.70910   0.68744   0.58594   0.01267  Uiso   1.00
C107   C     0.71479   0.92041   0.43758   0.01267  Uiso   1.00
C108   C     0.73959   0.74919   0.73652   0.01267  Uiso   1.00
C109   C     0.64246   0.69085   0.76617   0.01267  Uiso   1.00
C110   C     0.52407   0.61554   0.76073   0.01267  Uiso   1.00
C111   C     0.30257   0.20293   0.09552   0.01267  Uiso   1.00
C112   C     0.27310   0.11462   0.15922   0.01267  Uiso   1.00
C113   C     0.20019   0.04901   0.16894   0.01267  Uiso   1.00
C114   C     0.17027   0.96743   0.23052   0.01267  Uiso   1.00
C115   C     0.21317   0.95130   0.28189   0.01267  Uiso   1.00
C116   C     0.28441   0.01795   0.27162   0.01267  Uiso   1.00
C117   C     0.31563   0.09956   0.21097   0.01267  Uiso   1.00
C118   C     0.08839   0.89626   0.24359   0.01267  Uiso   1.00
C119   C     0.48203   0.03181   0.22932   0.01267  Uiso   1.00
C120   C     0.41112   0.00630   0.31274   0.01267  Uiso   1.00
C121   C     0.28264   0.97792   0.41060   0.01267  Uiso   1.00
C122   C     0.27829   0.45993   0.84316   0.01267  Uiso   1.00
C123   C     0.26148   0.49994   0.76920   0.01267  Uiso   1.00
C124   C     0.21633   0.45205   0.74096   0.01267  Uiso   1.00
C125   C     0.20397   0.48987   0.67057   0.01267  Uiso   1.00
C126   C     0.23907   0.57639   0.62638   0.01267  Uiso   1.00
C127   C     0.28454   0.62288   0.65517   0.01267  Uiso   1.00
C128   C     0.29504   0.58594   0.72662   0.01267  Uiso   1.00
C129   C     0.15237   0.43758   0.64201   0.01267  Uiso   1.00
C130   C     0.47611   0.73652   0.51429   0.01267  Uiso   1.00
C131   C     0.40863   0.76617   0.54298   0.01267  Uiso   1.00
C132   C     0.28480   0.76073   0.62373   0.01267  Uiso   1.00
N1     N     0.21812   0.55723   0.41170   0.01267  Uiso   1.00
N2     N     0.19740   0.61800   0.36807   0.01267  Uiso   1.00
N3     N     0.34614   0.67145   0.33029   0.01267  Uiso   1.00
N4     N     0.06077   0.48088   0.36163   0.01267  Uiso   1.00
N5     N     0.08718   0.42896   0.41006   0.01267  Uiso   1.00
N6     N     0.06758   0.39084   0.32166   0.01267  Uiso   1.00
N7     N     0.62982   0.41170   0.03107   0.01267  Uiso   1.00
N8     N     0.56547   0.36807   0.01393   0.01267  Uiso   1.00
N9     N     0.67643   0.33029   0.99826   0.01267  Uiso   1.00
N10    N     0.42240   0.36163   0.15749   0.01267  Uiso   1.00
N11    N     0.49724   0.41006   0.16098   0.01267  Uiso   1.00
N12    N     0.38924   0.32166   0.28750   0.01267  Uiso   1.00
N13    N     0.66089   0.03107   0.55723   0.01267  Uiso   1.00
N14    N     0.57940   0.01393   0.61800   0.01267  Uiso   1.00
N15    N     0.67469   0.99826   0.67145   0.01267  Uiso   1.00
N16    N     0.57989   0.15749   0.48088   0.01267  Uiso   1.00
N17    N     0.65822   0.16098   0.42896   0.01267  Uiso   1.00
N18    N     0.67674   0.28750   0.39084   0.01267  Uiso   1.00
N19    N     0.78188   0.44277   0.58830   0.01267  Uiso   1.00
N20    N     0.80260   0.38200   0.63193   0.01267  Uiso   1.00
N21    N     0.65386   0.32855   0.66971   0.01267  Uiso   1.00
N22    N     0.93923   0.51912   0.63837   0.01267  Uiso   1.00
N23    N     0.91282   0.57104   0.58994   0.01267  Uiso   1.00
N24    N     0.93242   0.60916   0.67834   0.01267  Uiso   1.00
N25    N     0.37018   0.58830   0.96893   0.01267  Uiso   1.00
N26    N     0.43453   0.63193   0.98607   0.01267  Uiso   1.00
N27    N     0.32357   0.66971   0.00174   0.01267  Uiso   1.00
N28    N     0.57760   0.63837   0.84251   0.01267  Uiso   1.00
N29    N     0.50276   0.58994   0.83902   0.01267  Uiso   1.00
N30    N     0.61076   0.67834   0.71250   0.01267  Uiso   1.00
N31    N     0.33911   0.96893   0.44277   0.01267  Uiso   1.00
N32    N     0.42060   0.98607   0.38200   0.01267  Uiso   1.00
N33    N     0.32531   0.00174   0.32855   0.01267  Uiso   1.00
N34    N     0.42011   0.84251   0.51912   0.01267  Uiso   1.00
N35    N     0.34178   0.83902   0.57104   0.01267  Uiso   1.00
N36    N     0.32326   0.71250   0.60916   0.01267  Uiso   1.00
O1     O     0.00401   0.64765   0.40696   0.01267  Uiso   1.00
O2     O     0.54148   0.90122   0.35750   0.01267  Uiso   1.00
O3     O     0.68592   0.95371   0.25936   0.01267  Uiso   1.00
O4     O     0.63199   0.70114   0.12394   0.01267  Uiso   1.00
O5     O     0.75104   0.79676   0.11414   0.01267  Uiso   1.00
O6     O     0.82107   0.12636   0.37701   0.01267  Uiso   1.00
O7     O     0.86788   0.13269   0.25275   0.01267  Uiso   1.00
O8     O     0.28065   0.41720   0.05843   0.01267  Uiso   1.00
O9     O     0.19178   0.31979   0.04082   0.01267  Uiso   1.00
O10    O     0.41097   0.40696   0.94539   0.01267  Uiso   1.00
O11    O     0.89898   0.35750   0.74128   0.01267  Uiso   1.00
O12    O     0.94528   0.25936   0.78693   0.01267  Uiso   1.00
O13    O     0.75593   0.12394   0.17492   0.01267  Uiso   1.00
O14    O     0.86518   0.11414   0.08910   0.01267  Uiso   1.00
O15    O     0.19808   0.37701   0.49663   0.01267  Uiso   1.00
O16    O     0.12063   0.25275   0.61456   0.01267  Uiso   1.00
O17    O     0.33908   0.05843   0.52437   0.01267  Uiso   1.00
O18    O     0.23260   0.04082   0.63939   0.01267  Uiso   1.00
O19    O     0.35636   0.94539   0.64765   0.01267  Uiso   1.00
O20    O     0.64026   0.74128   0.90122   0.01267  Uiso   1.00
O21    O     0.73221   0.78693   0.95371   0.01267  Uiso   1.00
O22    O     0.93085   0.17492   0.70114   0.01267  Uiso   1.00
O23    O     0.95428   0.08910   0.79676   0.01267  Uiso   1.00
O24    O     0.69471   0.49663   0.12636   0.01267  Uiso   1.00
O25    O     0.73519   0.61456   0.13269   0.01267  Uiso   1.00
O26    O     0.86345   0.52437   0.41720   0.01267  Uiso   1.00
O27    O     0.87199   0.63939   0.31979   0.01267  Uiso   1.00
O28    O     0.99599   0.35235   0.59304   0.01267  Uiso   1.00
O29    O     0.45852   0.09878   0.64250   0.01267  Uiso   1.00
O30    O     0.31408   0.04629   0.74064   0.01267  Uiso   1.00
O31    O     0.36801   0.29886   0.87606   0.01267  Uiso   1.00
O32    O     0.24896   0.20324   0.88586   0.01267  Uiso   1.00
O33    O     0.17893   0.87364   0.62299   0.01267  Uiso   1.00
O34    O     0.13212   0.86731   0.74725   0.01267  Uiso   1.00
O35    O     0.71935   0.58280   0.94157   0.01267  Uiso   1.00
O36    O     0.80822   0.68021   0.95918   0.01267  Uiso   1.00
O37    O     0.58903   0.59304   0.05461   0.01267  Uiso   1.00
O38    O     0.10102   0.64250   0.25872   0.01267  Uiso   1.00
O39    O     0.05472   0.74064   0.21307   0.01267  Uiso   1.00
O40    O     0.24407   0.87606   0.82508   0.01267  Uiso   1.00
O41    O     0.13482   0.88586   0.91090   0.01267  Uiso   1.00
O42    O     0.80192   0.62299   0.50337   0.01267  Uiso   1.00
O43    O     0.87937   0.74725   0.38544   0.01267  Uiso   1.00
O44    O     0.66092   0.94157   0.47563   0.01267  Uiso   1.00
O45    O     0.76740   0.95918   0.36061   0.01267  Uiso   1.00
O46    O     0.64364   0.05461   0.35235   0.01267  Uiso   1.00
O47    O     0.35974   0.25872   0.09878   0.01267  Uiso   1.00
O48    O     0.26779   0.21307   0.04629   0.01267  Uiso   1.00
O49    O     0.06915   0.82508   0.29886   0.01267  Uiso   1.00
O50    O     0.04572   0.91090   0.20324   0.01267  Uiso   1.00
O51    O     0.30529   0.50337   0.87364   0.01267  Uiso   1.00
O52    O     0.26481   0.38544   0.86731   0.01267  Uiso   1.00
O53    O     0.13655   0.47563   0.58280   0.01267  Uiso   1.00
O54    O     0.12801   0.36061   0.68021   0.01267  Uiso   1.00
O55    O     0.00000   0.50000   0.50000   0.01267  Uiso   1.00
O56    O     0.50000   0.50000  -0.00000   0.01267  Uiso   1.00
O57    O     0.50000  -0.00000   0.50000   0.01267  Uiso   1.00
N37    N     0.45150   0.79350   0.73110   0.01267  Uiso   1.00
O58    O     0.52825   0.81035   0.73610   0.01267  Uiso   1.00
O59    O     0.38701   0.81281   0.75578   0.01267  Uiso   1.00
O60    O     0.44960   0.75200   0.69350   0.01267  Uiso   1.00
N38    N     0.18260   0.73110   0.47540   0.01267  Uiso   1.00
O61    O     0.26435   0.73610   0.45355   0.01267  Uiso   1.00
O62    O     0.14279   0.75578   0.43141   0.01267  Uiso   1.00
O63    O     0.14310   0.69350   0.55450   0.01267  Uiso   1.00
N39    N     0.65800   0.47540   0.79350   0.01267  Uiso   1.00
O64    O     0.71790   0.45355   0.81035   0.01267  Uiso   1.00
O65    O     0.57420   0.43141   0.81281   0.01267  Uiso   1.00
O66    O     0.69760   0.55450   0.75200   0.01267  Uiso   1.00
N40    N     0.54850   0.20650   0.26890   0.01267  Uiso   1.00
O67    O     0.47175   0.18965   0.26390   0.01267  Uiso   1.00
O68    O     0.61299   0.18719   0.24422   0.01267  Uiso   1.00
O69    O     0.55040   0.24800   0.30650   0.01267  Uiso   1.00
N41    N     0.81740   0.26890   0.52460   0.01267  Uiso   1.00
O70    O     0.73565   0.26390   0.54645   0.01267  Uiso   1.00
O71    O     0.85721   0.24422   0.56859   0.01267  Uiso   1.00
O72    O     0.85690   0.30650   0.44550   0.01267  Uiso   1.00
N42    N     0.34200   0.52460   0.20650   0.01267  Uiso   1.00
O73    O     0.28210   0.54645   0.18965   0.01267  Uiso   1.00
O74    O     0.42580   0.56859   0.18719   0.01267  Uiso   1.00
O75    O     0.30240   0.44550   0.24800   0.01267  Uiso   1.00
