data_LECGEH_clean
_audit_creation_date              2014-07-02
_audit_creation_method            'Materials Studio'
_symmetry_space_group_name_H-M    'P1'
_symmetry_Int_Tables_number       1
_symmetry_cell_setting            triclinic
loop_
_symmetry_equiv_pos_as_xyz
  x,y,z
_cell_length_a                    8.0231
_cell_length_b                    9.5304
_cell_length_c                    15.4714
_cell_angle_alpha                 96.7090
_cell_angle_beta                  103.6370
_cell_angle_gamma                 99.0630
loop_
_atom_site_label
_atom_site_type_symbol
_atom_site_fract_x
_atom_site_fract_y
_atom_site_fract_z
_atom_site_U_iso_or_equiv
_atom_site_adp_type
_atom_site_occupancy
Co1    Co    0.00000   0.50000   0.00000   0.01267  Uiso   1.00
Co2    Co    0.00000   0.00000   0.50000   0.01267  Uiso   1.00
H1     H     0.44500   0.74390   0.83390   0.01267  Uiso   1.00
H2     H     0.11310   0.46650   0.62120   0.01267  Uiso   1.00
H3     H     0.52430   0.33640   0.77790   0.01267  Uiso   1.00
H4     H     0.15650   0.71900   0.55940   0.01267  Uiso   1.00
H5     H     0.23820   0.05700   0.88890   0.01267  Uiso   1.00
H6     H     0.26430   0.04050   0.04400   0.01267  Uiso   1.00
H7     H     0.17190   0.82440   0.08480   0.01267  Uiso   1.00
H8     H     0.03370   0.62920   0.83270   0.01267  Uiso   1.00
H9     H     0.55500   0.25610   0.16610   0.01267  Uiso   1.00
H10    H     0.88690   0.53350   0.37880   0.01267  Uiso   1.00
H11    H     0.47570   0.66360   0.22210   0.01267  Uiso   1.00
H12    H     0.84350   0.28100   0.44060   0.01267  Uiso   1.00
H13    H     0.76180   0.94300   0.11110   0.01267  Uiso   1.00
H14    H     0.73570   0.95950   0.95600   0.01267  Uiso   1.00
H15    H     0.82810   0.17560   0.91520   0.01267  Uiso   1.00
H16    H     0.96630   0.37080   0.16730   0.01267  Uiso   1.00
C1     C     0.65950   0.57220   0.90310   0.01267  Uiso   1.00
C2     C     0.50480   0.54300   0.81980   0.01267  Uiso   1.00
C3     C     0.41150   0.65100   0.79810   0.01267  Uiso   1.00
C4     C     0.26770   0.62080   0.72290   0.01267  Uiso   1.00
C5     C     0.21450   0.48590   0.67040   0.01267  Uiso   1.00
C6     C     0.31110   0.37850   0.69040   0.01267  Uiso   1.00
C7     C     0.45690   0.40840   0.76470   0.01267  Uiso   1.00
C8     C     0.26070   0.23370   0.63150   0.01267  Uiso   1.00
C9     C     0.13810   0.77150   0.61130   0.01267  Uiso   1.00
C10    C     0.12820   0.83930   0.74910   0.01267  Uiso   1.00
C11    C     0.13830   0.84090   0.84540   0.01267  Uiso   1.00
C12    C     0.20390   0.96780   0.90750   0.01267  Uiso   1.00
C13    C     0.21700   0.95770   0.99910   0.01267  Uiso   1.00
C14    C     0.16140   0.82850   0.02270   0.01267  Uiso   1.00
C15    C     0.08180   0.71410   0.87590   0.01267  Uiso   1.00
C16    C     0.34050   0.42780   0.09690   0.01267  Uiso   1.00
C17    C     0.49520   0.45700   0.18020   0.01267  Uiso   1.00
C18    C     0.58850   0.34900   0.20190   0.01267  Uiso   1.00
C19    C     0.73230   0.37920   0.27710   0.01267  Uiso   1.00
C20    C     0.78550   0.51410   0.32960   0.01267  Uiso   1.00
C21    C     0.68890   0.62150   0.30960   0.01267  Uiso   1.00
C22    C     0.54310   0.59160   0.23530   0.01267  Uiso   1.00
C23    C     0.73930   0.76630   0.36850   0.01267  Uiso   1.00
C24    C     0.86190   0.22850   0.38870   0.01267  Uiso   1.00
C25    C     0.87180   0.16070   0.25090   0.01267  Uiso   1.00
C26    C     0.86170   0.15910   0.15460   0.01267  Uiso   1.00
C27    C     0.79610   0.03220   0.09250   0.01267  Uiso   1.00
C28    C     0.78300   0.04230   0.00090   0.01267  Uiso   1.00
C29    C     0.83860   0.17150   0.97730   0.01267  Uiso   1.00
C30    C     0.91820   0.28590   0.12410   0.01267  Uiso   1.00
N1     N     0.17730   0.73540   0.69608   0.01267  Uiso   1.00
N2     N     0.07210   0.88770   0.61204   0.01267  Uiso   1.00
N3     N     0.06410   0.93250   0.69959   0.01267  Uiso   1.00
N4     N     0.09190   0.70560   0.96290   0.01267  Uiso   1.00
N5     N     0.82270   0.26460   0.30392   0.01267  Uiso   1.00
N6     N     0.92790   0.11230   0.38796   0.01267  Uiso   1.00
N7     N     0.93590   0.06750   0.30041   0.01267  Uiso   1.00
N8     N     0.90810   0.29440   0.03710   0.01267  Uiso   1.00
O1     O     0.67360   0.67960   0.96138   0.01267  Uiso   1.00
O2     O     0.76150   0.48160   0.90682   0.01267  Uiso   1.00
O3     O     0.37780   0.15790   0.63272   0.01267  Uiso   1.00
O4     O     0.10470   0.19760   0.58259   0.01267  Uiso   1.00
O5     O     0.32640   0.32040   0.03862   0.01267  Uiso   1.00
O6     O     0.23850   0.51840   0.09318   0.01267  Uiso   1.00
O7     O     0.62220   0.84210   0.36728   0.01267  Uiso   1.00
O8     O     0.89530   0.80240   0.41741   0.01267  Uiso   1.00
