data_LEDLEN_clean
_audit_creation_date              2014-07-02
_audit_creation_method            'Materials Studio'
_symmetry_space_group_name_H-M    'P1'
_symmetry_Int_Tables_number       1
_symmetry_cell_setting            triclinic
loop_
_symmetry_equiv_pos_as_xyz
  x,y,z
_cell_length_a                    15.8680
_cell_length_b                    15.8680
_cell_length_c                    21.2800
_cell_angle_alpha                 85.2714
_cell_angle_beta                  85.2714
_cell_angle_gamma                 60.6054
loop_
_atom_site_label
_atom_site_type_symbol
_atom_site_fract_x
_atom_site_fract_y
_atom_site_fract_z
_atom_site_U_iso_or_equiv
_atom_site_adp_type
_atom_site_occupancy
Cu1    Cu    0.49006   0.49676   0.31307   0.01267  Uiso   1.00
Cu2    Cu    0.94168   0.46144   0.00587   0.01267  Uiso   1.00
Cu3    Cu    0.50324   0.50994   0.18693   0.01267  Uiso   1.00
Cu4    Cu    0.53856   0.05832   0.49413   0.01267  Uiso   1.00
Cu5    Cu    0.50994   0.50324   0.68693   0.01267  Uiso   1.00
Cu6    Cu    0.05832   0.53856   0.99413   0.01267  Uiso   1.00
Cu7    Cu    0.49676   0.49006   0.81307   0.01267  Uiso   1.00
Cu8    Cu    0.46144   0.94168   0.50587   0.01267  Uiso   1.00
H1     H     0.40090   0.81350   0.15950   0.01267  Uiso   1.00
H2     H     0.35890   0.97450   0.15450   0.01267  Uiso   1.00
H3     H     0.41420   0.95420   0.33770   0.01267  Uiso   1.00
H4     H     0.45260   0.79300   0.34420   0.01267  Uiso   1.00
H5     H     0.09330   0.23390   0.14630   0.01267  Uiso   1.00
H6     H     0.20210   0.10170   0.20760   0.01267  Uiso   1.00
H7     H     0.38150   0.21630   0.19690   0.01267  Uiso   1.00
H8     H     0.27160   0.34660   0.13270   0.01267  Uiso   1.00
H9     H     0.71650   0.66450   0.13490   0.01267  Uiso   1.00
H10    H     0.60170   0.79550   0.19030   0.01267  Uiso   1.00
H11    H     0.77370   0.91810   0.16580   0.01267  Uiso   1.00
H12    H     0.88810   0.78510   0.10930   0.01267  Uiso   1.00
H13    H     0.59620   0.21260   0.13520   0.01267  Uiso   1.00
H14    H     0.61820   0.06000   0.12690   0.01267  Uiso   1.00
H15    H     0.56290   0.04110   0.31400   0.01267  Uiso   1.00
H16    H     0.53600   0.19900   0.32190   0.01267  Uiso   1.00
H17    H     0.18650   0.59910   0.34050   0.01267  Uiso   1.00
H18    H     0.02550   0.64110   0.34550   0.01267  Uiso   1.00
H19    H     0.04580   0.58580   0.16230   0.01267  Uiso   1.00
H20    H     0.20700   0.54740   0.15580   0.01267  Uiso   1.00
H21    H     0.76610   0.90670   0.35370   0.01267  Uiso   1.00
H22    H     0.89830   0.79790   0.29240   0.01267  Uiso   1.00
H23    H     0.78370   0.61850   0.30310   0.01267  Uiso   1.00
H24    H     0.65340   0.72840   0.36730   0.01267  Uiso   1.00
H25    H     0.33550   0.28350   0.36510   0.01267  Uiso   1.00
H26    H     0.20450   0.39830   0.30970   0.01267  Uiso   1.00
H27    H     0.08190   0.22630   0.33420   0.01267  Uiso   1.00
H28    H     0.21490   0.11190   0.39070   0.01267  Uiso   1.00
H29    H     0.78740   0.40380   0.36480   0.01267  Uiso   1.00
H30    H     0.94000   0.38180   0.37310   0.01267  Uiso   1.00
H31    H     0.95890   0.43710   0.18600   0.01267  Uiso   1.00
H32    H     0.80100   0.46400   0.17810   0.01267  Uiso   1.00
H33    H     0.59910   0.18650   0.84050   0.01267  Uiso   1.00
H34    H     0.64110   0.02550   0.84550   0.01267  Uiso   1.00
H35    H     0.58580   0.04580   0.66230   0.01267  Uiso   1.00
H36    H     0.54740   0.20700   0.65580   0.01267  Uiso   1.00
H37    H     0.90670   0.76610   0.85370   0.01267  Uiso   1.00
H38    H     0.79790   0.89830   0.79240   0.01267  Uiso   1.00
H39    H     0.61850   0.78370   0.80310   0.01267  Uiso   1.00
H40    H     0.72840   0.65340   0.86730   0.01267  Uiso   1.00
H41    H     0.28350   0.33550   0.86510   0.01267  Uiso   1.00
H42    H     0.39830   0.20450   0.80970   0.01267  Uiso   1.00
H43    H     0.22630   0.08190   0.83420   0.01267  Uiso   1.00
H44    H     0.11190   0.21490   0.89070   0.01267  Uiso   1.00
H45    H     0.40380   0.78740   0.86480   0.01267  Uiso   1.00
H46    H     0.38180   0.94000   0.87310   0.01267  Uiso   1.00
H47    H     0.43710   0.95890   0.68600   0.01267  Uiso   1.00
H48    H     0.46400   0.80100   0.67810   0.01267  Uiso   1.00
H49    H     0.81350   0.40090   0.65950   0.01267  Uiso   1.00
H50    H     0.97450   0.35890   0.65450   0.01267  Uiso   1.00
H51    H     0.95420   0.41420   0.83770   0.01267  Uiso   1.00
H52    H     0.79300   0.45260   0.84420   0.01267  Uiso   1.00
H53    H     0.23390   0.09330   0.64630   0.01267  Uiso   1.00
H54    H     0.10170   0.20210   0.70760   0.01267  Uiso   1.00
H55    H     0.21630   0.38150   0.69690   0.01267  Uiso   1.00
H56    H     0.34660   0.27160   0.63270   0.01267  Uiso   1.00
H57    H     0.66450   0.71650   0.63490   0.01267  Uiso   1.00
H58    H     0.79550   0.60170   0.69030   0.01267  Uiso   1.00
H59    H     0.91810   0.77370   0.66580   0.01267  Uiso   1.00
H60    H     0.78510   0.88810   0.60930   0.01267  Uiso   1.00
H61    H     0.21260   0.59620   0.63520   0.01267  Uiso   1.00
H62    H     0.06000   0.61820   0.62690   0.01267  Uiso   1.00
H63    H     0.04110   0.56290   0.81400   0.01267  Uiso   1.00
H64    H     0.19900   0.53600   0.82190   0.01267  Uiso   1.00
C1     C     0.45030   0.68190   0.25490   0.01267  Uiso   1.00
C2     C     0.42710   0.78470   0.25200   0.01267  Uiso   1.00
C3     C     0.40180   0.84160   0.19590   0.01267  Uiso   1.00
C4     C     0.37810   0.93770   0.19220   0.01267  Uiso   1.00
C5     C     0.38340   0.97940   0.24700   0.01267  Uiso   1.00
C6     C     0.41070   0.92590   0.30220   0.01267  Uiso   1.00
C7     C     0.43340   0.82900   0.30630   0.01267  Uiso   1.00
C8     C     0.10670   0.38110   0.08550   0.01267  Uiso   1.00
C9     C     0.17330   0.30350   0.12960   0.01267  Uiso   1.00
C10    C     0.15190   0.22950   0.15510   0.01267  Uiso   1.00
C11    C     0.21600   0.15060   0.19280   0.01267  Uiso   1.00
C12    C     0.30050   0.14790   0.20740   0.01267  Uiso   1.00
C13    C     0.32430   0.21950   0.18610   0.01267  Uiso   1.00
C14    C     0.25750   0.29770   0.14700   0.01267  Uiso   1.00
C15    C     0.88670   0.62890   0.07640   0.01267  Uiso   1.00
C16    C     0.81440   0.71300   0.11630   0.01267  Uiso   1.00
C17    C     0.72750   0.71570   0.14100   0.01267  Uiso   1.00
C18    C     0.65860   0.79400   0.17410   0.01267  Uiso   1.00
C19    C     0.67560   0.87060   0.18300   0.01267  Uiso   1.00
C20    C     0.76190   0.86770   0.15930   0.01267  Uiso   1.00
C21    C     0.83080   0.78720   0.12540   0.01267  Uiso   1.00
C22    C     0.54130   0.32710   0.23300   0.01267  Uiso   1.00
C23    C     0.56050   0.22410   0.22880   0.01267  Uiso   1.00
C24    C     0.58800   0.17920   0.17100   0.01267  Uiso   1.00
C25    C     0.60330   0.08750   0.16600   0.01267  Uiso   1.00
C26    C     0.59600   0.03540   0.22060   0.01267  Uiso   1.00
C27    C     0.56950   0.07590   0.27840   0.01267  Uiso   1.00
C28    C     0.55260   0.17120   0.28280   0.01267  Uiso   1.00
C29    C     0.31810   0.54970   0.24510   0.01267  Uiso   1.00
C30    C     0.21530   0.57290   0.24800   0.01267  Uiso   1.00
C31    C     0.15840   0.59820   0.30410   0.01267  Uiso   1.00
C32    C     0.06230   0.62190   0.30780   0.01267  Uiso   1.00
C33    C     0.02060   0.61660   0.25300   0.01267  Uiso   1.00
C34    C     0.07410   0.58930   0.19780   0.01267  Uiso   1.00
C35    C     0.17100   0.56660   0.19370   0.01267  Uiso   1.00
C36    C     0.61890   0.89330   0.41450   0.01267  Uiso   1.00
C37    C     0.69650   0.82670   0.37040   0.01267  Uiso   1.00
C38    C     0.77050   0.84810   0.34490   0.01267  Uiso   1.00
C39    C     0.84940   0.78400   0.30720   0.01267  Uiso   1.00
C40    C     0.85210   0.69950   0.29260   0.01267  Uiso   1.00
C41    C     0.78050   0.67570   0.31390   0.01267  Uiso   1.00
C42    C     0.70230   0.74250   0.35300   0.01267  Uiso   1.00
C43    C     0.37110   0.11330   0.42360   0.01267  Uiso   1.00
C44    C     0.28700   0.18560   0.38370   0.01267  Uiso   1.00
C45    C     0.28430   0.27250   0.35900   0.01267  Uiso   1.00
C46    C     0.20600   0.34140   0.32590   0.01267  Uiso   1.00
C47    C     0.12940   0.32440   0.31700   0.01267  Uiso   1.00
C48    C     0.13230   0.23810   0.34070   0.01267  Uiso   1.00
C49    C     0.21280   0.16920   0.37460   0.01267  Uiso   1.00
C50    C     0.67290   0.45870   0.26700   0.01267  Uiso   1.00
C51    C     0.77590   0.43950   0.27120   0.01267  Uiso   1.00
C52    C     0.82080   0.41200   0.32900   0.01267  Uiso   1.00
C53    C     0.91250   0.39670   0.33400   0.01267  Uiso   1.00
C54    C     0.96460   0.40400   0.27940   0.01267  Uiso   1.00
C55    C     0.92410   0.43050   0.22160   0.01267  Uiso   1.00
C56    C     0.82880   0.44740   0.21720   0.01267  Uiso   1.00
C57    C     0.54970   0.31810   0.74510   0.01267  Uiso   1.00
C58    C     0.57290   0.21530   0.74800   0.01267  Uiso   1.00
C59    C     0.59820   0.15840   0.80410   0.01267  Uiso   1.00
C60    C     0.62190   0.06230   0.80780   0.01267  Uiso   1.00
C61    C     0.61660   0.02060   0.75300   0.01267  Uiso   1.00
C62    C     0.58930   0.07410   0.69780   0.01267  Uiso   1.00
C63    C     0.56660   0.17100   0.69370   0.01267  Uiso   1.00
C64    C     0.89330   0.61890   0.91450   0.01267  Uiso   1.00
C65    C     0.82670   0.69650   0.87040   0.01267  Uiso   1.00
C66    C     0.84810   0.77050   0.84490   0.01267  Uiso   1.00
C67    C     0.78400   0.84940   0.80720   0.01267  Uiso   1.00
C68    C     0.69950   0.85210   0.79260   0.01267  Uiso   1.00
C69    C     0.67570   0.78050   0.81390   0.01267  Uiso   1.00
C70    C     0.74250   0.70230   0.85300   0.01267  Uiso   1.00
C71    C     0.11330   0.37110   0.92360   0.01267  Uiso   1.00
C72    C     0.18560   0.28700   0.88370   0.01267  Uiso   1.00
C73    C     0.27250   0.28430   0.85900   0.01267  Uiso   1.00
C74    C     0.34140   0.20600   0.82590   0.01267  Uiso   1.00
C75    C     0.32440   0.12940   0.81700   0.01267  Uiso   1.00
C76    C     0.23810   0.13230   0.84070   0.01267  Uiso   1.00
C77    C     0.16920   0.21280   0.87460   0.01267  Uiso   1.00
C78    C     0.45870   0.67290   0.76700   0.01267  Uiso   1.00
C79    C     0.43950   0.77590   0.77120   0.01267  Uiso   1.00
C80    C     0.41200   0.82080   0.82900   0.01267  Uiso   1.00
C81    C     0.39670   0.91250   0.83400   0.01267  Uiso   1.00
C82    C     0.40400   0.96460   0.77940   0.01267  Uiso   1.00
C83    C     0.43050   0.92410   0.72160   0.01267  Uiso   1.00
C84    C     0.44740   0.82880   0.71720   0.01267  Uiso   1.00
C85    C     0.68190   0.45030   0.75490   0.01267  Uiso   1.00
C86    C     0.78470   0.42710   0.75200   0.01267  Uiso   1.00
C87    C     0.84160   0.40180   0.69590   0.01267  Uiso   1.00
C88    C     0.93770   0.37810   0.69220   0.01267  Uiso   1.00
C89    C     0.97940   0.38340   0.74700   0.01267  Uiso   1.00
C90    C     0.92590   0.41070   0.80220   0.01267  Uiso   1.00
C91    C     0.82900   0.43340   0.80630   0.01267  Uiso   1.00
C92    C     0.38110   0.10670   0.58550   0.01267  Uiso   1.00
C93    C     0.30350   0.17330   0.62960   0.01267  Uiso   1.00
C94    C     0.22950   0.15190   0.65510   0.01267  Uiso   1.00
C95    C     0.15060   0.21600   0.69280   0.01267  Uiso   1.00
C96    C     0.14790   0.30050   0.70740   0.01267  Uiso   1.00
C97    C     0.21950   0.32430   0.68610   0.01267  Uiso   1.00
C98    C     0.29770   0.25750   0.64700   0.01267  Uiso   1.00
C99    C     0.62890   0.88670   0.57640   0.01267  Uiso   1.00
C100   C     0.71300   0.81440   0.61630   0.01267  Uiso   1.00
C101   C     0.71570   0.72750   0.64100   0.01267  Uiso   1.00
C102   C     0.79400   0.65860   0.67410   0.01267  Uiso   1.00
C103   C     0.87060   0.67560   0.68300   0.01267  Uiso   1.00
C104   C     0.86770   0.76190   0.65930   0.01267  Uiso   1.00
C105   C     0.78720   0.83080   0.62540   0.01267  Uiso   1.00
C106   C     0.32710   0.54130   0.73300   0.01267  Uiso   1.00
C107   C     0.22410   0.56050   0.72880   0.01267  Uiso   1.00
C108   C     0.17920   0.58800   0.67100   0.01267  Uiso   1.00
C109   C     0.08750   0.60330   0.66600   0.01267  Uiso   1.00
C110   C     0.03540   0.59600   0.72060   0.01267  Uiso   1.00
C111   C     0.07590   0.56950   0.77840   0.01267  Uiso   1.00
C112   C     0.17120   0.55260   0.78280   0.01267  Uiso   1.00
O1     O     0.46520   0.63400   0.30640   0.01267  Uiso   1.00
O2     O     0.45560   0.64740   0.20030   0.01267  Uiso   1.00
O3     O     0.03030   0.37910   0.07170   0.01267  Uiso   1.00
O4     O     0.13050   0.44410   0.06260   0.01267  Uiso   1.00
O5     O     0.36800   0.07120   0.24780   0.01267  Uiso   1.00
O6     O     0.86390   0.56350   0.06710   0.01267  Uiso   1.00
O7     O     0.96330   0.62910   0.05650   0.01267  Uiso   1.00
O8     O     0.51740   0.36220   0.28960   0.01267  Uiso   1.00
O9     O     0.54950   0.37190   0.18600   0.01267  Uiso   1.00
O10    O     0.60510   0.94430   0.22010   0.01267  Uiso   1.00
O11    O     0.36600   0.53480   0.19360   0.01267  Uiso   1.00
O12    O     0.35260   0.54440   0.29970   0.01267  Uiso   1.00
O13    O     0.62090   0.96970   0.42830   0.01267  Uiso   1.00
O14    O     0.55590   0.86950   0.43740   0.01267  Uiso   1.00
O15    O     0.92880   0.63200   0.25220   0.01267  Uiso   1.00
O16    O     0.43650   0.13610   0.43290   0.01267  Uiso   1.00
O17    O     0.37090   0.03670   0.44350   0.01267  Uiso   1.00
O18    O     0.63780   0.48260   0.21040   0.01267  Uiso   1.00
O19    O     0.62810   0.45050   0.31400   0.01267  Uiso   1.00
O20    O     0.05570   0.39490   0.27990   0.01267  Uiso   1.00
O21    O     0.53480   0.36600   0.69360   0.01267  Uiso   1.00
O22    O     0.54440   0.35260   0.79970   0.01267  Uiso   1.00
O23    O     0.96970   0.62090   0.92830   0.01267  Uiso   1.00
O24    O     0.86950   0.55590   0.93740   0.01267  Uiso   1.00
O25    O     0.63200   0.92880   0.75220   0.01267  Uiso   1.00
O26    O     0.13610   0.43650   0.93290   0.01267  Uiso   1.00
O27    O     0.03670   0.37090   0.94350   0.01267  Uiso   1.00
O28    O     0.48260   0.63780   0.71040   0.01267  Uiso   1.00
O29    O     0.45050   0.62810   0.81400   0.01267  Uiso   1.00
O30    O     0.39490   0.05570   0.77990   0.01267  Uiso   1.00
O31    O     0.63400   0.46520   0.80640   0.01267  Uiso   1.00
O32    O     0.64740   0.45560   0.70030   0.01267  Uiso   1.00
O33    O     0.37910   0.03030   0.57170   0.01267  Uiso   1.00
O34    O     0.44410   0.13050   0.56260   0.01267  Uiso   1.00
O35    O     0.07120   0.36800   0.74780   0.01267  Uiso   1.00
O36    O     0.56350   0.86390   0.56710   0.01267  Uiso   1.00
O37    O     0.62910   0.96330   0.55650   0.01267  Uiso   1.00
O38    O     0.36220   0.51740   0.78960   0.01267  Uiso   1.00
O39    O     0.37190   0.54950   0.68600   0.01267  Uiso   1.00
O40    O     0.94430   0.60510   0.72010   0.01267  Uiso   1.00
