data_LEDNIT_charged
_audit_creation_date              2014-07-02
_audit_creation_method            'Materials Studio'
_symmetry_space_group_name_H-M    'P1'
_symmetry_Int_Tables_number       1
_symmetry_cell_setting            triclinic
loop_
_symmetry_equiv_pos_as_xyz
  x,y,z
_cell_length_a                    9.7104
_cell_length_b                    14.0035
_cell_length_c                    14.0035
_cell_angle_alpha                 95.6381
_cell_angle_beta                  103.4840
_cell_angle_gamma                 103.4840
loop_
_atom_site_label
_atom_site_type_symbol
_atom_site_fract_x
_atom_site_fract_y
_atom_site_fract_z
_atom_site_U_iso_or_equiv
_atom_site_adp_type
_atom_site_occupancy
Tm1    Tm    0.65837   0.79801   0.62477   0.01267  Uiso   1.00
Tm2    Tm    0.84163   0.37523   0.20199   0.01267  Uiso   1.00
Tm3    Tm    0.34163   0.20199   0.37523   0.01267  Uiso   1.00
Tm4    Tm    0.15837   0.62477   0.79801   0.01267  Uiso   1.00
Tm5    Tm    0.75000   0.21562   0.78438   0.01267  Uiso   1.00
Tm6    Tm    0.25000   0.78438   0.21562   0.01267  Uiso   1.00
H1     H     0.31640   0.97050   0.59450   0.01267  Uiso   1.00
H2     H     0.33740   0.11760   0.68600   0.01267  Uiso   1.00
H3     H     0.13700   0.13930   0.74370   0.01267  Uiso   1.00
H4     H     0.18360   0.40550   0.02950   0.01267  Uiso   1.00
H5     H     0.16260   0.31400   0.88240   0.01267  Uiso   1.00
H6     H     0.36300   0.25630   0.86070   0.01267  Uiso   1.00
H7     H     0.68360   0.02950   0.40550   0.01267  Uiso   1.00
H8     H     0.66260   0.88240   0.31400   0.01267  Uiso   1.00
H9     H     0.86300   0.86070   0.25630   0.01267  Uiso   1.00
H10    H     0.81640   0.59450   0.97050   0.01267  Uiso   1.00
H11    H     0.83740   0.68600   0.11760   0.01267  Uiso   1.00
H12    H     0.63700   0.74370   0.13930   0.01267  Uiso   1.00
C1     C     0.98330   0.92060   0.61120   0.01267  Uiso   1.00
C2     C     0.23510   0.98210   0.61310   0.01267  Uiso   1.00
C3     C     0.24960   0.06770   0.66910   0.01267  Uiso   1.00
C4     C     0.12810   0.08100   0.70200   0.01267  Uiso   1.00
C5     C     0.99740   0.00960   0.67380   0.01267  Uiso   1.00
C6     C     0.87100   0.02660   0.71080   0.01267  Uiso   1.00
C7     C     0.51130   0.24610   0.60170   0.01267  Uiso   1.00
C8     C     0.57870   0.16970   0.55550   0.01267  Uiso   1.00
C9     C     0.41140   0.76580   0.74040   0.01267  Uiso   1.00
C10    C     0.36110   0.67260   0.65700   0.01267  Uiso   1.00
C11    C     0.51670   0.38880   0.07940   0.01267  Uiso   1.00
C12    C     0.26490   0.38690   0.01790   0.01267  Uiso   1.00
C13    C     0.25040   0.33090   0.93230   0.01267  Uiso   1.00
C14    C     0.37190   0.29800   0.91900   0.01267  Uiso   1.00
C15    C     0.50260   0.32620   0.99040   0.01267  Uiso   1.00
C16    C     0.62900   0.28920   0.97340   0.01267  Uiso   1.00
C17    C     0.98870   0.39830   0.75390   0.01267  Uiso   1.00
C18    C     0.92130   0.44450   0.83030   0.01267  Uiso   1.00
C19    C     0.08860   0.25960   0.23420   0.01267  Uiso   1.00
C20    C     0.13890   0.34300   0.32740   0.01267  Uiso   1.00
C21    C     0.01670   0.07940   0.38880   0.01267  Uiso   1.00
C22    C     0.76490   0.01790   0.38690   0.01267  Uiso   1.00
C23    C     0.75040   0.93230   0.33090   0.01267  Uiso   1.00
C24    C     0.87190   0.91900   0.29800   0.01267  Uiso   1.00
C25    C     0.00260   0.99040   0.32620   0.01267  Uiso   1.00
C26    C     0.12900   0.97340   0.28920   0.01267  Uiso   1.00
C27    C     0.48870   0.75390   0.39830   0.01267  Uiso   1.00
C28    C     0.42130   0.83030   0.44450   0.01267  Uiso   1.00
C29    C     0.58860   0.23420   0.25960   0.01267  Uiso   1.00
C30    C     0.63890   0.32740   0.34300   0.01267  Uiso   1.00
C31    C     0.48330   0.61120   0.92060   0.01267  Uiso   1.00
C32    C     0.73510   0.61310   0.98210   0.01267  Uiso   1.00
C33    C     0.74960   0.66910   0.06770   0.01267  Uiso   1.00
C34    C     0.62810   0.70200   0.08100   0.01267  Uiso   1.00
C35    C     0.49740   0.67380   0.00960   0.01267  Uiso   1.00
C36    C     0.37100   0.71080   0.02660   0.01267  Uiso   1.00
C37    C     0.01130   0.60170   0.24610   0.01267  Uiso   1.00
C38    C     0.07870   0.55550   0.16970   0.01267  Uiso   1.00
C39    C     0.91140   0.74040   0.76580   0.01267  Uiso   1.00
C40    C     0.86110   0.65700   0.67260   0.01267  Uiso   1.00
N1     N     0.10720   0.91140   0.58260   0.01267  Uiso   1.00
N2     N     0.39280   0.41740   0.08860   0.01267  Uiso   1.00
N3     N     0.89280   0.08860   0.41740   0.01267  Uiso   1.00
N4     N     0.60720   0.58260   0.91140   0.01267  Uiso   1.00
O1     O     0.74920   0.96130   0.68790   0.01267  Uiso   1.00
O2     O     0.58830   0.06110   0.77550   0.01267  Uiso   1.00
O3     O     0.89260   0.10990   0.76430   0.01267  Uiso   1.00
O4     O     0.87110   0.84740   0.57840   0.01267  Uiso   1.00
O5     O     0.52190   0.13580   0.46420   0.01267  Uiso   1.00
O6     O     0.40790   0.26940   0.54480   0.01267  Uiso   1.00
O7     O     0.56450   0.27740   0.69300   0.01267  Uiso   1.00
O8     O     0.68400   0.15000   0.61140   0.01267  Uiso   1.00
O9     O     0.44290   0.66560   0.60240   0.01267  Uiso   1.00
O10    O     0.53390   0.82470   0.74470   0.01267  Uiso   1.00
O11    O     0.24100   0.61410   0.65230   0.01267  Uiso   1.00
O12    O     0.33060   0.77380   0.79500   0.01267  Uiso   1.00
O13    O     0.75080   0.31210   0.03870   0.01267  Uiso   1.00
O14    O     0.91170   0.22450   0.93890   0.01267  Uiso   1.00
O15    O     0.60740   0.23570   0.89010   0.01267  Uiso   1.00
O16    O     0.62890   0.42160   0.15260   0.01267  Uiso   1.00
O17    O     0.97810   0.53580   0.86420   0.01267  Uiso   1.00
O18    O     0.09210   0.45520   0.73060   0.01267  Uiso   1.00
O19    O     0.93550   0.30700   0.72260   0.01267  Uiso   1.00
O20    O     0.81600   0.38860   0.85000   0.01267  Uiso   1.00
O21    O     0.05710   0.39760   0.33440   0.01267  Uiso   1.00
O22    O     0.96610   0.25530   0.17530   0.01267  Uiso   1.00
O23    O     0.25900   0.34770   0.38590   0.01267  Uiso   1.00
O24    O     0.16940   0.20500   0.22620   0.01267  Uiso   1.00
O25    O     0.25080   0.03870   0.31210   0.01267  Uiso   1.00
O26    O     0.41170   0.93890   0.22450   0.01267  Uiso   1.00
O27    O     0.10740   0.89010   0.23570   0.01267  Uiso   1.00
O28    O     0.12890   0.15260   0.42160   0.01267  Uiso   1.00
O29    O     0.47810   0.86420   0.53580   0.01267  Uiso   1.00
O30    O     0.59210   0.73060   0.45520   0.01267  Uiso   1.00
O31    O     0.43550   0.72260   0.30700   0.01267  Uiso   1.00
O32    O     0.31600   0.85000   0.38860   0.01267  Uiso   1.00
O33    O     0.55710   0.33440   0.39760   0.01267  Uiso   1.00
O34    O     0.46610   0.17530   0.25530   0.01267  Uiso   1.00
O35    O     0.75900   0.38590   0.34770   0.01267  Uiso   1.00
O36    O     0.66940   0.22620   0.20500   0.01267  Uiso   1.00
O37    O     0.24920   0.68790   0.96130   0.01267  Uiso   1.00
O38    O     0.08830   0.77550   0.06110   0.01267  Uiso   1.00
O39    O     0.39260   0.76430   0.10990   0.01267  Uiso   1.00
O40    O     0.37110   0.57840   0.84740   0.01267  Uiso   1.00
O41    O     0.02190   0.46420   0.13580   0.01267  Uiso   1.00
O42    O     0.90790   0.54480   0.26940   0.01267  Uiso   1.00
O43    O     0.06450   0.69300   0.27740   0.01267  Uiso   1.00
O44    O     0.18400   0.61140   0.15000   0.01267  Uiso   1.00
O45    O     0.94290   0.60240   0.66560   0.01267  Uiso   1.00
O46    O     0.03390   0.74470   0.82470   0.01267  Uiso   1.00
O47    O     0.74100   0.65230   0.61410   0.01267  Uiso   1.00
O48    O     0.83060   0.79500   0.77380   0.01267  Uiso   1.00
