data_LEDPIU_clean
_audit_creation_date              2014-07-02
_audit_creation_method            'Materials Studio'
_symmetry_space_group_name_H-M    'P1'
_symmetry_Int_Tables_number       1
_symmetry_cell_setting            triclinic
loop_
_symmetry_equiv_pos_as_xyz
  x,y,z
_cell_length_a                    10.1850
_cell_length_b                    13.8967
_cell_length_c                    22.7900
_cell_angle_alpha                 97.1345
_cell_angle_beta                  90.0000
_cell_angle_gamma                 111.4970
loop_
_atom_site_label
_atom_site_type_symbol
_atom_site_fract_x
_atom_site_fract_y
_atom_site_fract_z
_atom_site_U_iso_or_equiv
_atom_site_adp_type
_atom_site_occupancy
Cu1    Cu    0.88846   0.59180   0.45879   0.01267  Uiso   1.00
Cu2    Cu    0.29666   0.40820   0.04121   0.01267  Uiso   1.00
Cu3    Cu    0.11154   0.40820   0.54121   0.01267  Uiso   1.00
Cu4    Cu    0.70334   0.59180   0.95879   0.01267  Uiso   1.00
Cu5    Cu    0.63042   0.00000   0.25000   0.01267  Uiso   1.00
Cu6    Cu    0.36958   0.00000   0.75000   0.01267  Uiso   1.00
H1     H     0.24350   0.72700   0.37220   0.01267  Uiso   1.00
H2     H     0.44500   0.60360   0.47310   0.01267  Uiso   1.00
H3     H     0.65450   0.78240   0.35190   0.01267  Uiso   1.00
H4     H     0.58470   0.19560   0.32440   0.01267  Uiso   1.00
H5     H     0.71860   0.99140   0.37980   0.01267  Uiso   1.00
H6     H     0.61280   0.23440   0.43200   0.01267  Uiso   1.00
H7     H     0.73910   0.04040   0.48900   0.01267  Uiso   1.00
H8     H     0.75490   0.15580   0.51140   0.01267  Uiso   1.00
H9     H     0.56870   0.04520   0.55610   0.01267  Uiso   1.00
H10    H     0.51230   0.10480   0.51490   0.01267  Uiso   1.00
H11    H     0.98340   0.60480   0.32970   0.01267  Uiso   1.00
H12    H     0.64080   0.39780   0.37950   0.01267  Uiso   1.00
H13    H     0.62990   0.37500   0.27130   0.01267  Uiso   1.00
H14    H     0.95500   0.56280   0.21840   0.01267  Uiso   1.00
H15    H     0.85040   0.44940   0.19520   0.01267  Uiso   1.00
H16    H     0.66530   0.50840   0.18910   0.01267  Uiso   1.00
H17    H     0.78770   0.56880   0.15050   0.01267  Uiso   1.00
H18    H     0.72890   0.65020   0.26200   0.01267  Uiso   1.00
H19    H     0.86010   0.71040   0.22740   0.01267  Uiso   1.00
H20    H     0.68670   0.77620   0.21420   0.01267  Uiso   1.00
H21    H     0.57670   0.66440   0.19140   0.01267  Uiso   1.00
H22    H     0.57640   0.59560   0.08310   0.01267  Uiso   1.00
H23    H     0.89780   0.85520   0.13860   0.01267  Uiso   1.00
H24    H     0.91500   0.80520   0.03200   0.01267  Uiso   1.00
H25    H     0.51650   0.27300   0.12780   0.01267  Uiso   1.00
H26    H     0.84140   0.39640   0.02690   0.01267  Uiso   1.00
H27    H     0.87210   0.21760   0.14810   0.01267  Uiso   1.00
H28    H     0.38910   0.80440   0.17560   0.01267  Uiso   1.00
H29    H     0.72720   0.00860   0.12020   0.01267  Uiso   1.00
H30    H     0.37840   0.76560   0.06800   0.01267  Uiso   1.00
H31    H     0.69870   0.95960   0.01100   0.01267  Uiso   1.00
H32    H     0.59910   0.84420   0.98860   0.01267  Uiso   1.00
H33    H     0.52350   0.95480   0.94390   0.01267  Uiso   1.00
H34    H     0.40750   0.89520   0.98510   0.01267  Uiso   1.00
H35    H     0.37860   0.39520   0.17030   0.01267  Uiso   1.00
H36    H     0.24300   0.60220   0.12050   0.01267  Uiso   1.00
H37    H     0.25490   0.62500   0.22870   0.01267  Uiso   1.00
H38    H     0.39220   0.43720   0.28160   0.01267  Uiso   1.00
H39    H     0.40100   0.55060   0.30480   0.01267  Uiso   1.00
H40    H     0.15690   0.49160   0.31090   0.01267  Uiso   1.00
H41    H     0.21890   0.43120   0.34950   0.01267  Uiso   1.00
H42    H     0.07870   0.34980   0.23800   0.01267  Uiso   1.00
H43    H     0.14970   0.28960   0.27260   0.01267  Uiso   1.00
H44    H     0.91050   0.22380   0.28580   0.01267  Uiso   1.00
H45    H     0.91230   0.33560   0.30860   0.01267  Uiso   1.00
H46    H     0.98080   0.40440   0.41690   0.01267  Uiso   1.00
H47    H     0.04260   0.14480   0.36140   0.01267  Uiso   1.00
H48    H     0.10980   0.19480   0.46800   0.01267  Uiso   1.00
H49    H     0.75650   0.27300   0.62780   0.01267  Uiso   1.00
H50    H     0.55500   0.39640   0.52690   0.01267  Uiso   1.00
H51    H     0.34550   0.21760   0.64810   0.01267  Uiso   1.00
H52    H     0.41530   0.80440   0.67560   0.01267  Uiso   1.00
H53    H     0.28140   0.00860   0.62020   0.01267  Uiso   1.00
H54    H     0.38720   0.76560   0.56800   0.01267  Uiso   1.00
H55    H     0.26090   0.95960   0.51100   0.01267  Uiso   1.00
H56    H     0.24510   0.84420   0.48860   0.01267  Uiso   1.00
H57    H     0.43130   0.95480   0.44390   0.01267  Uiso   1.00
H58    H     0.48770   0.89520   0.48510   0.01267  Uiso   1.00
H59    H     0.01660   0.39520   0.67030   0.01267  Uiso   1.00
H60    H     0.35920   0.60220   0.62050   0.01267  Uiso   1.00
H61    H     0.37010   0.62500   0.72870   0.01267  Uiso   1.00
H62    H     0.04500   0.43720   0.78160   0.01267  Uiso   1.00
H63    H     0.14960   0.55060   0.80480   0.01267  Uiso   1.00
H64    H     0.33470   0.49160   0.81090   0.01267  Uiso   1.00
H65    H     0.21230   0.43120   0.84950   0.01267  Uiso   1.00
H66    H     0.27110   0.34980   0.73800   0.01267  Uiso   1.00
H67    H     0.13990   0.28960   0.77260   0.01267  Uiso   1.00
H68    H     0.31330   0.22380   0.78580   0.01267  Uiso   1.00
H69    H     0.42330   0.33560   0.80860   0.01267  Uiso   1.00
H70    H     0.42360   0.40440   0.91690   0.01267  Uiso   1.00
H71    H     0.10220   0.14480   0.86140   0.01267  Uiso   1.00
H72    H     0.08500   0.19480   0.96800   0.01267  Uiso   1.00
H73    H     0.48350   0.72700   0.87220   0.01267  Uiso   1.00
H74    H     0.15860   0.60360   0.97310   0.01267  Uiso   1.00
H75    H     0.12790   0.78240   0.85190   0.01267  Uiso   1.00
H76    H     0.61090   0.19560   0.82440   0.01267  Uiso   1.00
H77    H     0.27280   0.99140   0.87980   0.01267  Uiso   1.00
H78    H     0.62160   0.23440   0.93200   0.01267  Uiso   1.00
H79    H     0.30130   0.04040   0.98900   0.01267  Uiso   1.00
H80    H     0.40090   0.15580   0.01140   0.01267  Uiso   1.00
H81    H     0.47650   0.04520   0.05610   0.01267  Uiso   1.00
H82    H     0.59250   0.10480   0.01490   0.01267  Uiso   1.00
H83    H     0.62140   0.60480   0.82970   0.01267  Uiso   1.00
H84    H     0.75700   0.39780   0.87950   0.01267  Uiso   1.00
H85    H     0.74510   0.37500   0.77130   0.01267  Uiso   1.00
H86    H     0.60780   0.56280   0.71840   0.01267  Uiso   1.00
H87    H     0.59900   0.44940   0.69520   0.01267  Uiso   1.00
H88    H     0.84310   0.50840   0.68910   0.01267  Uiso   1.00
H89    H     0.78110   0.56880   0.65050   0.01267  Uiso   1.00
H90    H     0.92130   0.65020   0.76200   0.01267  Uiso   1.00
H91    H     0.85030   0.71040   0.72740   0.01267  Uiso   1.00
H92    H     0.08950   0.77620   0.71420   0.01267  Uiso   1.00
H93    H     0.08770   0.66440   0.69140   0.01267  Uiso   1.00
H94    H     0.01920   0.59560   0.58310   0.01267  Uiso   1.00
H95    H     0.95740   0.85520   0.63860   0.01267  Uiso   1.00
H96    H     0.89020   0.80520   0.53200   0.01267  Uiso   1.00
C1     C     0.32627   0.71874   0.38321   0.01267  Uiso   1.00
C2     C     0.32627   0.65834   0.42823   0.01267  Uiso   1.00
C3     C     0.44666   0.64492   0.44373   0.01267  Uiso   1.00
C4     C     0.57290   0.69200   0.41650   0.01267  Uiso   1.00
C5     C     0.57216   0.75192   0.37130   0.01267  Uiso   1.00
C6     C     0.44977   0.76594   0.35530   0.01267  Uiso   1.00
C7     C     0.19100   0.60900   0.45910   0.01267  Uiso   1.00
C8     C     0.70710   0.67680   0.43080   0.01267  Uiso   1.00
C9     C     0.45470   0.83460   0.30850   0.01267  Uiso   1.00
C10    C     0.61470   0.15860   0.34930   0.01267  Uiso   1.00
C11    C     0.68800   0.04680   0.37940   0.01267  Uiso   1.00
C12    C     0.63010   0.18080   0.40860   0.01267  Uiso   1.00
C13    C     0.69440   0.09100   0.48840   0.01267  Uiso   1.00
C14    C     0.55380   0.05220   0.51500   0.01267  Uiso   1.00
C15    C     0.89640   0.55020   0.32900   0.01267  Uiso   1.00
C16    C     0.70920   0.43720   0.35600   0.01267  Uiso   1.00
C17    C     0.70230   0.42380   0.29620   0.01267  Uiso   1.00
C18    C     0.85800   0.51460   0.21860   0.01267  Uiso   1.00
C19    C     0.76120   0.55900   0.19090   0.01267  Uiso   1.00
C20    C     0.76310   0.66120   0.22270   0.01267  Uiso   1.00
C21    C     0.67560   0.70900   0.19220   0.01267  Uiso   1.00
C22    C     0.65940   0.65380   0.08320   0.01267  Uiso   1.00
C23    C     0.83580   0.79700   0.11480   0.01267  Uiso   1.00
C24    C     0.84410   0.76840   0.05550   0.01267  Uiso   1.00
C25    C     0.60753   0.28126   0.11679   0.01267  Uiso   1.00
C26    C     0.66793   0.34166   0.07177   0.01267  Uiso   1.00
C27    C     0.80174   0.35508   0.05627   0.01267  Uiso   1.00
C28    C     0.88090   0.30800   0.08350   0.01267  Uiso   1.00
C29    C     0.82024   0.24808   0.12870   0.01267  Uiso   1.00
C30    C     0.68383   0.23406   0.14470   0.01267  Uiso   1.00
C31    C     0.58200   0.39100   0.04090   0.01267  Uiso   1.00
C32    C     0.03030   0.32320   0.06920   0.01267  Uiso   1.00
C33    C     0.62010   0.16540   0.19150   0.01267  Uiso   1.00
C34    C     0.45610   0.84140   0.15070   0.01267  Uiso   1.00
C35    C     0.64120   0.95320   0.12060   0.01267  Uiso   1.00
C36    C     0.44930   0.81920   0.09140   0.01267  Uiso   1.00
C37    C     0.60340   0.90900   0.01160   0.01267  Uiso   1.00
C38    C     0.50160   0.94780   0.98500   0.01267  Uiso   1.00
C39    C     0.34620   0.44980   0.17100   0.01267  Uiso   1.00
C40    C     0.27200   0.56280   0.14400   0.01267  Uiso   1.00
C41    C     0.27850   0.57620   0.20380   0.01267  Uiso   1.00
C42    C     0.34340   0.48540   0.28140   0.01267  Uiso   1.00
C43    C     0.20220   0.44100   0.30910   0.01267  Uiso   1.00
C44    C     0.10190   0.33880   0.27730   0.01267  Uiso   1.00
C45    C     0.96660   0.29100   0.30780   0.01267  Uiso   1.00
C46    C     0.00560   0.34620   0.41680   0.01267  Uiso   1.00
C47    C     0.03880   0.20300   0.38520   0.01267  Uiso   1.00
C48    C     0.07570   0.23160   0.44450   0.01267  Uiso   1.00
C49    C     0.67373   0.28126   0.61679   0.01267  Uiso   1.00
C50    C     0.67373   0.34166   0.57177   0.01267  Uiso   1.00
C51    C     0.55334   0.35508   0.55627   0.01267  Uiso   1.00
C52    C     0.42710   0.30800   0.58350   0.01267  Uiso   1.00
C53    C     0.42784   0.24808   0.62870   0.01267  Uiso   1.00
C54    C     0.55023   0.23406   0.64470   0.01267  Uiso   1.00
C55    C     0.80900   0.39100   0.54090   0.01267  Uiso   1.00
C56    C     0.29290   0.32320   0.56920   0.01267  Uiso   1.00
C57    C     0.54530   0.16540   0.69150   0.01267  Uiso   1.00
C58    C     0.38530   0.84140   0.65070   0.01267  Uiso   1.00
C59    C     0.31200   0.95320   0.62060   0.01267  Uiso   1.00
C60    C     0.36990   0.81920   0.59140   0.01267  Uiso   1.00
C61    C     0.30560   0.90900   0.51160   0.01267  Uiso   1.00
C62    C     0.44620   0.94780   0.48500   0.01267  Uiso   1.00
C63    C     0.10360   0.44980   0.67100   0.01267  Uiso   1.00
C64    C     0.29080   0.56280   0.64400   0.01267  Uiso   1.00
C65    C     0.29770   0.57620   0.70380   0.01267  Uiso   1.00
C66    C     0.14200   0.48540   0.78140   0.01267  Uiso   1.00
C67    C     0.23880   0.44100   0.80910   0.01267  Uiso   1.00
C68    C     0.23690   0.33880   0.77730   0.01267  Uiso   1.00
C69    C     0.32440   0.29100   0.80780   0.01267  Uiso   1.00
C70    C     0.34060   0.34620   0.91680   0.01267  Uiso   1.00
C71    C     0.16420   0.20300   0.88520   0.01267  Uiso   1.00
C72    C     0.15590   0.23160   0.94450   0.01267  Uiso   1.00
C73    C     0.39247   0.71874   0.88321   0.01267  Uiso   1.00
C74    C     0.33207   0.65834   0.92823   0.01267  Uiso   1.00
C75    C     0.19826   0.64492   0.94373   0.01267  Uiso   1.00
C76    C     0.11910   0.69200   0.91650   0.01267  Uiso   1.00
C77    C     0.17976   0.75192   0.87130   0.01267  Uiso   1.00
C78    C     0.31617   0.76594   0.85530   0.01267  Uiso   1.00
C79    C     0.41800   0.60900   0.95910   0.01267  Uiso   1.00
C80    C     0.96970   0.67680   0.93080   0.01267  Uiso   1.00
C81    C     0.37990   0.83460   0.80850   0.01267  Uiso   1.00
C82    C     0.54390   0.15860   0.84930   0.01267  Uiso   1.00
C83    C     0.35880   0.04680   0.87940   0.01267  Uiso   1.00
C84    C     0.55070   0.18080   0.90860   0.01267  Uiso   1.00
C85    C     0.39660   0.09100   0.98840   0.01267  Uiso   1.00
C86    C     0.49840   0.05220   0.01500   0.01267  Uiso   1.00
C87    C     0.65380   0.55020   0.82900   0.01267  Uiso   1.00
C88    C     0.72800   0.43720   0.85600   0.01267  Uiso   1.00
C89    C     0.72150   0.42380   0.79620   0.01267  Uiso   1.00
C90    C     0.65660   0.51460   0.71860   0.01267  Uiso   1.00
C91    C     0.79780   0.55900   0.69090   0.01267  Uiso   1.00
C92    C     0.89810   0.66120   0.72270   0.01267  Uiso   1.00
C93    C     0.03340   0.70900   0.69220   0.01267  Uiso   1.00
C94    C     0.99440   0.65380   0.58320   0.01267  Uiso   1.00
C95    C     0.96120   0.79700   0.61480   0.01267  Uiso   1.00
C96    C     0.92430   0.76840   0.55550   0.01267  Uiso   1.00
N1     N     0.64888   0.07536   0.33095   0.01267  Uiso   1.00
N2     N     0.67692   0.10844   0.42748   0.01267  Uiso   1.00
N3     N     0.83127   0.51714   0.37691   0.01267  Uiso   1.00
N4     N     0.82273   0.49626   0.27975   0.01267  Uiso   1.00
N5     N     0.71892   0.72304   0.13117   0.01267  Uiso   1.00
N6     N     0.73371   0.67882   0.03617   0.01267  Uiso   1.00
N7     N     0.57352   0.92464   0.16905   0.01267  Uiso   1.00
N8     N     0.56848   0.89156   0.07252   0.01267  Uiso   1.00
N9     N     0.31413   0.48286   0.12309   0.01267  Uiso   1.00
N10    N     0.32647   0.50374   0.22025   0.01267  Uiso   1.00
N11    N     0.99588   0.27696   0.36883   0.01267  Uiso   1.00
N12    N     0.05489   0.32118   0.46383   0.01267  Uiso   1.00
N13    N     0.35112   0.92464   0.66905   0.01267  Uiso   1.00
N14    N     0.32308   0.89156   0.57252   0.01267  Uiso   1.00
N15    N     0.16873   0.48286   0.62309   0.01267  Uiso   1.00
N16    N     0.17727   0.50374   0.72025   0.01267  Uiso   1.00
N17    N     0.28108   0.27696   0.86883   0.01267  Uiso   1.00
N18    N     0.26629   0.32118   0.96383   0.01267  Uiso   1.00
N19    N     0.42648   0.07536   0.83095   0.01267  Uiso   1.00
N20    N     0.43152   0.10844   0.92748   0.01267  Uiso   1.00
N21    N     0.68587   0.51714   0.87691   0.01267  Uiso   1.00
N22    N     0.67353   0.49626   0.77975   0.01267  Uiso   1.00
N23    N     0.00412   0.72304   0.63117   0.01267  Uiso   1.00
N24    N     0.94511   0.67882   0.53617   0.01267  Uiso   1.00
O1     O     0.08237   0.61714   0.43682   0.01267  Uiso   1.00
O2     O     0.19552   0.56524   0.50261   0.01267  Uiso   1.00
O3     O     0.69663   0.60266   0.46087   0.01267  Uiso   1.00
O4     O     0.81896   0.73512   0.41383   0.01267  Uiso   1.00
O5     O     0.56902   0.87064   0.28419   0.01267  Uiso   1.00
O6     O     0.35080   0.85640   0.29960   0.01267  Uiso   1.00
O7     O     0.46523   0.38286   0.06318   0.01267  Uiso   1.00
O8     O     0.63028   0.43476   0.99739   0.01267  Uiso   1.00
O9     O     0.09397   0.39734   0.03913   0.01267  Uiso   1.00
O10    O     0.08384   0.26488   0.08617   0.01267  Uiso   1.00
O11    O     0.69838   0.12936   0.21581   0.01267  Uiso   1.00
O12    O     0.49440   0.14360   0.20040   0.01267  Uiso   1.00
O13    O     0.91763   0.38286   0.56318   0.01267  Uiso   1.00
O14    O     0.80448   0.43476   0.49739   0.01267  Uiso   1.00
O15    O     0.30337   0.39734   0.53913   0.01267  Uiso   1.00
O16    O     0.18104   0.26488   0.58617   0.01267  Uiso   1.00
O17    O     0.43098   0.12936   0.71581   0.01267  Uiso   1.00
O18    O     0.64920   0.14360   0.70040   0.01267  Uiso   1.00
O19    O     0.53477   0.61714   0.93682   0.01267  Uiso   1.00
O20    O     0.36972   0.56524   0.00261   0.01267  Uiso   1.00
O21    O     0.90603   0.60266   0.96087   0.01267  Uiso   1.00
O22    O     0.91616   0.73512   0.91383   0.01267  Uiso   1.00
O23    O     0.30162   0.87064   0.78419   0.01267  Uiso   1.00
O24    O     0.50560   0.85640   0.79960   0.01267  Uiso   1.00
