data_LEGGEK_clean
_audit_creation_date              2014-07-02
_audit_creation_method            'Materials Studio'
_symmetry_space_group_name_H-M    'P1'
_symmetry_Int_Tables_number       1
_symmetry_cell_setting            triclinic
loop_
_symmetry_equiv_pos_as_xyz
  x,y,z
_cell_length_a                    7.7970
_cell_length_b                    10.0470
_cell_length_c                    13.5770
_cell_angle_alpha                 110.1800
_cell_angle_beta                  105.4600
_cell_angle_gamma                 93.9000
loop_
_atom_site_label
_atom_site_type_symbol
_atom_site_fract_x
_atom_site_fract_y
_atom_site_fract_z
_atom_site_U_iso_or_equiv
_atom_site_adp_type
_atom_site_occupancy
Zn1    Zn    0.36918   0.12226   0.74478   0.01267  Uiso   1.00
Zn2    Zn    0.63082   0.87774   0.25522   0.01267  Uiso   1.00
Zn3    Zn    0.00000   0.50000   0.50000   0.01267  Uiso   1.00
Zn4    Zn    0.50000   0.50000   0.50000   0.01267  Uiso   1.00
H1     H     0.08500   0.84250   0.63220   0.01267  Uiso   1.00
H2     H     0.59020   0.85780   0.63670   0.01267  Uiso   1.00
H3     H     0.04010   0.26670   0.62560   0.01267  Uiso   1.00
H4     H     0.53900   0.27060   0.61970   0.01267  Uiso   1.00
H5     H     0.86230   0.05580   0.84720   0.01267  Uiso   1.00
H6     H     0.31300   0.00290   0.05320   0.01267  Uiso   1.00
H7     H     0.96780   0.29080   0.84530   0.01267  Uiso   1.00
H8     H     0.74500   0.57110   0.05090   0.01267  Uiso   1.00
H9     H     0.91500   0.15750   0.36780   0.01267  Uiso   1.00
H10    H     0.40980   0.14220   0.36330   0.01267  Uiso   1.00
H11    H     0.95990   0.73330   0.37440   0.01267  Uiso   1.00
H12    H     0.46100   0.72940   0.38030   0.01267  Uiso   1.00
H13    H     0.13770   0.94420   0.15280   0.01267  Uiso   1.00
H14    H     0.68700   0.99710   0.94680   0.01267  Uiso   1.00
H15    H     0.03220   0.70920   0.15470   0.01267  Uiso   1.00
H16    H     0.25500   0.42890   0.94910   0.01267  Uiso   1.00
C1     C     0.19490   0.81520   0.62130   0.01267  Uiso   1.00
C2     C     0.46650   0.82350   0.62390   0.01267  Uiso   1.00
C3     C     0.15150   0.28820   0.61350   0.01267  Uiso   1.00
C4     C     0.41950   0.29020   0.61030   0.01267  Uiso   1.00
C5     C     0.21770   0.07550   0.87790   0.01267  Uiso   1.00
C6     C     0.10390   0.03610   0.94060   0.01267  Uiso   1.00
C7     C     0.91820   0.03340   0.90940   0.01267  Uiso   1.00
C8     C     0.18640   0.00200   0.03170   0.01267  Uiso   1.00
C9     C     0.98120   0.37560   0.90800   0.01267  Uiso   1.00
C10    C     0.84810   0.54240   0.03030   0.01267  Uiso   1.00
C11    C     0.82850   0.41730   0.93800   0.01267  Uiso   1.00
C12    C     0.64330   0.32850   0.87240   0.01267  Uiso   1.00
C13    C     0.80510   0.18480   0.37870   0.01267  Uiso   1.00
C14    C     0.53350   0.17650   0.37610   0.01267  Uiso   1.00
C15    C     0.84850   0.71180   0.38650   0.01267  Uiso   1.00
C16    C     0.58050   0.70980   0.38970   0.01267  Uiso   1.00
C17    C     0.78230   0.92450   0.12210   0.01267  Uiso   1.00
C18    C     0.89610   0.96390   0.05940   0.01267  Uiso   1.00
C19    C     0.08180   0.96660   0.09060   0.01267  Uiso   1.00
C20    C     0.81360   0.99800   0.96830   0.01267  Uiso   1.00
C21    C     0.01880   0.62440   0.09200   0.01267  Uiso   1.00
C22    C     0.15190   0.45760   0.96970   0.01267  Uiso   1.00
C23    C     0.17150   0.58270   0.06200   0.01267  Uiso   1.00
C24    C     0.35670   0.67150   0.12760   0.01267  Uiso   1.00
N1     N     0.21140   0.68150   0.56970   0.01267  Uiso   1.00
N2     N     0.38930   0.68590   0.57140   0.01267  Uiso   1.00
N3     N     0.35110   0.90960   0.65710   0.01267  Uiso   1.00
N4     N     0.17930   0.37810   0.56500   0.01267  Uiso   1.00
N5     N     0.35540   0.37890   0.56300   0.01267  Uiso   1.00
N6     N     0.29780   0.23050   0.64380   0.01267  Uiso   1.00
N7     N     0.78860   0.31850   0.43030   0.01267  Uiso   1.00
N8     N     0.61070   0.31410   0.42860   0.01267  Uiso   1.00
N9     N     0.64890   0.09040   0.34290   0.01267  Uiso   1.00
N10    N     0.82070   0.62190   0.43500   0.01267  Uiso   1.00
N11    N     0.64460   0.62110   0.43700   0.01267  Uiso   1.00
N12    N     0.70220   0.76950   0.35620   0.01267  Uiso   1.00
O1     O     0.14070   0.09360   0.79020   0.01267  Uiso   1.00
O2     O     0.38520   0.09290   0.91300   0.01267  Uiso   1.00
O3     O     0.63580   0.20330   0.80090   0.01267  Uiso   1.00
O4     O     0.50680   0.38020   0.88740   0.01267  Uiso   1.00
O5     O     0.85930   0.90640   0.20980   0.01267  Uiso   1.00
O6     O     0.61480   0.90710   0.08700   0.01267  Uiso   1.00
O7     O     0.36420   0.79670   0.19910   0.01267  Uiso   1.00
O8     O     0.49320   0.61980   0.11260   0.01267  Uiso   1.00
