data_LEHTID_clean
_audit_creation_date              2014-07-02
_audit_creation_method            'Materials Studio'
_symmetry_space_group_name_H-M    'P1'
_symmetry_Int_Tables_number       1
_symmetry_cell_setting            triclinic
loop_
_symmetry_equiv_pos_as_xyz
  x,y,z
_cell_length_a                    6.9082
_cell_length_b                    18.4260
_cell_length_c                    18.5830
_cell_angle_alpha                 111.9800
_cell_angle_beta                  90.0000
_cell_angle_gamma                 90.0000
loop_
_atom_site_label
_atom_site_type_symbol
_atom_site_fract_x
_atom_site_fract_y
_atom_site_fract_z
_atom_site_U_iso_or_equiv
_atom_site_adp_type
_atom_site_occupancy
Tb1    Tb    0.77694   0.62652   0.62277   0.01267  Uiso   1.00
Tb2    Tb    0.74807   0.62470   0.10391   0.01267  Uiso   1.00
Tb3    Tb    0.27694   0.87348   0.87723   0.01267  Uiso   1.00
Tb4    Tb    0.24807   0.87530   0.39609   0.01267  Uiso   1.00
Tb5    Tb    0.22306   0.37348   0.37723   0.01267  Uiso   1.00
Tb6    Tb    0.25193   0.37530   0.89609   0.01267  Uiso   1.00
Tb7    Tb    0.72306   0.12652   0.12277   0.01267  Uiso   1.00
Tb8    Tb    0.75193   0.12470   0.60391   0.01267  Uiso   1.00
H1     H     0.51200   0.62660   0.89800   0.01267  Uiso   1.00
H2     H     0.73170   0.41620   0.76190   0.01267  Uiso   1.00
H3     H     0.59310   0.72730   0.41150   0.01267  Uiso   1.00
H4     H     0.79940   0.50620   0.33010   0.01267  Uiso   1.00
H5     H     0.01200   0.87340   0.60200   0.01267  Uiso   1.00
H6     H     0.23170   0.08380   0.73810   0.01267  Uiso   1.00
H7     H     0.09310   0.77270   0.08850   0.01267  Uiso   1.00
H8     H     0.29940   0.99380   0.16990   0.01267  Uiso   1.00
H9     H     0.48800   0.37340   0.10200   0.01267  Uiso   1.00
H10    H     0.26830   0.58380   0.23810   0.01267  Uiso   1.00
H11    H     0.40690   0.27270   0.58850   0.01267  Uiso   1.00
H12    H     0.20060   0.49380   0.66990   0.01267  Uiso   1.00
H13    H     0.98800   0.12660   0.39800   0.01267  Uiso   1.00
H14    H     0.76830   0.91620   0.26190   0.01267  Uiso   1.00
H15    H     0.90690   0.22730   0.91150   0.01267  Uiso   1.00
H16    H     0.70060   0.00620   0.83010   0.01267  Uiso   1.00
C1     C     0.58790   0.61651   0.78868   0.01267  Uiso   1.00
C2     C     0.56600   0.59324   0.85157   0.01267  Uiso   1.00
C3     C     0.62830   0.51789   0.84240   0.01267  Uiso   1.00
C4     C     0.69820   0.46753   0.77010   0.01267  Uiso   1.00
C5     C     0.71650   0.49598   0.71089   0.01267  Uiso   1.00
C6     C     0.53460   0.69738   0.79024   0.01267  Uiso   1.00
C7     C     0.62720   0.49169   0.91095   0.01267  Uiso   1.00
C8     C     0.79430   0.44973   0.63031   0.01267  Uiso   1.00
C9     C     0.64680   0.68050   0.29483   0.01267  Uiso   1.00
C10    C     0.63710   0.68292   0.37114   0.01267  Uiso   1.00
C11    C     0.69560   0.61663   0.38448   0.01267  Uiso   1.00
C12    C     0.76300   0.55142   0.32249   0.01267  Uiso   1.00
C13    C     0.77500   0.55502   0.24868   0.01267  Uiso   1.00
C14    C     0.58070   0.74726   0.27122   0.01267  Uiso   1.00
C15    C     0.69510   0.61656   0.46627   0.01267  Uiso   1.00
C16    C     0.85430   0.49057   0.17660   0.01267  Uiso   1.00
C17    C     0.08790   0.88349   0.71132   0.01267  Uiso   1.00
C18    C     0.06600   0.90676   0.64843   0.01267  Uiso   1.00
C19    C     0.12830   0.98211   0.65760   0.01267  Uiso   1.00
C20    C     0.19820   0.03247   0.72990   0.01267  Uiso   1.00
C21    C     0.21650   0.00402   0.78911   0.01267  Uiso   1.00
C22    C     0.03460   0.80262   0.70976   0.01267  Uiso   1.00
C23    C     0.12720   0.00831   0.58905   0.01267  Uiso   1.00
C24    C     0.29430   0.05027   0.86969   0.01267  Uiso   1.00
C25    C     0.14680   0.81950   0.20517   0.01267  Uiso   1.00
C26    C     0.13710   0.81708   0.12886   0.01267  Uiso   1.00
C27    C     0.19560   0.88337   0.11552   0.01267  Uiso   1.00
C28    C     0.26300   0.94858   0.17751   0.01267  Uiso   1.00
C29    C     0.27500   0.94498   0.25132   0.01267  Uiso   1.00
C30    C     0.08070   0.75274   0.22878   0.01267  Uiso   1.00
C31    C     0.19510   0.88344   0.03373   0.01267  Uiso   1.00
C32    C     0.35430   0.00943   0.32340   0.01267  Uiso   1.00
C33    C     0.41210   0.38349   0.21132   0.01267  Uiso   1.00
C34    C     0.43400   0.40676   0.14843   0.01267  Uiso   1.00
C35    C     0.37170   0.48211   0.15760   0.01267  Uiso   1.00
C36    C     0.30180   0.53247   0.22990   0.01267  Uiso   1.00
C37    C     0.28350   0.50402   0.28911   0.01267  Uiso   1.00
C38    C     0.46540   0.30262   0.20976   0.01267  Uiso   1.00
C39    C     0.37280   0.50831   0.08905   0.01267  Uiso   1.00
C40    C     0.20570   0.55027   0.36969   0.01267  Uiso   1.00
C41    C     0.35320   0.31950   0.70517   0.01267  Uiso   1.00
C42    C     0.36290   0.31708   0.62886   0.01267  Uiso   1.00
C43    C     0.30440   0.38337   0.61552   0.01267  Uiso   1.00
C44    C     0.23700   0.44858   0.67751   0.01267  Uiso   1.00
C45    C     0.22500   0.44498   0.75132   0.01267  Uiso   1.00
C46    C     0.41930   0.25274   0.72878   0.01267  Uiso   1.00
C47    C     0.30490   0.38344   0.53373   0.01267  Uiso   1.00
C48    C     0.14570   0.50943   0.82340   0.01267  Uiso   1.00
C49    C     0.91210   0.11651   0.28868   0.01267  Uiso   1.00
C50    C     0.93400   0.09324   0.35157   0.01267  Uiso   1.00
C51    C     0.87170   0.01789   0.34240   0.01267  Uiso   1.00
C52    C     0.80180   0.96753   0.27010   0.01267  Uiso   1.00
C53    C     0.78350   0.99598   0.21089   0.01267  Uiso   1.00
C54    C     0.96540   0.19738   0.29024   0.01267  Uiso   1.00
C55    C     0.87280   0.99169   0.41095   0.01267  Uiso   1.00
C56    C     0.70570   0.94973   0.13031   0.01267  Uiso   1.00
C57    C     0.85320   0.18050   0.79483   0.01267  Uiso   1.00
C58    C     0.86290   0.18292   0.87114   0.01267  Uiso   1.00
C59    C     0.80440   0.11663   0.88448   0.01267  Uiso   1.00
C60    C     0.73700   0.05142   0.82249   0.01267  Uiso   1.00
C61    C     0.72500   0.05502   0.74868   0.01267  Uiso   1.00
C62    C     0.91930   0.24726   0.77122   0.01267  Uiso   1.00
C63    C     0.80490   0.11656   0.96627   0.01267  Uiso   1.00
C64    C     0.64570   0.99057   0.67660   0.01267  Uiso   1.00
N1     N     0.66780   0.57024   0.72131   0.01267  Uiso   1.00
N2     N     0.71490   0.61813   0.23569   0.01267  Uiso   1.00
N3     N     0.16780   0.92976   0.77869   0.01267  Uiso   1.00
N4     N     0.21490   0.88187   0.26431   0.01267  Uiso   1.00
N5     N     0.33220   0.42976   0.27869   0.01267  Uiso   1.00
N6     N     0.28510   0.38187   0.76431   0.01267  Uiso   1.00
N7     N     0.83220   0.07024   0.22131   0.01267  Uiso   1.00
N8     N     0.78510   0.11813   0.73569   0.01267  Uiso   1.00
O1     O     0.42620   0.74052   0.84177   0.01267  Uiso   1.00
O2     O     0.60890   0.71378   0.73477   0.01267  Uiso   1.00
O3     O     0.68420   0.54037   0.97452   0.01267  Uiso   1.00
O4     O     0.57470   0.42204   0.89760   0.01267  Uiso   1.00
O5     O     0.81790   0.37854   0.60964   0.01267  Uiso   1.00
O6     O     0.83140   0.49026   0.58862   0.01267  Uiso   1.00
O7     O     0.51210   0.80701   0.32354   0.01267  Uiso   1.00
O8     O     0.60120   0.73733   0.20061   0.01267  Uiso   1.00
O9     O     0.71550   0.55267   0.47582   0.01267  Uiso   1.00
O10    O     0.68410   0.68092   0.52358   0.01267  Uiso   1.00
O11    O     0.91400   0.42868   0.18068   0.01267  Uiso   1.00
O12    O     0.85370   0.50607   0.11486   0.01267  Uiso   1.00
O13    O     0.92620   0.75948   0.65823   0.01267  Uiso   1.00
O14    O     0.10890   0.78622   0.76523   0.01267  Uiso   1.00
O15    O     0.18420   0.95963   0.52548   0.01267  Uiso   1.00
O16    O     0.07470   0.07796   0.60240   0.01267  Uiso   1.00
O17    O     0.31790   0.12146   0.89036   0.01267  Uiso   1.00
O18    O     0.33140   0.00974   0.91138   0.01267  Uiso   1.00
O19    O     0.01210   0.69299   0.17646   0.01267  Uiso   1.00
O20    O     0.10120   0.76267   0.29939   0.01267  Uiso   1.00
O21    O     0.21550   0.94733   0.02418   0.01267  Uiso   1.00
O22    O     0.18410   0.81908   0.97642   0.01267  Uiso   1.00
O23    O     0.41400   0.07132   0.31932   0.01267  Uiso   1.00
O24    O     0.35370   0.99393   0.38514   0.01267  Uiso   1.00
O25    O     0.57380   0.25948   0.15823   0.01267  Uiso   1.00
O26    O     0.39110   0.28622   0.26523   0.01267  Uiso   1.00
O27    O     0.31580   0.45963   0.02548   0.01267  Uiso   1.00
O28    O     0.42530   0.57796   0.10240   0.01267  Uiso   1.00
O29    O     0.18210   0.62146   0.39036   0.01267  Uiso   1.00
O30    O     0.16860   0.50974   0.41138   0.01267  Uiso   1.00
O31    O     0.48790   0.19299   0.67646   0.01267  Uiso   1.00
O32    O     0.39880   0.26267   0.79939   0.01267  Uiso   1.00
O33    O     0.28450   0.44733   0.52418   0.01267  Uiso   1.00
O34    O     0.31590   0.31908   0.47642   0.01267  Uiso   1.00
O35    O     0.08600   0.57132   0.81932   0.01267  Uiso   1.00
O36    O     0.14630   0.49393   0.88514   0.01267  Uiso   1.00
O37    O     0.07380   0.24052   0.34177   0.01267  Uiso   1.00
O38    O     0.89110   0.21378   0.23477   0.01267  Uiso   1.00
O39    O     0.81580   0.04037   0.47452   0.01267  Uiso   1.00
O40    O     0.92530   0.92204   0.39760   0.01267  Uiso   1.00
O41    O     0.68210   0.87854   0.10964   0.01267  Uiso   1.00
O42    O     0.66860   0.99026   0.08862   0.01267  Uiso   1.00
O43    O     0.98790   0.30701   0.82354   0.01267  Uiso   1.00
O44    O     0.89880   0.23733   0.70061   0.01267  Uiso   1.00
O45    O     0.78450   0.05267   0.97582   0.01267  Uiso   1.00
O46    O     0.81590   0.18092   0.02358   0.01267  Uiso   1.00
O47    O     0.58600   0.92868   0.68068   0.01267  Uiso   1.00
O48    O     0.64630   0.00607   0.61486   0.01267  Uiso   1.00
