data_image0
_cell_length_a       8.504
_cell_length_b       14.441
_cell_length_c       45.883
_cell_angle_alpha    90
_cell_angle_beta     90
_cell_angle_gamma    90

_symmetry_space_group_name_H-M    "P 1"
_symmetry_int_tables_number       1

loop_
  _symmetry_equiv_pos_as_xyz
  'x, y, z'

loop_
  _atom_site_label
  _atom_site_occupancy
  _atom_site_fract_x
  _atom_site_fract_y
  _atom_site_fract_z
  _atom_site_thermal_displace_type
  _atom_site_B_iso_or_equiv
  _atom_site_type_symbol
  C1       1.0000 0.99800  0.02850  0.09580  Biso   1.000  C
  C2       1.0000 0.95200  0.97430  0.07980  Biso   1.000  C
  C3       1.0000 0.97500  0.97460  0.00910  Biso   1.000  C
  C4       1.0000 0.99800  0.52850  0.59580  Biso   1.000  C
  C5       1.0000 0.95200  0.47430  0.57980  Biso   1.000  C
  C6       1.0000 0.97500  0.47460  0.50910  Biso   1.000  C
  C7       1.0000 0.49800  0.02850  0.59580  Biso   1.000  C
  C8       1.0000 0.45200  0.97430  0.57980  Biso   1.000  C
  C9       1.0000 0.47500  0.97460  0.50910  Biso   1.000  C
  C10      1.0000 0.49800  0.52850  0.09580  Biso   1.000  C
  C11      1.0000 0.45200  0.47430  0.07980  Biso   1.000  C
  C12      1.0000 0.47500  0.47460  0.00910  Biso   1.000  C
  C13      1.0000 0.75200  0.72150  0.09580  Biso   1.000  C
  C14      1.0000 0.79800  0.77570  0.07980  Biso   1.000  C
  C15      1.0000 0.77500  0.77540  0.00910  Biso   1.000  C
  C16      1.0000 0.75200  0.22150  0.59580  Biso   1.000  C
  C17      1.0000 0.79800  0.27570  0.57980  Biso   1.000  C
  C18      1.0000 0.77500  0.27540  0.50910  Biso   1.000  C
  C19      1.0000 0.25200  0.72150  0.59580  Biso   1.000  C
  C20      1.0000 0.29800  0.77570  0.57980  Biso   1.000  C
  C21      1.0000 0.27500  0.77540  0.50910  Biso   1.000  C
  C22      1.0000 0.25200  0.22150  0.09580  Biso   1.000  C
  C23      1.0000 0.29800  0.27570  0.07980  Biso   1.000  C
  C24      1.0000 0.27500  0.27540  0.00910  Biso   1.000  C
  C25      1.0000 0.75200  0.02850  0.65420  Biso   1.000  C
  C26      1.0000 0.79800  0.97430  0.67020  Biso   1.000  C
  C27      1.0000 0.77500  0.97460  0.74090  Biso   1.000  C
  C28      1.0000 0.75200  0.52850  0.15420  Biso   1.000  C
  C29      1.0000 0.79800  0.47430  0.17020  Biso   1.000  C
  C30      1.0000 0.77500  0.47460  0.24090  Biso   1.000  C
  C31      1.0000 0.25200  0.02850  0.15420  Biso   1.000  C
  C32      1.0000 0.29800  0.97430  0.17020  Biso   1.000  C
  C33      1.0000 0.27500  0.97460  0.24090  Biso   1.000  C
  C34      1.0000 0.25200  0.52850  0.65420  Biso   1.000  C
  C35      1.0000 0.29800  0.47430  0.67020  Biso   1.000  C
  C36      1.0000 0.27500  0.47460  0.74090  Biso   1.000  C
  C37      1.0000 0.99800  0.72150  0.65420  Biso   1.000  C
  C38      1.0000 0.95200  0.77570  0.67020  Biso   1.000  C
  C39      1.0000 0.97500  0.77540  0.74090  Biso   1.000  C
  C40      1.0000 0.99800  0.22150  0.15420  Biso   1.000  C
  C41      1.0000 0.95200  0.27570  0.17020  Biso   1.000  C
  C42      1.0000 0.97500  0.27540  0.24090  Biso   1.000  C
  C43      1.0000 0.49800  0.72150  0.15420  Biso   1.000  C
  C44      1.0000 0.45200  0.77570  0.17020  Biso   1.000  C
  C45      1.0000 0.47500  0.77540  0.24090  Biso   1.000  C
  C46      1.0000 0.49800  0.22150  0.65420  Biso   1.000  C
  C47      1.0000 0.45200  0.27570  0.67020  Biso   1.000  C
  C48      1.0000 0.47500  0.27540  0.74090  Biso   1.000  C
  C49      1.0000 0.00200  0.97150  0.90420  Biso   1.000  C
  C50      1.0000 0.04800  0.02570  0.92020  Biso   1.000  C
  C51      1.0000 0.02500  0.02540  0.99090  Biso   1.000  C
  C52      1.0000 0.00200  0.47150  0.40420  Biso   1.000  C
  C53      1.0000 0.04800  0.52570  0.42020  Biso   1.000  C
  C54      1.0000 0.02500  0.52540  0.49090  Biso   1.000  C
  C55      1.0000 0.50200  0.97150  0.40420  Biso   1.000  C
  C56      1.0000 0.54800  0.02570  0.42020  Biso   1.000  C
  C57      1.0000 0.52500  0.02540  0.49090  Biso   1.000  C
  C58      1.0000 0.50200  0.47150  0.90420  Biso   1.000  C
  C59      1.0000 0.54800  0.52570  0.92020  Biso   1.000  C
  C60      1.0000 0.52500  0.52540  0.99090  Biso   1.000  C
  C61      1.0000 0.24800  0.27850  0.90420  Biso   1.000  C
  C62      1.0000 0.20200  0.22430  0.92020  Biso   1.000  C
  C63      1.0000 0.22500  0.22460  0.99090  Biso   1.000  C
  C64      1.0000 0.24800  0.77850  0.40420  Biso   1.000  C
  C65      1.0000 0.20200  0.72430  0.42020  Biso   1.000  C
  C66      1.0000 0.22500  0.72460  0.49090  Biso   1.000  C
  C67      1.0000 0.74800  0.27850  0.40420  Biso   1.000  C
  C68      1.0000 0.70200  0.22430  0.42020  Biso   1.000  C
  C69      1.0000 0.72500  0.22460  0.49090  Biso   1.000  C
  C70      1.0000 0.74800  0.77850  0.90420  Biso   1.000  C
  C71      1.0000 0.70200  0.72430  0.92020  Biso   1.000  C
  C72      1.0000 0.72500  0.72460  0.99090  Biso   1.000  C
  C73      1.0000 0.24800  0.97150  0.34580  Biso   1.000  C
  C74      1.0000 0.20200  0.02570  0.32980  Biso   1.000  C
  C75      1.0000 0.22500  0.02540  0.25910  Biso   1.000  C
  C76      1.0000 0.24800  0.47150  0.84580  Biso   1.000  C
  C77      1.0000 0.20200  0.52570  0.82980  Biso   1.000  C
  C78      1.0000 0.22500  0.52540  0.75910  Biso   1.000  C
  C79      1.0000 0.74800  0.97150  0.84580  Biso   1.000  C
  C80      1.0000 0.70200  0.02570  0.82980  Biso   1.000  C
  C81      1.0000 0.72500  0.02540  0.75910  Biso   1.000  C
  C82      1.0000 0.74800  0.47150  0.34580  Biso   1.000  C
  C83      1.0000 0.70200  0.52570  0.32980  Biso   1.000  C
  C84      1.0000 0.72500  0.52540  0.25910  Biso   1.000  C
  C85      1.0000 0.00200  0.27850  0.34580  Biso   1.000  C
  C86      1.0000 0.04800  0.22430  0.32980  Biso   1.000  C
  C87      1.0000 0.02500  0.22460  0.25910  Biso   1.000  C
  C88      1.0000 0.00200  0.77850  0.84580  Biso   1.000  C
  C89      1.0000 0.04800  0.72430  0.82980  Biso   1.000  C
  C90      1.0000 0.02500  0.72460  0.75910  Biso   1.000  C
  C91      1.0000 0.50200  0.27850  0.84580  Biso   1.000  C
  C92      1.0000 0.54800  0.22430  0.82980  Biso   1.000  C
  C93      1.0000 0.52500  0.22460  0.75910  Biso   1.000  C
  C94      1.0000 0.50200  0.77850  0.34580  Biso   1.000  C
  C95      1.0000 0.54800  0.72430  0.32980  Biso   1.000  C
  C96      1.0000 0.52500  0.72460  0.25910  Biso   1.000  C
  Cd1      1.0000 0.87500  0.87500  0.04175  Biso   1.000  Cd
  Cd2      1.0000 0.87500  0.37500  0.54175  Biso   1.000  Cd
  Cd3      1.0000 0.37500  0.87500  0.54175  Biso   1.000  Cd
  Cd4      1.0000 0.37500  0.37500  0.04175  Biso   1.000  Cd
  Cd5      1.0000 0.87500  0.87500  0.70825  Biso   1.000  Cd
  Cd6      1.0000 0.87500  0.37500  0.20825  Biso   1.000  Cd
  Cd7      1.0000 0.37500  0.87500  0.20825  Biso   1.000  Cd
  Cd8      1.0000 0.37500  0.37500  0.70825  Biso   1.000  Cd
  Cd9      1.0000 0.12500  0.12500  0.95825  Biso   1.000  Cd
  Cd10     1.0000 0.12500  0.62500  0.45825  Biso   1.000  Cd
  Cd11     1.0000 0.62500  0.12500  0.45825  Biso   1.000  Cd
  Cd12     1.0000 0.62500  0.62500  0.95825  Biso   1.000  Cd
  Cd13     1.0000 0.12500  0.12500  0.29175  Biso   1.000  Cd
  Cd14     1.0000 0.12500  0.62500  0.79175  Biso   1.000  Cd
  Cd15     1.0000 0.62500  0.12500  0.79175  Biso   1.000  Cd
  Cd16     1.0000 0.62500  0.62500  0.29175  Biso   1.000  Cd
  Cd17     1.0000 0.12500  0.12500  0.12500  Biso   1.000  Cd
  Cd18     1.0000 0.12500  0.62500  0.62500  Biso   1.000  Cd
  Cd19     1.0000 0.62500  0.12500  0.62500  Biso   1.000  Cd
  Cd20     1.0000 0.62500  0.62500  0.12500  Biso   1.000  Cd
  Cd21     1.0000 0.87500  0.87500  0.87500  Biso   1.000  Cd
  Cd22     1.0000 0.87500  0.37500  0.37500  Biso   1.000  Cd
  Cd23     1.0000 0.37500  0.87500  0.37500  Biso   1.000  Cd
  Cd24     1.0000 0.37500  0.37500  0.87500  Biso   1.000  Cd
