data_image0
_cell_length_a       13.7676
_cell_length_b       13.7676
_cell_length_c       28.0619
_cell_angle_alpha    90
_cell_angle_beta     90
_cell_angle_gamma    120

_symmetry_space_group_name_H-M    "P 1"
_symmetry_int_tables_number       1

loop_
  _symmetry_equiv_pos_as_xyz
  'x, y, z'

loop_
  _atom_site_label
  _atom_site_occupancy
  _atom_site_fract_x
  _atom_site_fract_y
  _atom_site_fract_z
  _atom_site_thermal_displace_type
  _atom_site_B_iso_or_equiv
  _atom_site_type_symbol
  In1      1.0000 0.85316  0.55970  0.97537  Biso   1.000  In
  P1       1.0000 0.97467  0.80914  0.91683  Biso   1.000  P
  P2       1.0000 0.62942  0.50737  0.04011  Biso   1.000  P
  O1       1.0000 0.03240  0.88880  0.95798  Biso   1.000  O
  O2       1.0000 0.71450  0.57100  0.00162  Biso   1.000  O
  O3       1.0000 0.87880  0.69630  0.93218  Biso   1.000  O
  O4       1.0000 0.56270  0.56480  0.05146  Biso   1.000  O
  O5       1.0000 0.93080  0.85400  0.87831  Biso   1.000  O
  O6       1.0000 0.75990  0.44790  0.92050  Biso   1.000  O
  O7       1.0000 0.55600  0.38410  0.02968  Biso   1.000  O
  O8       1.0000 0.09030  0.94140  0.79524  Biso   1.000  O
  H1       1.0000 0.05060  0.80130  0.89000  Biso   1.000  H
  O9       1.0000 0.69580  0.50840  0.08210  Biso   1.000  O
  In2      1.0000 0.44030  0.29346  0.97537  Biso   1.000  In
  P3       1.0000 0.19086  0.16553  0.91683  Biso   1.000  P
  P4       1.0000 0.49263  0.12205  0.04011  Biso   1.000  P
  O10      1.0000 0.11120  0.14360  0.95798  Biso   1.000  O
  O11      1.0000 0.42900  0.14350  0.00162  Biso   1.000  O
  O12      1.0000 0.30370  0.18250  0.93218  Biso   1.000  O
  O13      1.0000 0.43520  0.99790  0.05146  Biso   1.000  O
  O14      1.0000 0.14600  0.07680  0.87831  Biso   1.000  O
  O15      1.0000 0.55210  0.31200  0.92050  Biso   1.000  O
  O16      1.0000 0.61590  0.17190  0.02968  Biso   1.000  O
  O17      1.0000 0.05860  0.14890  0.79524  Biso   1.000  O
  H2       1.0000 0.19870  0.24930  0.89000  Biso   1.000  H
  O18      1.0000 0.49160  0.18740  0.08210  Biso   1.000  O
  In3      1.0000 0.70654  0.14684  0.97537  Biso   1.000  In
  P5       1.0000 0.83447  0.02533  0.91683  Biso   1.000  P
  P6       1.0000 0.87795  0.37058  0.04011  Biso   1.000  P
  O19      1.0000 0.85640  0.96760  0.95798  Biso   1.000  O
  O20      1.0000 0.85650  0.28550  0.00162  Biso   1.000  O
  O21      1.0000 0.81750  0.12120  0.93218  Biso   1.000  O
  O22      1.0000 0.00210  0.43730  0.05146  Biso   1.000  O
  O23      1.0000 0.92320  0.06920  0.87831  Biso   1.000  O
  O24      1.0000 0.68800  0.24010  0.92050  Biso   1.000  O
  O25      1.0000 0.82810  0.44400  0.02968  Biso   1.000  O
  O26      1.0000 0.85110  0.90970  0.79524  Biso   1.000  O
  H3       1.0000 0.75070  0.94940  0.89000  Biso   1.000  H
  O27      1.0000 0.81260  0.30420  0.08210  Biso   1.000  O
  In4      1.0000 0.14684  0.44030  0.47537  Biso   1.000  In
  P7       1.0000 0.02533  0.19086  0.41683  Biso   1.000  P
  P8       1.0000 0.37058  0.49263  0.54011  Biso   1.000  P
  O28      1.0000 0.96760  0.11120  0.45798  Biso   1.000  O
  O29      1.0000 0.28550  0.42900  0.50162  Biso   1.000  O
  O30      1.0000 0.12120  0.30370  0.43218  Biso   1.000  O
  O31      1.0000 0.43730  0.43520  0.55146  Biso   1.000  O
  O32      1.0000 0.06920  0.14600  0.37831  Biso   1.000  O
  O33      1.0000 0.24010  0.55210  0.42050  Biso   1.000  O
  O34      1.0000 0.44400  0.61590  0.52968  Biso   1.000  O
  O35      1.0000 0.90970  0.05860  0.29524  Biso   1.000  O
  H4       1.0000 0.94940  0.19870  0.39000  Biso   1.000  H
  O36      1.0000 0.30420  0.49160  0.58210  Biso   1.000  O
  In5      1.0000 0.55970  0.70654  0.47537  Biso   1.000  In
  P9       1.0000 0.80914  0.83447  0.41683  Biso   1.000  P
  P10      1.0000 0.50737  0.87795  0.54011  Biso   1.000  P
  O37      1.0000 0.88880  0.85640  0.45798  Biso   1.000  O
  O38      1.0000 0.57100  0.85650  0.50162  Biso   1.000  O
  O39      1.0000 0.69630  0.81750  0.43218  Biso   1.000  O
  O40      1.0000 0.56480  0.00210  0.55146  Biso   1.000  O
  O41      1.0000 0.85400  0.92320  0.37831  Biso   1.000  O
  O42      1.0000 0.44790  0.68800  0.42050  Biso   1.000  O
  O43      1.0000 0.38410  0.82810  0.52968  Biso   1.000  O
  O44      1.0000 0.94140  0.85110  0.29524  Biso   1.000  O
  H5       1.0000 0.80130  0.75070  0.39000  Biso   1.000  H
  O45      1.0000 0.50840  0.81260  0.58210  Biso   1.000  O
  In6      1.0000 0.29346  0.85316  0.47537  Biso   1.000  In
  P11      1.0000 0.16553  0.97467  0.41683  Biso   1.000  P
  P12      1.0000 0.12205  0.62942  0.54011  Biso   1.000  P
  O46      1.0000 0.14360  0.03240  0.45798  Biso   1.000  O
  O47      1.0000 0.14350  0.71450  0.50162  Biso   1.000  O
  O48      1.0000 0.18250  0.87880  0.43218  Biso   1.000  O
  O49      1.0000 0.99790  0.56270  0.55146  Biso   1.000  O
  O50      1.0000 0.07680  0.93080  0.37831  Biso   1.000  O
  O51      1.0000 0.31200  0.75990  0.42050  Biso   1.000  O
  O52      1.0000 0.17190  0.55600  0.52968  Biso   1.000  O
  O53      1.0000 0.14890  0.09030  0.29524  Biso   1.000  O
  H6       1.0000 0.24930  0.05060  0.39000  Biso   1.000  H
  O54      1.0000 0.18740  0.69580  0.58210  Biso   1.000  O
  In7      1.0000 0.14684  0.44030  0.02463  Biso   1.000  In
  P13      1.0000 0.02533  0.19086  0.08317  Biso   1.000  P
  P14      1.0000 0.37058  0.49263  0.95989  Biso   1.000  P
  O55      1.0000 0.96760  0.11120  0.04202  Biso   1.000  O
  O56      1.0000 0.28550  0.42900  0.99838  Biso   1.000  O
  O57      1.0000 0.12120  0.30370  0.06782  Biso   1.000  O
  O58      1.0000 0.43730  0.43520  0.94854  Biso   1.000  O
  O59      1.0000 0.06920  0.14600  0.12169  Biso   1.000  O
  O60      1.0000 0.24010  0.55210  0.07950  Biso   1.000  O
  O61      1.0000 0.44400  0.61590  0.97032  Biso   1.000  O
  O62      1.0000 0.90970  0.05860  0.20476  Biso   1.000  O
  H7       1.0000 0.94940  0.19870  0.11000  Biso   1.000  H
  O63      1.0000 0.30420  0.49160  0.91790  Biso   1.000  O
  In8      1.0000 0.55970  0.70654  0.02463  Biso   1.000  In
  P15      1.0000 0.80914  0.83447  0.08317  Biso   1.000  P
  P16      1.0000 0.50737  0.87795  0.95989  Biso   1.000  P
  O64      1.0000 0.88880  0.85640  0.04202  Biso   1.000  O
  O65      1.0000 0.57100  0.85650  0.99838  Biso   1.000  O
  O66      1.0000 0.69630  0.81750  0.06782  Biso   1.000  O
  O67      1.0000 0.56480  0.00210  0.94854  Biso   1.000  O
  O68      1.0000 0.85400  0.92320  0.12169  Biso   1.000  O
  O69      1.0000 0.44790  0.68800  0.07950  Biso   1.000  O
  O70      1.0000 0.38410  0.82810  0.97032  Biso   1.000  O
  O71      1.0000 0.94140  0.85110  0.20476  Biso   1.000  O
  H8       1.0000 0.80130  0.75070  0.11000  Biso   1.000  H
  O72      1.0000 0.50840  0.81260  0.91790  Biso   1.000  O
  In9      1.0000 0.29346  0.85316  0.02463  Biso   1.000  In
  P17      1.0000 0.16553  0.97467  0.08317  Biso   1.000  P
  P18      1.0000 0.12205  0.62942  0.95989  Biso   1.000  P
  O73      1.0000 0.14360  0.03240  0.04202  Biso   1.000  O
  O74      1.0000 0.14350  0.71450  0.99838  Biso   1.000  O
  O75      1.0000 0.18250  0.87880  0.06782  Biso   1.000  O
  O76      1.0000 0.99790  0.56270  0.94854  Biso   1.000  O
  O77      1.0000 0.07680  0.93080  0.12169  Biso   1.000  O
  O78      1.0000 0.31200  0.75990  0.07950  Biso   1.000  O
  O79      1.0000 0.17190  0.55600  0.97032  Biso   1.000  O
  O80      1.0000 0.14890  0.09030  0.20476  Biso   1.000  O
  H9       1.0000 0.24930  0.05060  0.11000  Biso   1.000  H
  O81      1.0000 0.18740  0.69580  0.91790  Biso   1.000  O
  In10     1.0000 0.85316  0.55970  0.52463  Biso   1.000  In
  P19      1.0000 0.97467  0.80914  0.58317  Biso   1.000  P
  P20      1.0000 0.62942  0.50737  0.45989  Biso   1.000  P
  O82      1.0000 0.03240  0.88880  0.54202  Biso   1.000  O
  O83      1.0000 0.71450  0.57100  0.49838  Biso   1.000  O
  O84      1.0000 0.87880  0.69630  0.56782  Biso   1.000  O
  O85      1.0000 0.56270  0.56480  0.44854  Biso   1.000  O
  O86      1.0000 0.93080  0.85400  0.62169  Biso   1.000  O
  O87      1.0000 0.75990  0.44790  0.57950  Biso   1.000  O
  O88      1.0000 0.55600  0.38410  0.47032  Biso   1.000  O
  O89      1.0000 0.09030  0.94140  0.70476  Biso   1.000  O
  H10      1.0000 0.05060  0.80130  0.61000  Biso   1.000  H
  O90      1.0000 0.69580  0.50840  0.41790  Biso   1.000  O
  In11     1.0000 0.44030  0.29346  0.52463  Biso   1.000  In
  P21      1.0000 0.19086  0.16553  0.58317  Biso   1.000  P
  P22      1.0000 0.49263  0.12205  0.45989  Biso   1.000  P
  O91      1.0000 0.11120  0.14360  0.54202  Biso   1.000  O
  O92      1.0000 0.42900  0.14350  0.49838  Biso   1.000  O
  O93      1.0000 0.30370  0.18250  0.56782  Biso   1.000  O
  O94      1.0000 0.43520  0.99790  0.44854  Biso   1.000  O
  O95      1.0000 0.14600  0.07680  0.62169  Biso   1.000  O
  O96      1.0000 0.55210  0.31200  0.57950  Biso   1.000  O
  O97      1.0000 0.61590  0.17190  0.47032  Biso   1.000  O
  O98      1.0000 0.05860  0.14890  0.70476  Biso   1.000  O
  H11      1.0000 0.19870  0.24930  0.61000  Biso   1.000  H
  O99      1.0000 0.49160  0.18740  0.41790  Biso   1.000  O
  In12     1.0000 0.70654  0.14684  0.52463  Biso   1.000  In
  P23      1.0000 0.83447  0.02533  0.58317  Biso   1.000  P
  P24      1.0000 0.87795  0.37058  0.45989  Biso   1.000  P
  O100     1.0000 0.85640  0.96760  0.54202  Biso   1.000  O
  O101     1.0000 0.85650  0.28550  0.49838  Biso   1.000  O
  O102     1.0000 0.81750  0.12120  0.56782  Biso   1.000  O
  O103     1.0000 0.00210  0.43730  0.44854  Biso   1.000  O
  O104     1.0000 0.92320  0.06920  0.62169  Biso   1.000  O
  O105     1.0000 0.68800  0.24010  0.57950  Biso   1.000  O
  O106     1.0000 0.82810  0.44400  0.47032  Biso   1.000  O
  O107     1.0000 0.85110  0.90970  0.70476  Biso   1.000  O
  H12      1.0000 0.75070  0.94940  0.61000  Biso   1.000  H
  O108     1.0000 0.81260  0.30420  0.41790  Biso   1.000  O
  In13     1.0000 0.00000  0.00000  0.00000  Biso   1.000  In
  In14     1.0000 0.00000  0.00000  0.50000  Biso   1.000  In
  In15     1.0000 0.00000  0.00000  0.83559  Biso   1.000  In
  In16     1.0000 0.00000  0.00000  0.33559  Biso   1.000  In
  In17     1.0000 0.00000  0.00000  0.16441  Biso   1.000  In
  In18     1.0000 0.00000  0.00000  0.66441  Biso   1.000  In
  P25      1.0000 0.66667  0.33333  0.90764  Biso   1.000  P
  H13      1.0000 0.66667  0.33333  0.86060  Biso   1.000  H
  P26      1.0000 0.33333  0.66667  0.40764  Biso   1.000  P
  H14      1.0000 0.33333  0.66667  0.36060  Biso   1.000  H
  P27      1.0000 0.33333  0.66667  0.09236  Biso   1.000  P
  H15      1.0000 0.33333  0.66667  0.13940  Biso   1.000  H
  P28      1.0000 0.66667  0.33333  0.59236  Biso   1.000  P
  H16      1.0000 0.66667  0.33333  0.63940  Biso   1.000  H
  P29      1.0000 0.07277  0.87610  0.75000  Biso   1.000  P
  O109     1.0000 0.15297  0.82800  0.75000  Biso   1.000  O
  O110     1.0000 0.96270  0.77340  0.75000  Biso   1.000  O
  H17      1.0000 0.15170  0.76810  0.75000  Biso   1.000  H
  P30      1.0000 0.12390  0.19667  0.75000  Biso   1.000  P
  O111     1.0000 0.17200  0.32497  0.75000  Biso   1.000  O
  O112     1.0000 0.22660  0.18930  0.75000  Biso   1.000  O
  H18      1.0000 0.23190  0.38360  0.75000  Biso   1.000  H
  P31      1.0000 0.80333  0.92723  0.75000  Biso   1.000  P
  O113     1.0000 0.67503  0.84703  0.75000  Biso   1.000  O
  O114     1.0000 0.81070  0.03730  0.75000  Biso   1.000  O
  H19      1.0000 0.61640  0.84830  0.75000  Biso   1.000  H
  P32      1.0000 0.92723  0.12390  0.25000  Biso   1.000  P
  O115     1.0000 0.84703  0.17200  0.25000  Biso   1.000  O
  O116     1.0000 0.03730  0.22660  0.25000  Biso   1.000  O
  H20      1.0000 0.84830  0.23190  0.25000  Biso   1.000  H
  P33      1.0000 0.87610  0.80333  0.25000  Biso   1.000  P
  O117     1.0000 0.82800  0.67503  0.25000  Biso   1.000  O
  O118     1.0000 0.77340  0.81070  0.25000  Biso   1.000  O
  H21      1.0000 0.76810  0.61640  0.25000  Biso   1.000  H
  P34      1.0000 0.19667  0.07277  0.25000  Biso   1.000  P
  O119     1.0000 0.32497  0.15297  0.25000  Biso   1.000  O
  O120     1.0000 0.18930  0.96270  0.25000  Biso   1.000  O
  H22      1.0000 0.38360  0.15170  0.25000  Biso   1.000  H
