data_LEJRIC_clean
_audit_creation_date              2014-07-02
_audit_creation_method            'Materials Studio'
_symmetry_space_group_name_H-M    'P1'
_symmetry_Int_Tables_number       1
_symmetry_cell_setting            triclinic
loop_
_symmetry_equiv_pos_as_xyz
  x,y,z
_cell_length_a                    6.6882
_cell_length_b                    15.1634
_cell_length_c                    15.1634
_cell_angle_alpha                 62.1230
_cell_angle_beta                  81.5454
_cell_angle_gamma                 98.4546
loop_
_atom_site_label
_atom_site_type_symbol
_atom_site_fract_x
_atom_site_fract_y
_atom_site_fract_z
_atom_site_U_iso_or_equiv
_atom_site_adp_type
_atom_site_occupancy
Ni1    Ni    0.69820   0.31370   0.26900   0.01267  Uiso   1.00
Ni2    Ni    0.96720   0.26900   0.41730   0.01267  Uiso   1.00
Ni3    Ni    0.38450   0.41730   0.31370   0.01267  Uiso   1.00
Ni4    Ni    0.30180   0.68630   0.73100   0.01267  Uiso   1.00
Ni5    Ni    0.03280   0.73100   0.58270   0.01267  Uiso   1.00
Ni6    Ni    0.61550   0.58270   0.68630   0.01267  Uiso   1.00
H1     H     0.64400   0.54200   0.47000   0.01267  Uiso   1.00
H2     H     0.11400   0.47000   0.98800   0.01267  Uiso   1.00
H3     H     0.10200   0.98800   0.54200   0.01267  Uiso   1.00
H4     H     0.35600   0.45800   0.53000   0.01267  Uiso   1.00
H5     H     0.88600   0.53000   0.01200   0.01267  Uiso   1.00
H6     H     0.89800   0.01200   0.45800   0.01267  Uiso   1.00
C1     C     0.75180   0.43110   0.38370   0.01267  Uiso   1.00
C2     C     0.89430   0.46220   0.44630   0.01267  Uiso   1.00
C3     C     0.06990   0.43860   0.46290   0.01267  Uiso   1.00
C4     C     0.82930   0.52810   0.47620   0.01267  Uiso   1.00
C5     C     0.13550   0.38370   0.18520   0.01267  Uiso   1.00
C6     C     0.34060   0.44630   0.09150   0.01267  Uiso   1.00
C7     C     0.53280   0.46290   0.09850   0.01267  Uiso   1.00
C8     C     0.30550   0.47620   0.99570   0.01267  Uiso   1.00
C9     C     0.32070   0.18520   0.43110   0.01267  Uiso   1.00
C10    C     0.43210   0.09150   0.46220   0.01267  Uiso   1.00
C11    C     0.63130   0.09850   0.43860   0.01267  Uiso   1.00
C12    C     0.30120   0.99570   0.52810   0.01267  Uiso   1.00
C13    C     0.24820   0.56890   0.61630   0.01267  Uiso   1.00
C14    C     0.10570   0.53780   0.55370   0.01267  Uiso   1.00
C15    C     0.93010   0.56140   0.53710   0.01267  Uiso   1.00
C16    C     0.17070   0.47190   0.52380   0.01267  Uiso   1.00
C17    C     0.86450   0.61630   0.81480   0.01267  Uiso   1.00
C18    C     0.65940   0.55370   0.90850   0.01267  Uiso   1.00
C19    C     0.46720   0.53710   0.90150   0.01267  Uiso   1.00
C20    C     0.69450   0.52380   0.00430   0.01267  Uiso   1.00
C21    C     0.67930   0.81480   0.56890   0.01267  Uiso   1.00
C22    C     0.56790   0.90850   0.53780   0.01267  Uiso   1.00
C23    C     0.36870   0.90150   0.56140   0.01267  Uiso   1.00
C24    C     0.69880   0.00430   0.47190   0.01267  Uiso   1.00
O1     O     0.59430   0.47430   0.37140   0.01267  Uiso   1.00
O2     O     0.80750   0.37860   0.35310   0.01267  Uiso   1.00
O3     O     0.14720   0.36930   0.44070   0.01267  Uiso   1.00
O4     O     0.96570   0.37140   0.15430   0.01267  Uiso   1.00
O5     O     0.16060   0.35310   0.26830   0.01267  Uiso   1.00
O6     O     0.58790   0.44070   0.19000   0.01267  Uiso   1.00
O7     O     0.12000   0.15430   0.47430   0.01267  Uiso   1.00
O8     O     0.42890   0.26830   0.37860   0.01267  Uiso   1.00
O9     O     0.77790   0.19000   0.36930   0.01267  Uiso   1.00
O10    O     0.40570   0.52570   0.62860   0.01267  Uiso   1.00
O11    O     0.19250   0.62140   0.64690   0.01267  Uiso   1.00
O12    O     0.85280   0.63070   0.55930   0.01267  Uiso   1.00
O13    O     0.03430   0.62860   0.84570   0.01267  Uiso   1.00
O14    O     0.83940   0.64690   0.73170   0.01267  Uiso   1.00
O15    O     0.41210   0.55930   0.81000   0.01267  Uiso   1.00
O16    O     0.88000   0.84570   0.52570   0.01267  Uiso   1.00
O17    O     0.57110   0.73170   0.62140   0.01267  Uiso   1.00
O18    O     0.22210   0.81000   0.63070   0.01267  Uiso   1.00
