data_image0
_cell_length_a       6.0078
_cell_length_b       16.9401
_cell_length_c       13.0061
_cell_angle_alpha    90
_cell_angle_beta     116.158
_cell_angle_gamma    90

_symmetry_space_group_name_H-M    "P 1"
_symmetry_int_tables_number       1

loop_
  _symmetry_equiv_pos_as_xyz
  'x, y, z'

loop_
  _atom_site_label
  _atom_site_occupancy
  _atom_site_fract_x
  _atom_site_fract_y
  _atom_site_fract_z
  _atom_site_thermal_displace_type
  _atom_site_B_iso_or_equiv
  _atom_site_type_symbol
  Sr1      1.0000 0.81786  0.49947  0.59430  Biso   1.000  Sr
  S1       1.0000 0.40700  0.24147  0.29953  Biso   1.000  S
  O1       1.0000 0.17860  0.09262  0.18845  Biso   1.000  O
  O2       1.0000 0.44810  0.06210  0.11886  Biso   1.000  O
  O3       1.0000 0.51560  0.39432  0.42877  Biso   1.000  O
  O4       1.0000 0.88100  0.41452  0.43023  Biso   1.000  O
  C1       1.0000 0.68180  0.37694  0.39900  Biso   1.000  C
  C2       1.0000 0.64700  0.30611  0.32670  Biso   1.000  C
  C3       1.0000 0.79090  0.28169  0.27580  Biso   1.000  C
  H1       1.0000 0.92930  0.30920  0.28070  Biso   1.000  H
  C4       1.0000 0.70750  0.21037  0.21490  Biso   1.000  C
  H2       1.0000 0.78470  0.18600  0.17520  Biso   1.000  H
  C5       1.0000 0.50160  0.18086  0.22040  Biso   1.000  C
  C6       1.0000 0.36450  0.10591  0.17150  Biso   1.000  C
  Sr2      1.0000 0.18214  0.99947  0.90570  Biso   1.000  Sr
  S2       1.0000 0.59300  0.74147  0.20047  Biso   1.000  S
  O5       1.0000 0.82140  0.59262  0.31155  Biso   1.000  O
  O6       1.0000 0.55190  0.56210  0.38114  Biso   1.000  O
  O7       1.0000 0.48440  0.89432  0.07123  Biso   1.000  O
  O8       1.0000 0.11900  0.91452  0.06977  Biso   1.000  O
  C7       1.0000 0.31820  0.87694  0.10100  Biso   1.000  C
  C8       1.0000 0.35300  0.80611  0.17330  Biso   1.000  C
  C9       1.0000 0.20910  0.78169  0.22420  Biso   1.000  C
  H3       1.0000 0.07070  0.80920  0.21930  Biso   1.000  H
  C10      1.0000 0.29250  0.71037  0.28510  Biso   1.000  C
  H4       1.0000 0.21530  0.68600  0.32480  Biso   1.000  H
  C11      1.0000 0.49840  0.68086  0.27960  Biso   1.000  C
  C12      1.0000 0.63550  0.60591  0.32850  Biso   1.000  C
  Sr3      1.0000 0.18214  0.50053  0.40570  Biso   1.000  Sr
  S3       1.0000 0.59300  0.75853  0.70047  Biso   1.000  S
  O9       1.0000 0.82140  0.90738  0.81155  Biso   1.000  O
  O10      1.0000 0.55190  0.93790  0.88114  Biso   1.000  O
  O11      1.0000 0.48440  0.60568  0.57123  Biso   1.000  O
  O12      1.0000 0.11900  0.58548  0.56977  Biso   1.000  O
  C13      1.0000 0.31820  0.62306  0.60100  Biso   1.000  C
  C14      1.0000 0.35300  0.69389  0.67330  Biso   1.000  C
  C15      1.0000 0.20910  0.71831  0.72420  Biso   1.000  C
  H5       1.0000 0.07070  0.69080  0.71930  Biso   1.000  H
  C16      1.0000 0.29250  0.78963  0.78510  Biso   1.000  C
  H6       1.0000 0.21530  0.81400  0.82480  Biso   1.000  H
  C17      1.0000 0.49840  0.81914  0.77960  Biso   1.000  C
  C18      1.0000 0.63550  0.89409  0.82850  Biso   1.000  C
  Sr4      1.0000 0.81786  0.00053  0.09430  Biso   1.000  Sr
  S4       1.0000 0.40700  0.25853  0.79953  Biso   1.000  S
  O13      1.0000 0.17860  0.40738  0.68845  Biso   1.000  O
  O14      1.0000 0.44810  0.43790  0.61886  Biso   1.000  O
  O15      1.0000 0.51560  0.10568  0.92877  Biso   1.000  O
  O16      1.0000 0.88100  0.08548  0.93023  Biso   1.000  O
  C19      1.0000 0.68180  0.12306  0.89900  Biso   1.000  C
  C20      1.0000 0.64700  0.19389  0.82670  Biso   1.000  C
  C21      1.0000 0.79090  0.21831  0.77580  Biso   1.000  C
  H7       1.0000 0.92930  0.19080  0.78070  Biso   1.000  H
  C22      1.0000 0.70750  0.28963  0.71490  Biso   1.000  C
  H8       1.0000 0.78470  0.31400  0.67520  Biso   1.000  H
  C23      1.0000 0.50160  0.31914  0.72040  Biso   1.000  C
  C24      1.0000 0.36450  0.39409  0.67150  Biso   1.000  C
