data_LELRUR_clean
_audit_creation_date              2014-07-02
_audit_creation_method            'Materials Studio'
_symmetry_space_group_name_H-M    'P1'
_symmetry_Int_Tables_number       1
_symmetry_cell_setting            triclinic
loop_
_symmetry_equiv_pos_as_xyz
  x,y,z
_cell_length_a                    14.7879
_cell_length_b                    14.7879
_cell_length_c                    27.9057
_cell_angle_alpha                 79.6516
_cell_angle_beta                  74.9658
_cell_angle_gamma                 99.8765
loop_
_atom_site_label
_atom_site_type_symbol
_atom_site_fract_x
_atom_site_fract_y
_atom_site_fract_z
_atom_site_U_iso_or_equiv
_atom_site_adp_type
_atom_site_occupancy
La1    La    0.60845   0.87391   0.99676   0.01267  Uiso   1.00
La2    La    0.37067   0.60521   0.50324   0.01267  Uiso   1.00
La3    La    0.39155   0.12609   0.00324   0.01267  Uiso   1.00
La4    La    0.62933   0.39479   0.49676   0.01267  Uiso   1.00
P1     P     0.63900   0.72937   0.89877   0.01267  Uiso   1.00
P2     P     0.83833   0.43227   0.55602   0.01267  Uiso   1.00
P3     P     0.41587   0.86075   0.52228   0.01267  Uiso   1.00
P4     P     0.64679   0.64873   0.45812   0.01267  Uiso   1.00
P5     P     0.12814   0.53777   0.60123   0.01267  Uiso   1.00
P6     P     0.48829   0.39435   0.94398   0.01267  Uiso   1.00
P7     P     0.88303   0.93815   0.97772   0.01267  Uiso   1.00
P8     P     0.60685   0.10491   0.04188   0.01267  Uiso   1.00
P9     P     0.36100   0.27063   0.10123   0.01267  Uiso   1.00
P10    P     0.16167   0.56773   0.44398   0.01267  Uiso   1.00
P11    P     0.58413   0.13925   0.47772   0.01267  Uiso   1.00
P12    P     0.35321   0.35127   0.54188   0.01267  Uiso   1.00
P13    P     0.87186   0.46223   0.39877   0.01267  Uiso   1.00
P14    P     0.51171   0.60565   0.05602   0.01267  Uiso   1.00
P15    P     0.11697   0.06185   0.02228   0.01267  Uiso   1.00
P16    P     0.39315   0.89509   0.95812   0.01267  Uiso   1.00
H1     H     0.79050   0.89090   0.83640   0.01267  Uiso   1.00
H2     H     0.88090   0.93810   0.75220   0.01267  Uiso   1.00
H3     H     0.69630   0.73800   0.72070   0.01267  Uiso   1.00
H4     H     0.77460   0.98920   0.66260   0.01267  Uiso   1.00
H5     H     0.87250   0.02440   0.67530   0.01267  Uiso   1.00
H6     H     0.87720   0.99540   0.53100   0.01267  Uiso   1.00
H7     H     0.77730   0.97140   0.57570   0.01267  Uiso   1.00
H8     H     0.73500   0.82630   0.64730   0.01267  Uiso   1.00
H9     H     0.80910   0.75920   0.64890   0.01267  Uiso   1.00
H10    H     0.03120   0.06030   0.60570   0.01267  Uiso   1.00
H11    H     0.03220   0.04860   0.54960   0.01267  Uiso   1.00
H12    H     0.99140   0.88580   0.53420   0.01267  Uiso   1.00
H13    H     0.96290   0.79520   0.58090   0.01267  Uiso   1.00
H14    H     0.98800   0.92050   0.67710   0.01267  Uiso   1.00
H15    H     0.96340   0.81630   0.66810   0.01267  Uiso   1.00
H16    H     0.95440   0.17890   0.63170   0.01267  Uiso   1.00
H17    H     0.93440   0.33050   0.61590   0.01267  Uiso   1.00
H18    H     0.80530   0.27330   0.51180   0.01267  Uiso   1.00
H19    H     0.82630   0.12230   0.52720   0.01267  Uiso   1.00
H20    H     0.67340   0.83990   0.57690   0.01267  Uiso   1.00
H21    H     0.59520   0.76050   0.52970   0.01267  Uiso   1.00
H22    H     0.83700   0.67220   0.47220   0.01267  Uiso   1.00
H23    H     0.91230   0.75430   0.51880   0.01267  Uiso   1.00
H24    H     0.18080   0.04810   0.55230   0.01267  Uiso   1.00
H25    H     0.33590   0.02560   0.52030   0.01267  Uiso   1.00
H26    H     0.23730   0.74970   0.58660   0.01267  Uiso   1.00
H27    H     0.08460   0.76990   0.61750   0.01267  Uiso   1.00
H28    H     0.22730   0.62690   0.66360   0.01267  Uiso   1.00
H29    H     0.19030   0.63310   0.74780   0.01267  Uiso   1.00
H30    H     0.95870   0.41700   0.77930   0.01267  Uiso   1.00
H31    H     0.15180   0.43720   0.83740   0.01267  Uiso   1.00
H32    H     0.19970   0.54780   0.82470   0.01267  Uiso   1.00
H33    H     0.02640   0.40820   0.96900   0.01267  Uiso   1.00
H34    H     0.04710   0.35300   0.92430   0.01267  Uiso   1.00
H35    H     0.97360   0.38230   0.85270   0.01267  Uiso   1.00
H36    H     0.90810   0.45800   0.85110   0.01267  Uiso   1.00
H37    H     0.16600   0.63690   0.89430   0.01267  Uiso   1.00
H38    H     0.09820   0.58180   0.95040   0.01267  Uiso   1.00
H39    H     0.92000   0.52560   0.96580   0.01267  Uiso   1.00
H40    H     0.87610   0.54380   0.91910   0.01267  Uiso   1.00
H41    H     0.09760   0.66510   0.82290   0.01267  Uiso   1.00
H42    H     0.98440   0.63150   0.83190   0.01267  Uiso   1.00
H43    H     0.31060   0.58610   0.86830   0.01267  Uiso   1.00
H44    H     0.44640   0.55030   0.88410   0.01267  Uiso   1.00
H45    H     0.28510   0.31710   0.98820   0.01267  Uiso   1.00
H46    H     0.14950   0.35350   0.97280   0.01267  Uiso   1.00
H47    H     0.91680   0.25030   0.92310   0.01267  Uiso   1.00
H48    H     0.79020   0.12490   0.97030   0.01267  Uiso   1.00
H49    H     0.64440   0.30920   0.02780   0.01267  Uiso   1.00
H50    H     0.77310   0.43110   0.98120   0.01267  Uiso   1.00
H51    H     0.10040   0.73310   0.94770   0.01267  Uiso   1.00
H52    H     0.04590   0.85620   0.97970   0.01267  Uiso   1.00
H53    H     0.83630   0.82390   0.91340   0.01267  Uiso   1.00
H54    H     0.88740   0.70210   0.88250   0.01267  Uiso   1.00
H55    H     0.20950   0.10910   0.16360   0.01267  Uiso   1.00
H56    H     0.11910   0.06190   0.24780   0.01267  Uiso   1.00
H57    H     0.30370   0.26200   0.27930   0.01267  Uiso   1.00
H58    H     0.22540   0.01080   0.33740   0.01267  Uiso   1.00
H59    H     0.12750   0.97560   0.32470   0.01267  Uiso   1.00
H60    H     0.12280   0.00460   0.46900   0.01267  Uiso   1.00
H61    H     0.22270   0.02860   0.42430   0.01267  Uiso   1.00
H62    H     0.26500   0.17370   0.35270   0.01267  Uiso   1.00
H63    H     0.19090   0.24080   0.35110   0.01267  Uiso   1.00
H64    H     0.96880   0.93970   0.39430   0.01267  Uiso   1.00
H65    H     0.96780   0.95140   0.45040   0.01267  Uiso   1.00
H66    H     0.00860   0.11420   0.46580   0.01267  Uiso   1.00
H67    H     0.03710   0.20480   0.41910   0.01267  Uiso   1.00
H68    H     0.01200   0.07950   0.32290   0.01267  Uiso   1.00
H69    H     0.03660   0.18370   0.33190   0.01267  Uiso   1.00
H70    H     0.04560   0.82110   0.36830   0.01267  Uiso   1.00
H71    H     0.06560   0.66950   0.38410   0.01267  Uiso   1.00
H72    H     0.19470   0.72670   0.48820   0.01267  Uiso   1.00
H73    H     0.17370   0.87770   0.47280   0.01267  Uiso   1.00
H74    H     0.32660   0.16010   0.42310   0.01267  Uiso   1.00
H75    H     0.40480   0.23950   0.47030   0.01267  Uiso   1.00
H76    H     0.16300   0.32780   0.52780   0.01267  Uiso   1.00
H77    H     0.08770   0.24570   0.48120   0.01267  Uiso   1.00
H78    H     0.81920   0.95190   0.44770   0.01267  Uiso   1.00
H79    H     0.66410   0.97440   0.47970   0.01267  Uiso   1.00
H80    H     0.76270   0.25030   0.41340   0.01267  Uiso   1.00
H81    H     0.91540   0.23010   0.38250   0.01267  Uiso   1.00
H82    H     0.77270   0.37310   0.33640   0.01267  Uiso   1.00
H83    H     0.80970   0.36690   0.25220   0.01267  Uiso   1.00
H84    H     0.04130   0.58300   0.22070   0.01267  Uiso   1.00
H85    H     0.84820   0.56280   0.16260   0.01267  Uiso   1.00
H86    H     0.80030   0.45220   0.17530   0.01267  Uiso   1.00
H87    H     0.97360   0.59180   0.03100   0.01267  Uiso   1.00
H88    H     0.95290   0.64700   0.07570   0.01267  Uiso   1.00
H89    H     0.02640   0.61770   0.14730   0.01267  Uiso   1.00
H90    H     0.09190   0.54200   0.14890   0.01267  Uiso   1.00
H91    H     0.83400   0.36310   0.10570   0.01267  Uiso   1.00
H92    H     0.90180   0.41820   0.04960   0.01267  Uiso   1.00
H93    H     0.08000   0.47440   0.03420   0.01267  Uiso   1.00
H94    H     0.12390   0.45620   0.08090   0.01267  Uiso   1.00
H95    H     0.90240   0.33490   0.17710   0.01267  Uiso   1.00
H96    H     0.01560   0.36850   0.16810   0.01267  Uiso   1.00
H97    H     0.68940   0.41390   0.13170   0.01267  Uiso   1.00
H98    H     0.55360   0.44970   0.11590   0.01267  Uiso   1.00
H99    H     0.71490   0.68290   0.01180   0.01267  Uiso   1.00
H100   H     0.85050   0.64650   0.02720   0.01267  Uiso   1.00
H101   H     0.08320   0.74970   0.07690   0.01267  Uiso   1.00
H102   H     0.20980   0.87510   0.02970   0.01267  Uiso   1.00
H103   H     0.35560   0.69080   0.97220   0.01267  Uiso   1.00
H104   H     0.22690   0.56890   0.01880   0.01267  Uiso   1.00
H105   H     0.89960   0.26690   0.05230   0.01267  Uiso   1.00
H106   H     0.95410   0.14380   0.02030   0.01267  Uiso   1.00
H107   H     0.16370   0.17610   0.08660   0.01267  Uiso   1.00
H108   H     0.11260   0.29790   0.11750   0.01267  Uiso   1.00
C1     C     0.70490   0.77160   0.83290   0.01267  Uiso   1.00
C2     C     0.77620   0.85460   0.81340   0.01267  Uiso   1.00
C3     C     0.82670   0.88640   0.76290   0.01267  Uiso   1.00
C4     C     0.71810   0.76730   0.74460   0.01267  Uiso   1.00
C5     C     0.67010   0.73490   0.79680   0.01267  Uiso   1.00
C6     C     0.79930   0.84360   0.72750   0.01267  Uiso   1.00
C7     C     0.85040   0.88350   0.67070   0.01267  Uiso   1.00
C8     C     0.84330   0.98650   0.65500   0.01267  Uiso   1.00
C9     C     0.89430   0.02880   0.59810   0.01267  Uiso   1.00
C10    C     0.84600   0.96880   0.56800   0.01267  Uiso   1.00
C11    C     0.85320   0.86510   0.58170   0.01267  Uiso   1.00
C12    C     0.80420   0.82550   0.63930   0.01267  Uiso   1.00
C13    C     0.99900   0.02210   0.58650   0.01267  Uiso   1.00
C14    C     0.95820   0.86160   0.57120   0.01267  Uiso   1.00
C15    C     0.95700   0.88190   0.65770   0.01267  Uiso   1.00
C16    C     0.00820   0.92020   0.60080   0.01267  Uiso   1.00
C17    C     0.88460   0.13100   0.58380   0.01267  Uiso   1.00
C18    C     0.92090   0.19720   0.60810   0.01267  Uiso   1.00
C19    C     0.90920   0.28730   0.59870   0.01267  Uiso   1.00
C20    C     0.86190   0.31700   0.56470   0.01267  Uiso   1.00
C21    C     0.83380   0.25360   0.53760   0.01267  Uiso   1.00
C22    C     0.84580   0.16360   0.54700   0.01267  Uiso   1.00
C23    C     0.80300   0.80820   0.55180   0.01267  Uiso   1.00
C24    C     0.70740   0.80700   0.55480   0.01267  Uiso   1.00
C25    C     0.66060   0.75960   0.52660   0.01267  Uiso   1.00
C26    C     0.70720   0.71110   0.49410   0.01267  Uiso   1.00
C27    C     0.80360   0.70800   0.49260   0.01267  Uiso   1.00
C28    C     0.84760   0.75650   0.52070   0.01267  Uiso   1.00
C29    C     0.11440   0.91180   0.58720   0.01267  Uiso   1.00
C30    C     0.19140   0.98610   0.55890   0.01267  Uiso   1.00
C31    C     0.28460   0.97310   0.53970   0.01267  Uiso   1.00
C32    C     0.30100   0.88500   0.54900   0.01267  Uiso   1.00
C33    C     0.22540   0.81100   0.57880   0.01267  Uiso   1.00
C34    C     0.13460   0.82280   0.59740   0.01267  Uiso   1.00
C35    C     0.10450   0.53780   0.66710   0.01267  Uiso   1.00
C36    C     0.16800   0.58960   0.68660   0.01267  Uiso   1.00
C37    C     0.14930   0.58960   0.73710   0.01267  Uiso   1.00
C38    C     0.01190   0.46270   0.75540   0.01267  Uiso   1.00
C39    C     0.03170   0.46690   0.70320   0.01267  Uiso   1.00
C40    C     0.07110   0.52680   0.77250   0.01267  Uiso   1.00
C41    C     0.05420   0.52110   0.82930   0.01267  Uiso   1.00
C42    C     0.14150   0.49830   0.84500   0.01267  Uiso   1.00
C43    C     0.12690   0.49240   0.90190   0.01267  Uiso   1.00
C44    C     0.03680   0.41400   0.93200   0.01267  Uiso   1.00
C45    C     0.94680   0.43490   0.91830   0.01267  Uiso   1.00
C46    C     0.96480   0.44350   0.86070   0.01267  Uiso   1.00
C47    C     0.10860   0.58550   0.91350   0.01267  Uiso   1.00
C48    C     0.93280   0.52940   0.92880   0.01267  Uiso   1.00
C49    C     0.03960   0.61470   0.84230   0.01267  Uiso   1.00
C50    C     0.02100   0.60900   0.89920   0.01267  Uiso   1.00
C51    C     0.21480   0.46840   0.91620   0.01267  Uiso   1.00
C52    C     0.30530   0.52900   0.89190   0.01267  Uiso   1.00
C53    C     0.38600   0.50790   0.90130   0.01267  Uiso   1.00
C54    C     0.38170   0.42660   0.93530   0.01267  Uiso   1.00
C55    C     0.29120   0.37140   0.96240   0.01267  Uiso   1.00
C56    C     0.21060   0.39280   0.95300   0.01267  Uiso   1.00
C57    C     0.86000   0.35480   0.94820   0.01267  Uiso   1.00
C58    C     0.86180   0.26220   0.94520   0.01267  Uiso   1.00
C59    C     0.78620   0.18720   0.97340   0.01267  Uiso   1.00
C60    C     0.70520   0.20130   0.00590   0.01267  Uiso   1.00
C61    C     0.70060   0.29620   0.00740   0.01267  Uiso   1.00
C62    C     0.77720   0.36830   0.97930   0.01267  Uiso   1.00
C63    C     0.99900   0.70160   0.91280   0.01267  Uiso   1.00
C64    C     0.04500   0.75030   0.94110   0.01267  Uiso   1.00
C65    C     0.01280   0.82430   0.96030   0.01267  Uiso   1.00
C66    C     0.93400   0.85000   0.95100   0.01267  Uiso   1.00
C67    C     0.88980   0.80420   0.92120   0.01267  Uiso   1.00
C68    C     0.92020   0.73200   0.90260   0.01267  Uiso   1.00
C69    C     0.29510   0.22840   0.16710   0.01267  Uiso   1.00
C70    C     0.22380   0.14540   0.18660   0.01267  Uiso   1.00
C71    C     0.17330   0.11360   0.23710   0.01267  Uiso   1.00
C72    C     0.28190   0.23270   0.25540   0.01267  Uiso   1.00
C73    C     0.32990   0.26510   0.20320   0.01267  Uiso   1.00
C74    C     0.20070   0.15640   0.27250   0.01267  Uiso   1.00
C75    C     0.14960   0.11650   0.32930   0.01267  Uiso   1.00
C76    C     0.15670   0.01350   0.34500   0.01267  Uiso   1.00
C77    C     0.10570   0.97120   0.40190   0.01267  Uiso   1.00
C78    C     0.15400   0.03120   0.43200   0.01267  Uiso   1.00
C79    C     0.14680   0.13490   0.41830   0.01267  Uiso   1.00
C80    C     0.19580   0.17450   0.36070   0.01267  Uiso   1.00
C81    C     0.00100   0.97790   0.41350   0.01267  Uiso   1.00
C82    C     0.04180   0.13840   0.42880   0.01267  Uiso   1.00
C83    C     0.04300   0.11810   0.34230   0.01267  Uiso   1.00
C84    C     0.99180   0.07980   0.39920   0.01267  Uiso   1.00
C85    C     0.11540   0.86900   0.41620   0.01267  Uiso   1.00
C86    C     0.07910   0.80280   0.39190   0.01267  Uiso   1.00
C87    C     0.09080   0.71270   0.40130   0.01267  Uiso   1.00
C88    C     0.13810   0.68300   0.43530   0.01267  Uiso   1.00
C89    C     0.16620   0.74640   0.46240   0.01267  Uiso   1.00
C90    C     0.15420   0.83640   0.45300   0.01267  Uiso   1.00
C91    C     0.19700   0.19180   0.44820   0.01267  Uiso   1.00
C92    C     0.29260   0.19300   0.44520   0.01267  Uiso   1.00
C93    C     0.33940   0.24040   0.47340   0.01267  Uiso   1.00
C94    C     0.29280   0.28890   0.50590   0.01267  Uiso   1.00
C95    C     0.19640   0.29200   0.50740   0.01267  Uiso   1.00
C96    C     0.15240   0.24350   0.47930   0.01267  Uiso   1.00
C97    C     0.88560   0.08820   0.41280   0.01267  Uiso   1.00
C98    C     0.80860   0.01390   0.44110   0.01267  Uiso   1.00
C99    C     0.71540   0.02690   0.46030   0.01267  Uiso   1.00
C100   C     0.69900   0.11500   0.45100   0.01267  Uiso   1.00
C101   C     0.77460   0.18900   0.42120   0.01267  Uiso   1.00
C102   C     0.86540   0.17720   0.40260   0.01267  Uiso   1.00
C103   C     0.89550   0.46220   0.33290   0.01267  Uiso   1.00
C104   C     0.83200   0.41040   0.31340   0.01267  Uiso   1.00
C105   C     0.85070   0.41040   0.26290   0.01267  Uiso   1.00
C106   C     0.98810   0.53730   0.24460   0.01267  Uiso   1.00
C107   C     0.96830   0.53310   0.29680   0.01267  Uiso   1.00
C108   C     0.92890   0.47320   0.22750   0.01267  Uiso   1.00
C109   C     0.94580   0.47890   0.17070   0.01267  Uiso   1.00
C110   C     0.85850   0.50170   0.15500   0.01267  Uiso   1.00
C111   C     0.87310   0.50760   0.09810   0.01267  Uiso   1.00
C112   C     0.96320   0.58600   0.06800   0.01267  Uiso   1.00
C113   C     0.05320   0.56510   0.08170   0.01267  Uiso   1.00
C114   C     0.03520   0.55650   0.13930   0.01267  Uiso   1.00
C115   C     0.89140   0.41450   0.08650   0.01267  Uiso   1.00
C116   C     0.06720   0.47060   0.07120   0.01267  Uiso   1.00
C117   C     0.96040   0.38530   0.15770   0.01267  Uiso   1.00
C118   C     0.97900   0.39100   0.10080   0.01267  Uiso   1.00
C119   C     0.78520   0.53160   0.08380   0.01267  Uiso   1.00
C120   C     0.69470   0.47100   0.10810   0.01267  Uiso   1.00
C121   C     0.61400   0.49210   0.09870   0.01267  Uiso   1.00
C122   C     0.61830   0.57340   0.06470   0.01267  Uiso   1.00
C123   C     0.70880   0.62860   0.03760   0.01267  Uiso   1.00
C124   C     0.78940   0.60720   0.04700   0.01267  Uiso   1.00
C125   C     0.14000   0.64520   0.05180   0.01267  Uiso   1.00
C126   C     0.13820   0.73780   0.05480   0.01267  Uiso   1.00
C127   C     0.21380   0.81280   0.02660   0.01267  Uiso   1.00
C128   C     0.29480   0.79870   0.99410   0.01267  Uiso   1.00
C129   C     0.29940   0.70380   0.99260   0.01267  Uiso   1.00
C130   C     0.22280   0.63170   0.02070   0.01267  Uiso   1.00
C131   C     0.00100   0.29840   0.08720   0.01267  Uiso   1.00
C132   C     0.95500   0.24970   0.05890   0.01267  Uiso   1.00
C133   C     0.98720   0.17570   0.03970   0.01267  Uiso   1.00
C134   C     0.06600   0.15000   0.04900   0.01267  Uiso   1.00
C135   C     0.11020   0.19580   0.07880   0.01267  Uiso   1.00
C136   C     0.07980   0.26800   0.09740   0.01267  Uiso   1.00
O1     O     0.66820   0.79390   0.92890   0.01267  Uiso   1.00
O2     O     0.65720   0.62540   0.91300   0.01267  Uiso   1.00
O3     O     0.52990   0.72050   0.90380   0.01267  Uiso   1.00
O4     O     0.76260   0.43510   0.53370   0.01267  Uiso   1.00
O5     O     0.92910   0.50480   0.52830   0.01267  Uiso   1.00
O6     O     0.80710   0.45330   0.61060   0.01267  Uiso   1.00
O7     O     0.40390   0.76020   0.52170   0.01267  Uiso   1.00
O8     O     0.48120   0.89140   0.55360   0.01267  Uiso   1.00
O9     O     0.46280   0.92720   0.46700   0.01267  Uiso   1.00
O10    O     0.54310   0.62770   0.48180   0.01267  Uiso   1.00
O11    O     0.67260   0.71890   0.40410   0.01267  Uiso   1.00
O12    O     0.68850   0.56550   0.44940   0.01267  Uiso   1.00
O13    O     0.22280   0.59710   0.57110   0.01267  Uiso   1.00
O14    O     0.03840   0.57020   0.58700   0.01267  Uiso   1.00
O15    O     0.12430   0.43370   0.59620   0.01267  Uiso   1.00
O16    O     0.46880   0.29630   0.96630   0.01267  Uiso   1.00
O17    O     0.53310   0.45740   0.97170   0.01267  Uiso   1.00
O18    O     0.56390   0.41770   0.88940   0.01267  Uiso   1.00
O19    O     0.78190   0.92560   0.97830   0.01267  Uiso   1.00
O20    O     0.94500   0.03480   0.94640   0.01267  Uiso   1.00
O21    O     0.89420   0.92980   0.03300   0.01267  Uiso   1.00
O22    O     0.60950   0.02490   0.01820   0.01267  Uiso   1.00
O23    O     0.62300   0.07670   0.09590   0.01267  Uiso   1.00
O24    O     0.51490   0.13790   0.05060   0.01267  Uiso   1.00
O25    O     0.33180   0.20610   0.07110   0.01267  Uiso   1.00
O26    O     0.34280   0.37460   0.08700   0.01267  Uiso   1.00
O27    O     0.47010   0.27950   0.09620   0.01267  Uiso   1.00
O28    O     0.23740   0.56490   0.46630   0.01267  Uiso   1.00
O29    O     0.07090   0.49520   0.47170   0.01267  Uiso   1.00
O30    O     0.19290   0.54670   0.38940   0.01267  Uiso   1.00
O31    O     0.59610   0.23980   0.47830   0.01267  Uiso   1.00
O32    O     0.51880   0.10860   0.44640   0.01267  Uiso   1.00
O33    O     0.53720   0.07280   0.53300   0.01267  Uiso   1.00
O34    O     0.45690   0.37230   0.51820   0.01267  Uiso   1.00
O35    O     0.32740   0.28110   0.59590   0.01267  Uiso   1.00
O36    O     0.31150   0.43450   0.55060   0.01267  Uiso   1.00
O37    O     0.77720   0.40290   0.42890   0.01267  Uiso   1.00
O38    O     0.96160   0.42980   0.41300   0.01267  Uiso   1.00
O39    O     0.87570   0.56630   0.40380   0.01267  Uiso   1.00
O40    O     0.53120   0.70370   0.03370   0.01267  Uiso   1.00
O41    O     0.46690   0.54260   0.02830   0.01267  Uiso   1.00
O42    O     0.43610   0.58230   0.11060   0.01267  Uiso   1.00
O43    O     0.21810   0.07440   0.02170   0.01267  Uiso   1.00
O44    O     0.05500   0.96520   0.05360   0.01267  Uiso   1.00
O45    O     0.10580   0.07020   0.96700   0.01267  Uiso   1.00
O46    O     0.39050   0.97510   0.98180   0.01267  Uiso   1.00
O47    O     0.37700   0.92330   0.90410   0.01267  Uiso   1.00
O48    O     0.48510   0.86210   0.94940   0.01267  Uiso   1.00
