data_LELROL_clean
_audit_creation_date              2014-07-02
_audit_creation_method            'Materials Studio'
_symmetry_space_group_name_H-M    'P1'
_symmetry_Int_Tables_number       1
_symmetry_cell_setting            triclinic
loop_
_symmetry_equiv_pos_as_xyz
  x,y,z
_cell_length_a                    17.4047
_cell_length_b                    17.9892
_cell_length_c                    26.9430
_cell_angle_alpha                 90.0000
_cell_angle_beta                  90.0000
_cell_angle_gamma                 106.9410
loop_
_atom_site_label
_atom_site_type_symbol
_atom_site_fract_x
_atom_site_fract_y
_atom_site_fract_z
_atom_site_U_iso_or_equiv
_atom_site_adp_type
_atom_site_occupancy
Mn1    Mn    0.32638   0.05275   0.12117   0.01267  Uiso   1.00
Mn2    Mn    0.11245   0.02908   0.12949   0.01267  Uiso   1.00
Mn3    Mn    0.67362   0.44725   0.62117   0.01267  Uiso   1.00
Mn4    Mn    0.88755   0.47092   0.62949   0.01267  Uiso   1.00
Mn5    Mn    0.67362   0.94725   0.87883   0.01267  Uiso   1.00
Mn6    Mn    0.88755   0.97092   0.87051   0.01267  Uiso   1.00
Mn7    Mn    0.32638   0.55275   0.37883   0.01267  Uiso   1.00
Mn8    Mn    0.11245   0.52908   0.37051   0.01267  Uiso   1.00
Mn9    Mn    0.00000   0.00000   0.00000   0.01267  Uiso   1.00
Mn10   Mn    0.00000   0.50000   0.50000   0.01267  Uiso   1.00
H1     H     0.36280   0.15910   0.76210   0.01267  Uiso   1.00
H2     H     0.37300   0.07340   0.76240   0.01267  Uiso   1.00
H3     H     0.30360   0.15920   0.63270   0.01267  Uiso   1.00
H4     H     0.31960   0.21250   0.68140   0.01267  Uiso   1.00
H5     H     0.18130   0.04140   0.62810   0.01267  Uiso   1.00
H6     H     0.12180   0.01910   0.67460   0.01267  Uiso   1.00
H7     H     0.25240   0.95710   0.75650   0.01267  Uiso   1.00
H8     H     0.16440   0.96750   0.75200   0.01267  Uiso   1.00
H9     H     0.32210   0.02670   0.63460   0.01267  Uiso   1.00
H10    H     0.34890   0.99320   0.68470   0.01267  Uiso   1.00
H11    H     0.22430   0.17700   0.75430   0.01267  Uiso   1.00
H12    H     0.14690   0.10270   0.75110   0.01267  Uiso   1.00
H13    H     0.12200   0.01930   0.81950   0.01267  Uiso   1.00
H14    H     0.10300   0.00640   0.90380   0.01267  Uiso   1.00
H15    H     0.34090   0.10850   0.92490   0.01267  Uiso   1.00
H16    H     0.35930   0.12030   0.84040   0.01267  Uiso   1.00
H17    H     0.46290   0.06280   0.64030   0.01267  Uiso   1.00
H18    H     0.59710   0.12870   0.62410   0.01267  Uiso   1.00
H19    H     0.57330   0.31680   0.69740   0.01267  Uiso   1.00
H20    H     0.44070   0.25030   0.71430   0.01267  Uiso   1.00
H21    H     0.13120   0.21810   0.72570   0.01267  Uiso   1.00
H22    H     0.07470   0.30780   0.69110   0.01267  Uiso   1.00
H23    H     0.11410   0.23590   0.55530   0.01267  Uiso   1.00
H24    H     0.17980   0.15370   0.58940   0.01267  Uiso   1.00
H25    H     0.16030   0.85210   0.72950   0.01267  Uiso   1.00
H26    H     0.09600   0.73000   0.69710   0.01267  Uiso   1.00
H27    H     0.15360   0.81610   0.55870   0.01267  Uiso   1.00
H28    H     0.22020   0.93650   0.59160   0.01267  Uiso   1.00
H29    H     0.63720   0.34090   0.26210   0.01267  Uiso   1.00
H30    H     0.62700   0.42660   0.26240   0.01267  Uiso   1.00
H31    H     0.69640   0.34080   0.13270   0.01267  Uiso   1.00
H32    H     0.68040   0.28750   0.18140   0.01267  Uiso   1.00
H33    H     0.81870   0.45860   0.12810   0.01267  Uiso   1.00
H34    H     0.87820   0.48090   0.17460   0.01267  Uiso   1.00
H35    H     0.74760   0.54290   0.25650   0.01267  Uiso   1.00
H36    H     0.83560   0.53250   0.25200   0.01267  Uiso   1.00
H37    H     0.67790   0.47330   0.13460   0.01267  Uiso   1.00
H38    H     0.65110   0.50680   0.18470   0.01267  Uiso   1.00
H39    H     0.77570   0.32300   0.25430   0.01267  Uiso   1.00
H40    H     0.85310   0.39730   0.25110   0.01267  Uiso   1.00
H41    H     0.87800   0.48070   0.31950   0.01267  Uiso   1.00
H42    H     0.89700   0.49360   0.40380   0.01267  Uiso   1.00
H43    H     0.65910   0.39150   0.42490   0.01267  Uiso   1.00
H44    H     0.64070   0.37970   0.34040   0.01267  Uiso   1.00
H45    H     0.53710   0.43720   0.14030   0.01267  Uiso   1.00
H46    H     0.40290   0.37130   0.12410   0.01267  Uiso   1.00
H47    H     0.42670   0.18320   0.19740   0.01267  Uiso   1.00
H48    H     0.55930   0.24970   0.21430   0.01267  Uiso   1.00
H49    H     0.86880   0.28190   0.22570   0.01267  Uiso   1.00
H50    H     0.92530   0.19220   0.19110   0.01267  Uiso   1.00
H51    H     0.88590   0.26410   0.05530   0.01267  Uiso   1.00
H52    H     0.82020   0.34630   0.08940   0.01267  Uiso   1.00
H53    H     0.83970   0.64790   0.22950   0.01267  Uiso   1.00
H54    H     0.90400   0.77000   0.19710   0.01267  Uiso   1.00
H55    H     0.84640   0.68390   0.05870   0.01267  Uiso   1.00
H56    H     0.77980   0.56350   0.09160   0.01267  Uiso   1.00
H57    H     0.63720   0.84090   0.23790   0.01267  Uiso   1.00
H58    H     0.62700   0.92660   0.23760   0.01267  Uiso   1.00
H59    H     0.69640   0.84080   0.36730   0.01267  Uiso   1.00
H60    H     0.68040   0.78750   0.31860   0.01267  Uiso   1.00
H61    H     0.81870   0.95860   0.37190   0.01267  Uiso   1.00
H62    H     0.87820   0.98090   0.32540   0.01267  Uiso   1.00
H63    H     0.74760   0.04290   0.24350   0.01267  Uiso   1.00
H64    H     0.83560   0.03250   0.24800   0.01267  Uiso   1.00
H65    H     0.67790   0.97330   0.36540   0.01267  Uiso   1.00
H66    H     0.65110   0.00680   0.31530   0.01267  Uiso   1.00
H67    H     0.77570   0.82300   0.24570   0.01267  Uiso   1.00
H68    H     0.85310   0.89730   0.24890   0.01267  Uiso   1.00
H69    H     0.87800   0.98070   0.18050   0.01267  Uiso   1.00
H70    H     0.89700   0.99360   0.09620   0.01267  Uiso   1.00
H71    H     0.65910   0.89150   0.07510   0.01267  Uiso   1.00
H72    H     0.64070   0.87970   0.15960   0.01267  Uiso   1.00
H73    H     0.53710   0.93720   0.35970   0.01267  Uiso   1.00
H74    H     0.40290   0.87130   0.37590   0.01267  Uiso   1.00
H75    H     0.42670   0.68320   0.30260   0.01267  Uiso   1.00
H76    H     0.55930   0.74970   0.28570   0.01267  Uiso   1.00
H77    H     0.86880   0.78190   0.27430   0.01267  Uiso   1.00
H78    H     0.92530   0.69220   0.30890   0.01267  Uiso   1.00
H79    H     0.88590   0.76410   0.44470   0.01267  Uiso   1.00
H80    H     0.82020   0.84630   0.41060   0.01267  Uiso   1.00
H81    H     0.83970   0.14790   0.27050   0.01267  Uiso   1.00
H82    H     0.90400   0.27000   0.30290   0.01267  Uiso   1.00
H83    H     0.84640   0.18390   0.44130   0.01267  Uiso   1.00
H84    H     0.77980   0.06350   0.40840   0.01267  Uiso   1.00
H85    H     0.36280   0.65910   0.73790   0.01267  Uiso   1.00
H86    H     0.37300   0.57340   0.73760   0.01267  Uiso   1.00
H87    H     0.30360   0.65920   0.86730   0.01267  Uiso   1.00
H88    H     0.31960   0.71250   0.81860   0.01267  Uiso   1.00
H89    H     0.18130   0.54140   0.87190   0.01267  Uiso   1.00
H90    H     0.12180   0.51910   0.82540   0.01267  Uiso   1.00
H91    H     0.25240   0.45710   0.74350   0.01267  Uiso   1.00
H92    H     0.16440   0.46750   0.74800   0.01267  Uiso   1.00
H93    H     0.32210   0.52670   0.86540   0.01267  Uiso   1.00
H94    H     0.34890   0.49320   0.81530   0.01267  Uiso   1.00
H95    H     0.22430   0.67700   0.74570   0.01267  Uiso   1.00
H96    H     0.14690   0.60270   0.74890   0.01267  Uiso   1.00
H97    H     0.12200   0.51930   0.68050   0.01267  Uiso   1.00
H98    H     0.10300   0.50640   0.59620   0.01267  Uiso   1.00
H99    H     0.34090   0.60850   0.57510   0.01267  Uiso   1.00
H100   H     0.35930   0.62030   0.65960   0.01267  Uiso   1.00
H101   H     0.46290   0.56280   0.85970   0.01267  Uiso   1.00
H102   H     0.59710   0.62870   0.87590   0.01267  Uiso   1.00
H103   H     0.57330   0.81680   0.80260   0.01267  Uiso   1.00
H104   H     0.44070   0.75030   0.78570   0.01267  Uiso   1.00
H105   H     0.13120   0.71810   0.77430   0.01267  Uiso   1.00
H106   H     0.07470   0.80780   0.80890   0.01267  Uiso   1.00
H107   H     0.11410   0.73590   0.94470   0.01267  Uiso   1.00
H108   H     0.17980   0.65370   0.91060   0.01267  Uiso   1.00
H109   H     0.16030   0.35210   0.77050   0.01267  Uiso   1.00
H110   H     0.09600   0.23000   0.80290   0.01267  Uiso   1.00
H111   H     0.15360   0.31610   0.94130   0.01267  Uiso   1.00
H112   H     0.22020   0.43650   0.90840   0.01267  Uiso   1.00
C1     C     0.25280   0.07250   0.76400   0.01267  Uiso   1.00
C2     C     0.34110   0.10600   0.74850   0.01267  Uiso   1.00
C3     C     0.34940   0.10880   0.69150   0.01267  Uiso   1.00
C4     C     0.29860   0.15840   0.66930   0.01267  Uiso   1.00
C5     C     0.20910   0.12600   0.68370   0.01267  Uiso   1.00
C6     C     0.17870   0.04160   0.66480   0.01267  Uiso   1.00
C7     C     0.22820   0.99070   0.68560   0.01267  Uiso   1.00
C8     C     0.22130   0.99020   0.74240   0.01267  Uiso   1.00
C9     C     0.31690   0.02590   0.67120   0.01267  Uiso   1.00
C10    C     0.20380   0.12350   0.74110   0.01267  Uiso   1.00
C11    C     0.24280   0.06970   0.82010   0.01267  Uiso   1.00
C12    C     0.16700   0.03710   0.84090   0.01267  Uiso   1.00
C13    C     0.15530   0.03020   0.89110   0.01267  Uiso   1.00
C14    C     0.21990   0.05770   0.92420   0.01267  Uiso   1.00
C15    C     0.29590   0.09040   0.90350   0.01267  Uiso   1.00
C16    C     0.30700   0.09690   0.85310   0.01267  Uiso   1.00
C17    C     0.21160   0.04830   0.97810   0.01267  Uiso   1.00
C18    C     0.43650   0.14830   0.67820   0.01267  Uiso   1.00
C19    C     0.48470   0.11440   0.65220   0.01267  Uiso   1.00
C20    C     0.56540   0.15380   0.64250   0.01267  Uiso   1.00
C21    C     0.59910   0.22800   0.65920   0.01267  Uiso   1.00
C22    C     0.55120   0.26500   0.68600   0.01267  Uiso   1.00
C23    C     0.47230   0.22550   0.69560   0.01267  Uiso   1.00
C24    C     0.68460   0.26950   0.65400   0.01267  Uiso   1.00
C25    C     0.16310   0.17710   0.66180   0.01267  Uiso   1.00
C26    C     0.12950   0.22240   0.69060   0.01267  Uiso   1.00
C27    C     0.09330   0.27430   0.67000   0.01267  Uiso   1.00
C28    C     0.08390   0.27790   0.61960   0.01267  Uiso   1.00
C29    C     0.11780   0.23290   0.59030   0.01267  Uiso   1.00
C30    C     0.15690   0.18360   0.61070   0.01267  Uiso   1.00
C31    C     0.04150   0.33200   0.60050   0.01267  Uiso   1.00
C32    C     0.19270   0.90810   0.66450   0.01267  Uiso   1.00
C33    C     0.15780   0.84520   0.69450   0.01267  Uiso   1.00
C34    C     0.11920   0.77220   0.67540   0.01267  Uiso   1.00
C35    C     0.11460   0.76120   0.62370   0.01267  Uiso   1.00
C36    C     0.15380   0.82330   0.59360   0.01267  Uiso   1.00
C37    C     0.19300   0.89540   0.61310   0.01267  Uiso   1.00
C38    C     0.06750   0.68530   0.60550   0.01267  Uiso   1.00
C39    C     0.74720   0.42750   0.26400   0.01267  Uiso   1.00
C40    C     0.65890   0.39400   0.24850   0.01267  Uiso   1.00
C41    C     0.65060   0.39120   0.19150   0.01267  Uiso   1.00
C42    C     0.70140   0.34160   0.16930   0.01267  Uiso   1.00
C43    C     0.79090   0.37400   0.18370   0.01267  Uiso   1.00
C44    C     0.82130   0.45840   0.16480   0.01267  Uiso   1.00
C45    C     0.77180   0.50930   0.18560   0.01267  Uiso   1.00
C46    C     0.77870   0.50980   0.24240   0.01267  Uiso   1.00
C47    C     0.68310   0.47410   0.17120   0.01267  Uiso   1.00
C48    C     0.79620   0.37650   0.24110   0.01267  Uiso   1.00
C49    C     0.75720   0.43030   0.32010   0.01267  Uiso   1.00
C50    C     0.83300   0.46290   0.34090   0.01267  Uiso   1.00
C51    C     0.84470   0.46980   0.39110   0.01267  Uiso   1.00
C52    C     0.78010   0.44230   0.42420   0.01267  Uiso   1.00
C53    C     0.70410   0.40960   0.40350   0.01267  Uiso   1.00
C54    C     0.69300   0.40310   0.35310   0.01267  Uiso   1.00
C55    C     0.78840   0.45170   0.47810   0.01267  Uiso   1.00
C56    C     0.56350   0.35170   0.17820   0.01267  Uiso   1.00
C57    C     0.51530   0.38560   0.15220   0.01267  Uiso   1.00
C58    C     0.43460   0.34620   0.14250   0.01267  Uiso   1.00
C59    C     0.40090   0.27200   0.15920   0.01267  Uiso   1.00
C60    C     0.44880   0.23500   0.18600   0.01267  Uiso   1.00
C61    C     0.52770   0.27450   0.19560   0.01267  Uiso   1.00
C62    C     0.31540   0.23050   0.15400   0.01267  Uiso   1.00
C63    C     0.83690   0.32290   0.16180   0.01267  Uiso   1.00
C64    C     0.87050   0.27760   0.19060   0.01267  Uiso   1.00
C65    C     0.90670   0.22570   0.17000   0.01267  Uiso   1.00
C66    C     0.91610   0.22210   0.11960   0.01267  Uiso   1.00
C67    C     0.88220   0.26710   0.09030   0.01267  Uiso   1.00
C68    C     0.84310   0.31640   0.11070   0.01267  Uiso   1.00
C69    C     0.95850   0.16800   0.10050   0.01267  Uiso   1.00
C70    C     0.80730   0.59190   0.16450   0.01267  Uiso   1.00
C71    C     0.84220   0.65480   0.19450   0.01267  Uiso   1.00
C72    C     0.88080   0.72780   0.17540   0.01267  Uiso   1.00
C73    C     0.88540   0.73880   0.12370   0.01267  Uiso   1.00
C74    C     0.84620   0.67670   0.09360   0.01267  Uiso   1.00
C75    C     0.80700   0.60460   0.11310   0.01267  Uiso   1.00
C76    C     0.93250   0.81470   0.10550   0.01267  Uiso   1.00
C77    C     0.74720   0.92750   0.23600   0.01267  Uiso   1.00
C78    C     0.65890   0.89400   0.25150   0.01267  Uiso   1.00
C79    C     0.65060   0.89120   0.30850   0.01267  Uiso   1.00
C80    C     0.70140   0.84160   0.33070   0.01267  Uiso   1.00
C81    C     0.79090   0.87400   0.31630   0.01267  Uiso   1.00
C82    C     0.82130   0.95840   0.33520   0.01267  Uiso   1.00
C83    C     0.77180   0.00930   0.31440   0.01267  Uiso   1.00
C84    C     0.77870   0.00980   0.25760   0.01267  Uiso   1.00
C85    C     0.68310   0.97410   0.32880   0.01267  Uiso   1.00
C86    C     0.79620   0.87650   0.25890   0.01267  Uiso   1.00
C87    C     0.75720   0.93030   0.17990   0.01267  Uiso   1.00
C88    C     0.83300   0.96290   0.15910   0.01267  Uiso   1.00
C89    C     0.84470   0.96980   0.10890   0.01267  Uiso   1.00
C90    C     0.78010   0.94230   0.07580   0.01267  Uiso   1.00
C91    C     0.70410   0.90960   0.09650   0.01267  Uiso   1.00
C92    C     0.69300   0.90310   0.14690   0.01267  Uiso   1.00
C93    C     0.78840   0.95170   0.02190   0.01267  Uiso   1.00
C94    C     0.56350   0.85170   0.32180   0.01267  Uiso   1.00
C95    C     0.51530   0.88560   0.34780   0.01267  Uiso   1.00
C96    C     0.43460   0.84620   0.35750   0.01267  Uiso   1.00
C97    C     0.40090   0.77200   0.34080   0.01267  Uiso   1.00
C98    C     0.44880   0.73500   0.31400   0.01267  Uiso   1.00
C99    C     0.52770   0.77450   0.30440   0.01267  Uiso   1.00
C100   C     0.31540   0.73050   0.34600   0.01267  Uiso   1.00
C101   C     0.83690   0.82290   0.33820   0.01267  Uiso   1.00
C102   C     0.87050   0.77760   0.30940   0.01267  Uiso   1.00
C103   C     0.90670   0.72570   0.33000   0.01267  Uiso   1.00
C104   C     0.91610   0.72210   0.38040   0.01267  Uiso   1.00
C105   C     0.88220   0.76710   0.40970   0.01267  Uiso   1.00
C106   C     0.84310   0.81640   0.38930   0.01267  Uiso   1.00
C107   C     0.95850   0.66800   0.39950   0.01267  Uiso   1.00
C108   C     0.80730   0.09190   0.33550   0.01267  Uiso   1.00
C109   C     0.84220   0.15480   0.30550   0.01267  Uiso   1.00
C110   C     0.88080   0.22780   0.32460   0.01267  Uiso   1.00
C111   C     0.88540   0.23880   0.37630   0.01267  Uiso   1.00
C112   C     0.84620   0.17670   0.40640   0.01267  Uiso   1.00
C113   C     0.80700   0.10460   0.38690   0.01267  Uiso   1.00
C114   C     0.93250   0.31470   0.39450   0.01267  Uiso   1.00
C115   C     0.25280   0.57250   0.73600   0.01267  Uiso   1.00
C116   C     0.34110   0.60600   0.75150   0.01267  Uiso   1.00
C117   C     0.34940   0.60880   0.80850   0.01267  Uiso   1.00
C118   C     0.29860   0.65840   0.83070   0.01267  Uiso   1.00
C119   C     0.20910   0.62600   0.81630   0.01267  Uiso   1.00
C120   C     0.17870   0.54160   0.83520   0.01267  Uiso   1.00
C121   C     0.22820   0.49070   0.81440   0.01267  Uiso   1.00
C122   C     0.22130   0.49020   0.75760   0.01267  Uiso   1.00
C123   C     0.31690   0.52590   0.82880   0.01267  Uiso   1.00
C124   C     0.20380   0.62350   0.75890   0.01267  Uiso   1.00
C125   C     0.24280   0.56970   0.67990   0.01267  Uiso   1.00
C126   C     0.16700   0.53710   0.65910   0.01267  Uiso   1.00
C127   C     0.15530   0.53020   0.60890   0.01267  Uiso   1.00
C128   C     0.21990   0.55770   0.57580   0.01267  Uiso   1.00
C129   C     0.29590   0.59040   0.59650   0.01267  Uiso   1.00
C130   C     0.30700   0.59690   0.64690   0.01267  Uiso   1.00
C131   C     0.21160   0.54830   0.52190   0.01267  Uiso   1.00
C132   C     0.43650   0.64830   0.82180   0.01267  Uiso   1.00
C133   C     0.48470   0.61440   0.84780   0.01267  Uiso   1.00
C134   C     0.56540   0.65380   0.85750   0.01267  Uiso   1.00
C135   C     0.59910   0.72800   0.84080   0.01267  Uiso   1.00
C136   C     0.55120   0.76500   0.81400   0.01267  Uiso   1.00
C137   C     0.47230   0.72550   0.80440   0.01267  Uiso   1.00
C138   C     0.68460   0.76950   0.84600   0.01267  Uiso   1.00
C139   C     0.16310   0.67710   0.83820   0.01267  Uiso   1.00
C140   C     0.12950   0.72240   0.80940   0.01267  Uiso   1.00
C141   C     0.09330   0.77430   0.83000   0.01267  Uiso   1.00
C142   C     0.08390   0.77790   0.88040   0.01267  Uiso   1.00
C143   C     0.11780   0.73290   0.90970   0.01267  Uiso   1.00
C144   C     0.15690   0.68360   0.88930   0.01267  Uiso   1.00
C145   C     0.04150   0.83200   0.89950   0.01267  Uiso   1.00
C146   C     0.19270   0.40810   0.83550   0.01267  Uiso   1.00
C147   C     0.15780   0.34520   0.80550   0.01267  Uiso   1.00
C148   C     0.11920   0.27220   0.82460   0.01267  Uiso   1.00
C149   C     0.11460   0.26120   0.87630   0.01267  Uiso   1.00
C150   C     0.15380   0.32330   0.90640   0.01267  Uiso   1.00
C151   C     0.19300   0.39540   0.88690   0.01267  Uiso   1.00
C152   C     0.06750   0.18530   0.89450   0.01267  Uiso   1.00
N1     N     0.14370   0.03240   0.00574   0.01267  Uiso   1.00
N2     N     0.16950   0.03260   0.05261   0.01267  Uiso   1.00
N3     N     0.24820   0.04890   0.05300   0.01267  Uiso   1.00
N4     N     0.27650   0.05970   0.00726   0.01267  Uiso   1.00
N5     N     0.71590   0.34500   0.64660   0.01267  Uiso   1.00
N6     N     0.79610   0.35880   0.64690   0.01267  Uiso   1.00
N7     N     0.81140   0.29030   0.65250   0.01267  Uiso   1.00
N8     N     0.74260   0.23560   0.65830   0.01267  Uiso   1.00
N9     N     0.99490   0.36030   0.62930   0.01267  Uiso   1.00
N10    N     0.96740   0.40570   0.59930   0.01267  Uiso   1.00
N11    N     0.99640   0.40480   0.55520   0.01267  Uiso   1.00
N12    N     0.04480   0.35860   0.55350   0.01267  Uiso   1.00
N13    N     0.07020   0.65830   0.55930   0.01267  Uiso   1.00
N14    N     0.01370   0.58880   0.55990   0.01267  Uiso   1.00
N15    N     0.97970   0.57660   0.60420   0.01267  Uiso   1.00
N16    N     0.01200   0.63620   0.63360   0.01267  Uiso   1.00
N17    N     0.85630   0.46760   0.50574   0.01267  Uiso   1.00
N18    N     0.83050   0.46740   0.55261   0.01267  Uiso   1.00
N19    N     0.75180   0.45110   0.55300   0.01267  Uiso   1.00
N20    N     0.72350   0.44030   0.50726   0.01267  Uiso   1.00
N21    N     0.28410   0.15500   0.14660   0.01267  Uiso   1.00
N22    N     0.20390   0.14120   0.14690   0.01267  Uiso   1.00
N23    N     0.18860   0.20970   0.15250   0.01267  Uiso   1.00
N24    N     0.25740   0.26440   0.15830   0.01267  Uiso   1.00
N25    N     0.00510   0.13970   0.12930   0.01267  Uiso   1.00
N26    N     0.03260   0.09430   0.09930   0.01267  Uiso   1.00
N27    N     0.00360   0.09520   0.05520   0.01267  Uiso   1.00
N28    N     0.95520   0.14140   0.05350   0.01267  Uiso   1.00
N29    N     0.92980   0.84170   0.05930   0.01267  Uiso   1.00
N30    N     0.98630   0.91120   0.05990   0.01267  Uiso   1.00
N31    N     0.02030   0.92340   0.10420   0.01267  Uiso   1.00
N32    N     0.98800   0.86380   0.13360   0.01267  Uiso   1.00
N33    N     0.85630   0.96760   0.99426   0.01267  Uiso   1.00
N34    N     0.83050   0.96740   0.94739   0.01267  Uiso   1.00
N35    N     0.75180   0.95110   0.94700   0.01267  Uiso   1.00
N36    N     0.72350   0.94030   0.99274   0.01267  Uiso   1.00
N37    N     0.28410   0.65500   0.35340   0.01267  Uiso   1.00
N38    N     0.20390   0.64120   0.35310   0.01267  Uiso   1.00
N39    N     0.18860   0.70970   0.34750   0.01267  Uiso   1.00
N40    N     0.25740   0.76440   0.34170   0.01267  Uiso   1.00
N41    N     0.00510   0.63970   0.37070   0.01267  Uiso   1.00
N42    N     0.03260   0.59430   0.40070   0.01267  Uiso   1.00
N43    N     0.00360   0.59520   0.44480   0.01267  Uiso   1.00
N44    N     0.95520   0.64140   0.44650   0.01267  Uiso   1.00
N45    N     0.92980   0.34170   0.44070   0.01267  Uiso   1.00
N46    N     0.98630   0.41120   0.44010   0.01267  Uiso   1.00
N47    N     0.02030   0.42340   0.39580   0.01267  Uiso   1.00
N48    N     0.98800   0.36380   0.36640   0.01267  Uiso   1.00
N49    N     0.14370   0.53240   0.49426   0.01267  Uiso   1.00
N50    N     0.16950   0.53260   0.44739   0.01267  Uiso   1.00
N51    N     0.24820   0.54890   0.44700   0.01267  Uiso   1.00
N52    N     0.27650   0.55970   0.49274   0.01267  Uiso   1.00
N53    N     0.71590   0.84500   0.85340   0.01267  Uiso   1.00
N54    N     0.79610   0.85880   0.85310   0.01267  Uiso   1.00
N55    N     0.81140   0.79030   0.84750   0.01267  Uiso   1.00
N56    N     0.74260   0.73560   0.84170   0.01267  Uiso   1.00
N57    N     0.99490   0.86030   0.87070   0.01267  Uiso   1.00
N58    N     0.96740   0.90570   0.90070   0.01267  Uiso   1.00
N59    N     0.99640   0.90480   0.94480   0.01267  Uiso   1.00
N60    N     0.04480   0.85860   0.94650   0.01267  Uiso   1.00
N61    N     0.07020   0.15830   0.94070   0.01267  Uiso   1.00
N62    N     0.01370   0.08880   0.94010   0.01267  Uiso   1.00
N63    N     0.97970   0.07660   0.89580   0.01267  Uiso   1.00
N64    N     0.01200   0.13620   0.86640   0.01267  Uiso   1.00
Cl1    Cl    0.20506   0.95700   0.15654   0.01267  Uiso   1.00
Cl2    Cl    0.79494   0.54300   0.65654   0.01267  Uiso   1.00
Cl3    Cl    0.79494   0.04300   0.84346   0.01267  Uiso   1.00
Cl4    Cl    0.20506   0.45700   0.34346   0.01267  Uiso   1.00
