data_image0
_cell_length_a       14.719
_cell_length_b       14.734
_cell_length_c       17.891
_cell_angle_alpha    90
_cell_angle_beta     90
_cell_angle_gamma    90.02

_symmetry_space_group_name_H-M    "P 1"
_symmetry_int_tables_number       1

loop_
  _symmetry_equiv_pos_as_xyz
  'x, y, z'

loop_
  _atom_site_label
  _atom_site_occupancy
  _atom_site_fract_x
  _atom_site_fract_y
  _atom_site_fract_z
  _atom_site_thermal_displace_type
  _atom_site_B_iso_or_equiv
  _atom_site_type_symbol
  Co1      1.0000 0.99480  0.11860  0.33130  Biso   1.000  Co
  Co2      1.0000 0.01320  0.88040  0.17210  Biso   1.000  Co
  Co3      1.0000 0.36850  0.25400  0.42230  Biso   1.000  Co
  Co4      1.0000 0.87060  0.76240  0.41830  Biso   1.000  Co
  P1       1.0000 0.14790  0.24600  0.40010  Biso   1.000  P
  P2       1.0000 0.00300  0.89920  0.35230  Biso   1.000  P
  P3       1.0000 0.98850  0.10220  0.14990  Biso   1.000  P
  P4       1.0000 0.85060  0.76120  0.10270  Biso   1.000  P
  O1       1.0000 0.98580  0.99920  0.37590  Biso   1.000  O
  O2       1.0000 0.90480  0.86910  0.35640  Biso   1.000  O
  O3       1.0000 0.75000  0.76890  0.12510  Biso   1.000  O
  O4       1.0000 0.11210  0.17620  0.34200  Biso   1.000  O
  O5       1.0000 0.14490  0.19960  0.47940  Biso   1.000  O
  O6       1.0000 0.05690  0.84540  0.41330  Biso   1.000  O
  O7       1.0000 0.95020  0.10150  0.22810  Biso   1.000  O
  O8       1.0000 0.90100  0.81610  0.16080  Biso   1.000  O
  O9       1.0000 0.01220  0.00280  0.12800  Biso   1.000  O
  O10      1.0000 0.24710  0.26210  0.37720  Biso   1.000  O
  O11      1.0000 0.88000  0.65920  0.11190  Biso   1.000  O
  O12      1.0000 0.86920  0.79630  0.02670  Biso   1.000  O
  O13      1.0000 0.91650  0.13320  0.09430  Biso   1.000  O
  O14      1.0000 0.09580  0.33340  0.40120  Biso   1.000  O
  O15      1.0000 0.07430  0.15840  0.14570  Biso   1.000  O
  O16      1.0000 0.04750  0.87880  0.27490  Biso   1.000  O
  Co5      1.0000 0.49480  0.61860  0.83130  Biso   1.000  Co
  Co6      1.0000 0.51320  0.38040  0.67210  Biso   1.000  Co
  Co7      1.0000 0.86850  0.75400  0.92230  Biso   1.000  Co
  Co8      1.0000 0.37060  0.26240  0.91830  Biso   1.000  Co
  P5       1.0000 0.64790  0.74600  0.90010  Biso   1.000  P
  P6       1.0000 0.50300  0.39920  0.85230  Biso   1.000  P
  P7       1.0000 0.48850  0.60220  0.64990  Biso   1.000  P
  P8       1.0000 0.35060  0.26120  0.60270  Biso   1.000  P
  O17      1.0000 0.48580  0.49920  0.87590  Biso   1.000  O
  O18      1.0000 0.40480  0.36910  0.85640  Biso   1.000  O
  O19      1.0000 0.25000  0.26890  0.62510  Biso   1.000  O
  O20      1.0000 0.61210  0.67620  0.84200  Biso   1.000  O
  O21      1.0000 0.64490  0.69960  0.97940  Biso   1.000  O
  O22      1.0000 0.55690  0.34540  0.91330  Biso   1.000  O
  O23      1.0000 0.45020  0.60150  0.72810  Biso   1.000  O
  O24      1.0000 0.40100  0.31610  0.66080  Biso   1.000  O
  O25      1.0000 0.51220  0.50280  0.62800  Biso   1.000  O
  O26      1.0000 0.74710  0.76210  0.87720  Biso   1.000  O
  O27      1.0000 0.38000  0.15920  0.61190  Biso   1.000  O
  O28      1.0000 0.36920  0.29630  0.52670  Biso   1.000  O
  O29      1.0000 0.41650  0.63320  0.59430  Biso   1.000  O
  O30      1.0000 0.59580  0.83340  0.90120  Biso   1.000  O
  O31      1.0000 0.57430  0.65840  0.64570  Biso   1.000  O
  O32      1.0000 0.54750  0.37880  0.77490  Biso   1.000  O
  Co9      1.0000 0.00520  0.38140  0.33130  Biso   1.000  Co
  Co10     1.0000 0.98680  0.61960  0.17210  Biso   1.000  Co
  Co11     1.0000 0.63150  0.24600  0.42230  Biso   1.000  Co
  Co12     1.0000 0.12940  0.73760  0.41830  Biso   1.000  Co
  P9       1.0000 0.85210  0.25400  0.40010  Biso   1.000  P
  P10      1.0000 0.99700  0.60080  0.35230  Biso   1.000  P
  P11      1.0000 0.01150  0.39780  0.14990  Biso   1.000  P
  P12      1.0000 0.14940  0.73880  0.10270  Biso   1.000  P
  O33      1.0000 0.01420  0.50080  0.37590  Biso   1.000  O
  O34      1.0000 0.09520  0.63090  0.35640  Biso   1.000  O
  O35      1.0000 0.25000  0.73110  0.12510  Biso   1.000  O
  O36      1.0000 0.88790  0.32380  0.34200  Biso   1.000  O
  O37      1.0000 0.85510  0.30040  0.47940  Biso   1.000  O
  O38      1.0000 0.94310  0.65460  0.41330  Biso   1.000  O
  O39      1.0000 0.04980  0.39850  0.22810  Biso   1.000  O
  O40      1.0000 0.09900  0.68390  0.16080  Biso   1.000  O
  O41      1.0000 0.98780  0.49720  0.12800  Biso   1.000  O
  O42      1.0000 0.75290  0.23790  0.37720  Biso   1.000  O
  O43      1.0000 0.12000  0.84080  0.11190  Biso   1.000  O
  O44      1.0000 0.13080  0.70370  0.02670  Biso   1.000  O
  O45      1.0000 0.08350  0.36680  0.09430  Biso   1.000  O
  O46      1.0000 0.90420  0.16660  0.40120  Biso   1.000  O
  O47      1.0000 0.92570  0.34160  0.14570  Biso   1.000  O
  O48      1.0000 0.95250  0.62120  0.27490  Biso   1.000  O
  Co13     1.0000 0.50520  0.88140  0.83130  Biso   1.000  Co
  Co14     1.0000 0.48680  0.11960  0.67210  Biso   1.000  Co
  Co15     1.0000 0.13150  0.74600  0.92230  Biso   1.000  Co
  Co16     1.0000 0.62940  0.23760  0.91830  Biso   1.000  Co
  P13      1.0000 0.35210  0.75400  0.90010  Biso   1.000  P
  P14      1.0000 0.49700  0.10080  0.85230  Biso   1.000  P
  P15      1.0000 0.51150  0.89780  0.64990  Biso   1.000  P
  P16      1.0000 0.64940  0.23880  0.60270  Biso   1.000  P
  O49      1.0000 0.51420  0.00080  0.87590  Biso   1.000  O
  O50      1.0000 0.59520  0.13090  0.85640  Biso   1.000  O
  O51      1.0000 0.75000  0.23110  0.62510  Biso   1.000  O
  O52      1.0000 0.38790  0.82380  0.84200  Biso   1.000  O
  O53      1.0000 0.35510  0.80040  0.97940  Biso   1.000  O
  O54      1.0000 0.44310  0.15460  0.91330  Biso   1.000  O
  O55      1.0000 0.54980  0.89850  0.72810  Biso   1.000  O
  O56      1.0000 0.59900  0.18390  0.66080  Biso   1.000  O
  O57      1.0000 0.48780  0.99720  0.62800  Biso   1.000  O
  O58      1.0000 0.25290  0.73790  0.87720  Biso   1.000  O
  O59      1.0000 0.62000  0.34080  0.61190  Biso   1.000  O
  O60      1.0000 0.63080  0.20370  0.52670  Biso   1.000  O
  O61      1.0000 0.58350  0.86680  0.59430  Biso   1.000  O
  O62      1.0000 0.40420  0.66660  0.90120  Biso   1.000  O
  O63      1.0000 0.42570  0.84160  0.64570  Biso   1.000  O
  O64      1.0000 0.45250  0.12120  0.77490  Biso   1.000  O
  Co17     1.0000 0.00520  0.88140  0.66870  Biso   1.000  Co
  Co18     1.0000 0.98680  0.11960  0.82790  Biso   1.000  Co
  Co19     1.0000 0.63150  0.74600  0.57770  Biso   1.000  Co
  Co20     1.0000 0.12940  0.23760  0.58170  Biso   1.000  Co
  P17      1.0000 0.85210  0.75400  0.59990  Biso   1.000  P
  P18      1.0000 0.99700  0.10080  0.64770  Biso   1.000  P
  P19      1.0000 0.01150  0.89780  0.85010  Biso   1.000  P
  P20      1.0000 0.14940  0.23880  0.89730  Biso   1.000  P
  O65      1.0000 0.01420  0.00080  0.62410  Biso   1.000  O
  O66      1.0000 0.09520  0.13090  0.64360  Biso   1.000  O
  O67      1.0000 0.25000  0.23110  0.87490  Biso   1.000  O
  O68      1.0000 0.88790  0.82380  0.65800  Biso   1.000  O
  O69      1.0000 0.85510  0.80040  0.52060  Biso   1.000  O
  O70      1.0000 0.94310  0.15460  0.58670  Biso   1.000  O
  O71      1.0000 0.04980  0.89850  0.77190  Biso   1.000  O
  O72      1.0000 0.09900  0.18390  0.83920  Biso   1.000  O
  O73      1.0000 0.98780  0.99720  0.87200  Biso   1.000  O
  O74      1.0000 0.75290  0.73790  0.62280  Biso   1.000  O
  O75      1.0000 0.12000  0.34080  0.88810  Biso   1.000  O
  O76      1.0000 0.13080  0.20370  0.97330  Biso   1.000  O
  O77      1.0000 0.08350  0.86680  0.90570  Biso   1.000  O
  O78      1.0000 0.90420  0.66660  0.59880  Biso   1.000  O
  O79      1.0000 0.92570  0.84160  0.85430  Biso   1.000  O
  O80      1.0000 0.95250  0.12120  0.72510  Biso   1.000  O
  Co21     1.0000 0.50520  0.38140  0.16870  Biso   1.000  Co
  Co22     1.0000 0.48680  0.61960  0.32790  Biso   1.000  Co
  Co23     1.0000 0.13150  0.24600  0.07770  Biso   1.000  Co
  Co24     1.0000 0.62940  0.73760  0.08170  Biso   1.000  Co
  P21      1.0000 0.35210  0.25400  0.09990  Biso   1.000  P
  P22      1.0000 0.49700  0.60080  0.14770  Biso   1.000  P
  P23      1.0000 0.51150  0.39780  0.35010  Biso   1.000  P
  P24      1.0000 0.64940  0.73880  0.39730  Biso   1.000  P
  O81      1.0000 0.51420  0.50080  0.12410  Biso   1.000  O
  O82      1.0000 0.59520  0.63090  0.14360  Biso   1.000  O
  O83      1.0000 0.75000  0.73110  0.37490  Biso   1.000  O
  O84      1.0000 0.38790  0.32380  0.15800  Biso   1.000  O
  O85      1.0000 0.35510  0.30040  0.02060  Biso   1.000  O
  O86      1.0000 0.44310  0.65460  0.08670  Biso   1.000  O
  O87      1.0000 0.54980  0.39850  0.27190  Biso   1.000  O
  O88      1.0000 0.59900  0.68390  0.33920  Biso   1.000  O
  O89      1.0000 0.48780  0.49720  0.37200  Biso   1.000  O
  O90      1.0000 0.25290  0.23790  0.12280  Biso   1.000  O
  O91      1.0000 0.62000  0.84080  0.38810  Biso   1.000  O
  O92      1.0000 0.63080  0.70370  0.47330  Biso   1.000  O
  O93      1.0000 0.58350  0.36680  0.40570  Biso   1.000  O
  O94      1.0000 0.40420  0.16660  0.09880  Biso   1.000  O
  O95      1.0000 0.42570  0.34160  0.35430  Biso   1.000  O
  O96      1.0000 0.45250  0.62120  0.22510  Biso   1.000  O
  Co25     1.0000 0.99480  0.61860  0.66870  Biso   1.000  Co
  Co26     1.0000 0.01320  0.38040  0.82790  Biso   1.000  Co
  Co27     1.0000 0.36850  0.75400  0.57770  Biso   1.000  Co
  Co28     1.0000 0.87060  0.26240  0.58170  Biso   1.000  Co
  P25      1.0000 0.14790  0.74600  0.59990  Biso   1.000  P
  P26      1.0000 0.00300  0.39920  0.64770  Biso   1.000  P
  P27      1.0000 0.98850  0.60220  0.85010  Biso   1.000  P
  P28      1.0000 0.85060  0.26120  0.89730  Biso   1.000  P
  O97      1.0000 0.98580  0.49920  0.62410  Biso   1.000  O
  O98      1.0000 0.90480  0.36910  0.64360  Biso   1.000  O
  O99      1.0000 0.75000  0.26890  0.87490  Biso   1.000  O
  O100     1.0000 0.11210  0.67620  0.65800  Biso   1.000  O
  O101     1.0000 0.14490  0.69960  0.52060  Biso   1.000  O
  O102     1.0000 0.05690  0.34540  0.58670  Biso   1.000  O
  O103     1.0000 0.95020  0.60150  0.77190  Biso   1.000  O
  O104     1.0000 0.90100  0.31610  0.83920  Biso   1.000  O
  O105     1.0000 0.01220  0.50280  0.87200  Biso   1.000  O
  O106     1.0000 0.24710  0.76210  0.62280  Biso   1.000  O
  O107     1.0000 0.88000  0.15920  0.88810  Biso   1.000  O
  O108     1.0000 0.86920  0.29630  0.97330  Biso   1.000  O
  O109     1.0000 0.91650  0.63320  0.90570  Biso   1.000  O
  O110     1.0000 0.09580  0.83340  0.59880  Biso   1.000  O
  O111     1.0000 0.07430  0.65840  0.85430  Biso   1.000  O
  O112     1.0000 0.04750  0.37880  0.72510  Biso   1.000  O
  Co29     1.0000 0.49480  0.11860  0.16870  Biso   1.000  Co
  Co30     1.0000 0.51320  0.88040  0.32790  Biso   1.000  Co
  Co31     1.0000 0.86850  0.25400  0.07770  Biso   1.000  Co
  Co32     1.0000 0.37060  0.76240  0.08170  Biso   1.000  Co
  P29      1.0000 0.64790  0.24600  0.09990  Biso   1.000  P
  P30      1.0000 0.50300  0.89920  0.14770  Biso   1.000  P
  P31      1.0000 0.48850  0.10220  0.35010  Biso   1.000  P
  P32      1.0000 0.35060  0.76120  0.39730  Biso   1.000  P
  O113     1.0000 0.48580  0.99920  0.12410  Biso   1.000  O
  O114     1.0000 0.40480  0.86910  0.14360  Biso   1.000  O
  O115     1.0000 0.25000  0.76890  0.37490  Biso   1.000  O
  O116     1.0000 0.61210  0.17620  0.15800  Biso   1.000  O
  O117     1.0000 0.64490  0.19960  0.02060  Biso   1.000  O
  O118     1.0000 0.55690  0.84540  0.08670  Biso   1.000  O
  O119     1.0000 0.45020  0.10150  0.27190  Biso   1.000  O
  O120     1.0000 0.40100  0.81610  0.33920  Biso   1.000  O
  O121     1.0000 0.51220  0.00280  0.37200  Biso   1.000  O
  O122     1.0000 0.74710  0.26210  0.12280  Biso   1.000  O
  O123     1.0000 0.38000  0.65920  0.38810  Biso   1.000  O
  O124     1.0000 0.36920  0.79630  0.47330  Biso   1.000  O
  O125     1.0000 0.41650  0.13320  0.40570  Biso   1.000  O
  O126     1.0000 0.59580  0.33340  0.09880  Biso   1.000  O
  O127     1.0000 0.57430  0.15840  0.35430  Biso   1.000  O
  O128     1.0000 0.54750  0.87880  0.22510  Biso   1.000  O
