data_LENKIA_clean
_audit_creation_date              2014-07-02
_audit_creation_method            'Materials Studio'
_symmetry_space_group_name_H-M    'P1'
_symmetry_Int_Tables_number       1
_symmetry_cell_setting            triclinic
loop_
_symmetry_equiv_pos_as_xyz
  x,y,z
_cell_length_a                    6.2587
_cell_length_b                    15.1538
_cell_length_c                    15.1538
_cell_angle_alpha                 61.8637
_cell_angle_beta                  82.0870
_cell_angle_gamma                 97.9130
loop_
_atom_site_label
_atom_site_type_symbol
_atom_site_fract_x
_atom_site_fract_y
_atom_site_fract_z
_atom_site_U_iso_or_equiv
_atom_site_adp_type
_atom_site_occupancy
Cu1    Cu    0.92905   0.26049   0.43333   0.01267  Uiso   1.00
Cu2    Cu    0.36238   0.43333   0.30618   0.01267  Uiso   1.00
Cu3    Cu    0.66856   0.30618   0.26049   0.01267  Uiso   1.00
Cu4    Cu    0.07095   0.73951   0.56667   0.01267  Uiso   1.00
Cu5    Cu    0.63762   0.56667   0.69382   0.01267  Uiso   1.00
Cu6    Cu    0.33144   0.69382   0.73951   0.01267  Uiso   1.00
H1     H     0.31470   0.43960   0.53900   0.01267  Uiso   1.00
H2     H     0.85370   0.53900   0.02140   0.01267  Uiso   1.00
H3     H     0.87510   0.02140   0.43960   0.01267  Uiso   1.00
H4     H     0.68530   0.56040   0.46100   0.01267  Uiso   1.00
H5     H     0.14630   0.46100   0.97860   0.01267  Uiso   1.00
H6     H     0.12490   0.97860   0.56040   0.01267  Uiso   1.00
C1     C     0.18550   0.46390   0.52280   0.01267  Uiso   1.00
C2     C     0.71820   0.42990   0.39850   0.01267  Uiso   1.00
C3     C     0.06390   0.42860   0.47130   0.01267  Uiso   1.00
C4     C     0.87250   0.46670   0.44850   0.01267  Uiso   1.00
C5     C     0.70830   0.52280   0.01330   0.01267  Uiso   1.00
C6     C     0.11670   0.39850   0.17160   0.01267  Uiso   1.00
C7     C     0.53520   0.47130   0.10010   0.01267  Uiso   1.00
C8     C     0.32100   0.44850   0.08480   0.01267  Uiso   1.00
C9     C     0.72160   0.01330   0.46390   0.01267  Uiso   1.00
C10    C     0.28830   0.17160   0.42990   0.01267  Uiso   1.00
C11    C     0.63530   0.10010   0.42860   0.01267  Uiso   1.00
C12    C     0.40580   0.08480   0.46670   0.01267  Uiso   1.00
C13    C     0.81450   0.53610   0.47720   0.01267  Uiso   1.00
C14    C     0.28180   0.57010   0.60150   0.01267  Uiso   1.00
C15    C     0.93610   0.57140   0.52870   0.01267  Uiso   1.00
C16    C     0.12750   0.53330   0.55150   0.01267  Uiso   1.00
C17    C     0.29170   0.47720   0.98670   0.01267  Uiso   1.00
C18    C     0.88330   0.60150   0.82840   0.01267  Uiso   1.00
C19    C     0.46480   0.52870   0.89990   0.01267  Uiso   1.00
C20    C     0.67900   0.55150   0.91520   0.01267  Uiso   1.00
C21    C     0.27840   0.98670   0.53610   0.01267  Uiso   1.00
C22    C     0.71170   0.82840   0.57010   0.01267  Uiso   1.00
C23    C     0.36470   0.89990   0.57140   0.01267  Uiso   1.00
C24    C     0.59420   0.91520   0.53330   0.01267  Uiso   1.00
O1     O     0.13822   0.36365   0.44289   0.01267  Uiso   1.00
O2     O     0.71667   0.34634   0.39963   0.01267  Uiso   1.00
O3     O     0.58641   0.48460   0.35837   0.01267  Uiso   1.00
O4     O     0.58111   0.44289   0.19346   0.01267  Uiso   1.00
O5     O     0.11630   0.39963   0.25403   0.01267  Uiso   1.00
O6     O     0.94478   0.35837   0.15703   0.01267  Uiso   1.00
O7     O     0.77457   0.19346   0.36365   0.01267  Uiso   1.00
O8     O     0.37033   0.25403   0.34634   0.01267  Uiso   1.00
O9     O     0.10181   0.15703   0.48460   0.01267  Uiso   1.00
O10    O     0.86178   0.63635   0.55711   0.01267  Uiso   1.00
O11    O     0.28333   0.65366   0.60037   0.01267  Uiso   1.00
O12    O     0.41359   0.51540   0.64163   0.01267  Uiso   1.00
O13    O     0.41889   0.55711   0.80654   0.01267  Uiso   1.00
O14    O     0.88370   0.60037   0.74597   0.01267  Uiso   1.00
O15    O     0.05522   0.64163   0.84297   0.01267  Uiso   1.00
O16    O     0.22543   0.80654   0.63635   0.01267  Uiso   1.00
O17    O     0.62967   0.74597   0.65366   0.01267  Uiso   1.00
O18    O     0.89819   0.84297   0.51540   0.01267  Uiso   1.00
