data_image0
_cell_length_a       17.15
_cell_length_b       12.284
_cell_length_c       11.144
_cell_angle_alpha    90
_cell_angle_beta     127.549
_cell_angle_gamma    90

_symmetry_space_group_name_H-M    "P 1"
_symmetry_int_tables_number       1

loop_
  _symmetry_equiv_pos_as_xyz
  'x, y, z'

loop_
  _atom_site_label
  _atom_site_occupancy
  _atom_site_fract_x
  _atom_site_fract_y
  _atom_site_fract_z
  _atom_site_thermal_displace_type
  _atom_site_B_iso_or_equiv
  _atom_site_type_symbol
  Sm1      1.0000 0.21681  0.35192  0.12023  Biso   1.000  Sm
  O1       1.0000 0.16480  0.35550  0.27450  Biso   1.000  O
  O2       1.0000 0.22600  0.16830  0.20840  Biso   1.000  O
  O3       1.0000 0.12870  0.31560  0.42800  Biso   1.000  O
  O4       1.0000 0.20040  0.01640  0.28490  Biso   1.000  O
  C1       1.0000 0.13980  0.28890  0.33210  Biso   1.000  C
  C2       1.0000 0.11890  0.17160  0.27930  Biso   1.000  C
  C3       1.0000 0.18780  0.11610  0.25690  Biso   1.000  C
  O5       1.0000 0.05100  0.25750  0.94110  Biso   1.000  O
  O6       1.0000 0.15950  0.20960  0.90830  Biso   1.000  O
  C4       1.0000 0.07570  0.20100  0.87580  Biso   1.000  C
  H1       1.0000 0.05400  0.16700  0.18500  Biso   1.000  H
  H2       1.0000 0.02900  0.07400  0.71100  Biso   1.000  H
  H3       1.0000 0.11900  0.12600  0.36400  Biso   1.000  H
  Sm2      1.0000 0.71681  0.85192  0.12023  Biso   1.000  Sm
  O7       1.0000 0.66480  0.85550  0.27450  Biso   1.000  O
  O8       1.0000 0.72600  0.66830  0.20840  Biso   1.000  O
  O9       1.0000 0.62870  0.81560  0.42800  Biso   1.000  O
  O10      1.0000 0.70040  0.51640  0.28490  Biso   1.000  O
  C5       1.0000 0.63980  0.78890  0.33210  Biso   1.000  C
  C6       1.0000 0.61890  0.67160  0.27930  Biso   1.000  C
  C7       1.0000 0.68780  0.61610  0.25690  Biso   1.000  C
  O11      1.0000 0.55100  0.75750  0.94110  Biso   1.000  O
  O12      1.0000 0.65950  0.70960  0.90830  Biso   1.000  O
  C8       1.0000 0.57570  0.70100  0.87580  Biso   1.000  C
  H4       1.0000 0.55400  0.66700  0.18500  Biso   1.000  H
  H5       1.0000 0.52900  0.57400  0.71100  Biso   1.000  H
  H6       1.0000 0.61900  0.62600  0.36400  Biso   1.000  H
  Sm3      1.0000 0.78319  0.35192  0.37977  Biso   1.000  Sm
  O13      1.0000 0.83520  0.35550  0.22550  Biso   1.000  O
  O14      1.0000 0.77400  0.16830  0.29160  Biso   1.000  O
  O15      1.0000 0.87130  0.31560  0.07200  Biso   1.000  O
  O16      1.0000 0.79960  0.01640  0.21510  Biso   1.000  O
  C9       1.0000 0.86020  0.28890  0.16790  Biso   1.000  C
  C10      1.0000 0.88110  0.17160  0.22070  Biso   1.000  C
  C11      1.0000 0.81220  0.11610  0.24310  Biso   1.000  C
  O17      1.0000 0.94900  0.25750  0.55890  Biso   1.000  O
  O18      1.0000 0.84050  0.20960  0.59170  Biso   1.000  O
  C12      1.0000 0.92430  0.20100  0.62420  Biso   1.000  C
  H7       1.0000 0.94600  0.16700  0.31500  Biso   1.000  H
  H8       1.0000 0.97100  0.07400  0.78900  Biso   1.000  H
  H9       1.0000 0.88100  0.12600  0.13600  Biso   1.000  H
  Sm4      1.0000 0.28319  0.85192  0.37977  Biso   1.000  Sm
  O19      1.0000 0.33520  0.85550  0.22550  Biso   1.000  O
  O20      1.0000 0.27400  0.66830  0.29160  Biso   1.000  O
  O21      1.0000 0.37130  0.81560  0.07200  Biso   1.000  O
  O22      1.0000 0.29960  0.51640  0.21510  Biso   1.000  O
  C13      1.0000 0.36020  0.78890  0.16790  Biso   1.000  C
  C14      1.0000 0.38110  0.67160  0.22070  Biso   1.000  C
  C15      1.0000 0.31220  0.61610  0.24310  Biso   1.000  C
  O23      1.0000 0.44900  0.75750  0.55890  Biso   1.000  O
  O24      1.0000 0.34050  0.70960  0.59170  Biso   1.000  O
  C16      1.0000 0.42430  0.70100  0.62420  Biso   1.000  C
  H10      1.0000 0.44600  0.66700  0.31500  Biso   1.000  H
  H11      1.0000 0.47100  0.57400  0.78900  Biso   1.000  H
  H12      1.0000 0.38100  0.62600  0.13600  Biso   1.000  H
  Sm5      1.0000 0.78319  0.64808  0.87977  Biso   1.000  Sm
  O25      1.0000 0.83520  0.64450  0.72550  Biso   1.000  O
  O26      1.0000 0.77400  0.83170  0.79160  Biso   1.000  O
  O27      1.0000 0.87130  0.68440  0.57200  Biso   1.000  O
  O28      1.0000 0.79960  0.98360  0.71510  Biso   1.000  O
  C17      1.0000 0.86020  0.71110  0.66790  Biso   1.000  C
  C18      1.0000 0.88110  0.82840  0.72070  Biso   1.000  C
  C19      1.0000 0.81220  0.88390  0.74310  Biso   1.000  C
  O29      1.0000 0.94900  0.74250  0.05890  Biso   1.000  O
  O30      1.0000 0.84050  0.79040  0.09170  Biso   1.000  O
  C20      1.0000 0.92430  0.79900  0.12420  Biso   1.000  C
  H13      1.0000 0.94600  0.83300  0.81500  Biso   1.000  H
  H14      1.0000 0.97100  0.92600  0.28900  Biso   1.000  H
  H15      1.0000 0.88100  0.87400  0.63600  Biso   1.000  H
  Sm6      1.0000 0.28319  0.14808  0.87977  Biso   1.000  Sm
  O31      1.0000 0.33520  0.14450  0.72550  Biso   1.000  O
  O32      1.0000 0.27400  0.33170  0.79160  Biso   1.000  O
  O33      1.0000 0.37130  0.18440  0.57200  Biso   1.000  O
  O34      1.0000 0.29960  0.48360  0.71510  Biso   1.000  O
  C21      1.0000 0.36020  0.21110  0.66790  Biso   1.000  C
  C22      1.0000 0.38110  0.32840  0.72070  Biso   1.000  C
  C23      1.0000 0.31220  0.38390  0.74310  Biso   1.000  C
  O35      1.0000 0.44900  0.24250  0.05890  Biso   1.000  O
  O36      1.0000 0.34050  0.29040  0.09170  Biso   1.000  O
  C24      1.0000 0.42430  0.29900  0.12420  Biso   1.000  C
  H16      1.0000 0.44600  0.33300  0.81500  Biso   1.000  H
  H17      1.0000 0.47100  0.42600  0.28900  Biso   1.000  H
  H18      1.0000 0.38100  0.37400  0.63600  Biso   1.000  H
  Sm7      1.0000 0.21681  0.64808  0.62023  Biso   1.000  Sm
  O37      1.0000 0.16480  0.64450  0.77450  Biso   1.000  O
  O38      1.0000 0.22600  0.83170  0.70840  Biso   1.000  O
  O39      1.0000 0.12870  0.68440  0.92800  Biso   1.000  O
  O40      1.0000 0.20040  0.98360  0.78490  Biso   1.000  O
  C25      1.0000 0.13980  0.71110  0.83210  Biso   1.000  C
  C26      1.0000 0.11890  0.82840  0.77930  Biso   1.000  C
  C27      1.0000 0.18780  0.88390  0.75690  Biso   1.000  C
  O41      1.0000 0.05100  0.74250  0.44110  Biso   1.000  O
  O42      1.0000 0.15950  0.79040  0.40830  Biso   1.000  O
  C28      1.0000 0.07570  0.79900  0.37580  Biso   1.000  C
  H19      1.0000 0.05400  0.83300  0.68500  Biso   1.000  H
  H20      1.0000 0.02900  0.92600  0.21100  Biso   1.000  H
  H21      1.0000 0.11900  0.87400  0.86400  Biso   1.000  H
  Sm8      1.0000 0.71681  0.14808  0.62023  Biso   1.000  Sm
  O43      1.0000 0.66480  0.14450  0.77450  Biso   1.000  O
  O44      1.0000 0.72600  0.33170  0.70840  Biso   1.000  O
  O45      1.0000 0.62870  0.18440  0.92800  Biso   1.000  O
  O46      1.0000 0.70040  0.48360  0.78490  Biso   1.000  O
  C29      1.0000 0.63980  0.21110  0.83210  Biso   1.000  C
  C30      1.0000 0.61890  0.32840  0.77930  Biso   1.000  C
  C31      1.0000 0.68780  0.38390  0.75690  Biso   1.000  C
  O47      1.0000 0.55100  0.24250  0.44110  Biso   1.000  O
  O48      1.0000 0.65950  0.29040  0.40830  Biso   1.000  O
  C32      1.0000 0.57570  0.29900  0.37580  Biso   1.000  C
  H22      1.0000 0.55400  0.33300  0.68500  Biso   1.000  H
  H23      1.0000 0.52900  0.42600  0.21100  Biso   1.000  H
  H24      1.0000 0.61900  0.37400  0.86400  Biso   1.000  H
  C33      1.0000 0.00000  0.12510  0.75000  Biso   1.000  C
  C34      1.0000 0.50000  0.62510  0.75000  Biso   1.000  C
  C35      1.0000 0.00000  0.87490  0.25000  Biso   1.000  C
  C36      1.0000 0.50000  0.37490  0.25000  Biso   1.000  C
