data_image0
_cell_length_a       16.0503
_cell_length_b       16.0503
_cell_length_c       36.843
_cell_angle_alpha    90
_cell_angle_beta     90
_cell_angle_gamma    120

_symmetry_space_group_name_H-M    "P 1"
_symmetry_int_tables_number       1

loop_
  _symmetry_equiv_pos_as_xyz
  'x, y, z'

loop_
  _atom_site_label
  _atom_site_occupancy
  _atom_site_fract_x
  _atom_site_fract_y
  _atom_site_fract_z
  _atom_site_thermal_displace_type
  _atom_site_B_iso_or_equiv
  _atom_site_type_symbol
  O1       1.0000 0.82060  0.85150  0.11140  Biso   1.000  O
  O2       1.0000 0.20370  0.16200  0.10880  Biso   1.000  O
  N1       1.0000 0.39790  0.25620  0.11410  Biso   1.000  N
  C1       1.0000 0.39220  0.25090  0.15170  Biso   1.000  C
  H1       1.0000 0.34170  0.19770  0.16290  Biso   1.000  H
  C2       1.0000 0.46200  0.32520  0.17260  Biso   1.000  C
  H2       1.0000 0.45820  0.32160  0.19780  Biso   1.000  H
  C3       1.0000 0.53750  0.40470  0.15590  Biso   1.000  C
  C4       1.0000 0.54320  0.41000  0.11820  Biso   1.000  C
  H3       1.0000 0.59370  0.46320  0.10700  Biso   1.000  H
  C5       1.0000 0.47340  0.33570  0.09730  Biso   1.000  C
  H4       1.0000 0.47720  0.33930  0.07210  Biso   1.000  H
  N2       1.0000 0.75570  0.62740  0.21950  Biso   1.000  N
  C6       1.0000 0.76290  0.63440  0.18190  Biso   1.000  C
  H5       1.0000 0.81520  0.68690  0.17110  Biso   1.000  H
  C7       1.0000 0.69190  0.56310  0.16040  Biso   1.000  C
  H6       1.0000 0.69670  0.56780  0.13520  Biso   1.000  H
  C8       1.0000 0.61360  0.48470  0.17650  Biso   1.000  C
  C9       1.0000 0.60640  0.47760  0.21410  Biso   1.000  C
  H7       1.0000 0.55410  0.42520  0.22490  Biso   1.000  H
  C10      1.0000 0.67750  0.54900  0.23560  Biso   1.000  C
  H8       1.0000 0.67260  0.54420  0.26070  Biso   1.000  H
  C11      1.0000 0.96620  0.86440  0.12810  Biso   1.000  C
  H9       1.0000 0.95200  0.86650  0.15330  Biso   1.000  H
  H10      1.0000 0.03360  0.90670  0.12390  Biso   1.000  H
  H11      1.0000 0.94930  0.79990  0.12160  Biso   1.000  H
  C12      1.0000 0.91010  0.89530  0.10570  Biso   1.000  C
  C13      1.0000 0.11240  0.11530  0.10390  Biso   1.000  C
  C14      1.0000 0.05880  0.14910  0.12770  Biso   1.000  C
  H12      1.0000 0.00060  0.09450  0.13630  Biso   1.000  H
  H13      1.0000 0.04330  0.19040  0.11390  Biso   1.000  H
  H14      1.0000 0.09840  0.18400  0.14800  Biso   1.000  H
  O3       1.0000 0.14850  0.96910  0.44473  Biso   1.000  O
  O4       1.0000 0.83800  0.04170  0.44213  Biso   1.000  O
  N3       1.0000 0.74380  0.14170  0.44743  Biso   1.000  N
  C15      1.0000 0.74910  0.14130  0.48503  Biso   1.000  C
  H15      1.0000 0.80230  0.14400  0.49623  Biso   1.000  H
  C16      1.0000 0.67480  0.13680  0.50593  Biso   1.000  C
  H16      1.0000 0.67840  0.13660  0.53113  Biso   1.000  H
  C17      1.0000 0.59530  0.13280  0.48923  Biso   1.000  C
  C18      1.0000 0.59000  0.13320  0.45153  Biso   1.000  C
  H17      1.0000 0.53680  0.13050  0.44033  Biso   1.000  H
  C19      1.0000 0.66430  0.13770  0.43063  Biso   1.000  C
  H18      1.0000 0.66070  0.13790  0.40543  Biso   1.000  H
  N4       1.0000 0.37260  0.12830  0.55283  Biso   1.000  N
  C20      1.0000 0.36560  0.12850  0.51523  Biso   1.000  C
  H19      1.0000 0.31310  0.12830  0.50443  Biso   1.000  H
  C21      1.0000 0.43690  0.12880  0.49373  Biso   1.000  C
  H20      1.0000 0.43220  0.12890  0.46853  Biso   1.000  H
  C22      1.0000 0.51530  0.12890  0.50983  Biso   1.000  C
  C23      1.0000 0.52240  0.12880  0.54743  Biso   1.000  C
  H21      1.0000 0.57480  0.12890  0.55823  Biso   1.000  H
  C24      1.0000 0.45100  0.12850  0.56893  Biso   1.000  C
  H22      1.0000 0.45580  0.12840  0.59403  Biso   1.000  H
  C25      1.0000 0.13560  0.10180  0.46143  Biso   1.000  C
  H23      1.0000 0.13350  0.08550  0.48663  Biso   1.000  H
  H24      1.0000 0.09330  0.12690  0.45723  Biso   1.000  H
  H25      1.0000 0.20010  0.14940  0.45493  Biso   1.000  H
  C26      1.0000 0.10470  0.01480  0.43903  Biso   1.000  C
  C27      1.0000 0.88470  0.99710  0.43723  Biso   1.000  C
  C28      1.0000 0.85090  0.90970  0.46103  Biso   1.000  C
  H26      1.0000 0.90550  0.90610  0.46963  Biso   1.000  H
  H27      1.0000 0.80960  0.85290  0.44723  Biso   1.000  H
  H28      1.0000 0.81600  0.91440  0.48133  Biso   1.000  H
  O5       1.0000 0.03090  0.17940  0.77807  Biso   1.000  O
  O6       1.0000 0.95830  0.79630  0.77547  Biso   1.000  O
  N5       1.0000 0.85830  0.60210  0.78077  Biso   1.000  N
  C29      1.0000 0.85870  0.60780  0.81837  Biso   1.000  C
  H29      1.0000 0.85600  0.65830  0.82957  Biso   1.000  H
  C30      1.0000 0.86320  0.53800  0.83927  Biso   1.000  C
  H30      1.0000 0.86340  0.54180  0.86447  Biso   1.000  H
  C31      1.0000 0.86720  0.46250  0.82257  Biso   1.000  C
  C32      1.0000 0.86680  0.45680  0.78487  Biso   1.000  C
  H31      1.0000 0.86950  0.40630  0.77367  Biso   1.000  H
  C33      1.0000 0.86230  0.52660  0.76397  Biso   1.000  C
  H32      1.0000 0.86210  0.52280  0.73877  Biso   1.000  H
  N6       1.0000 0.87170  0.24430  0.88617  Biso   1.000  N
  C34      1.0000 0.87150  0.23710  0.84857  Biso   1.000  C
  H33      1.0000 0.87170  0.18480  0.83777  Biso   1.000  H
  C35      1.0000 0.87120  0.30810  0.82707  Biso   1.000  C
  H34      1.0000 0.87110  0.30330  0.80187  Biso   1.000  H
  C36      1.0000 0.87110  0.38640  0.84317  Biso   1.000  C
  C37      1.0000 0.87120  0.39360  0.88077  Biso   1.000  C
  H35      1.0000 0.87110  0.44590  0.89157  Biso   1.000  H
  C38      1.0000 0.87150  0.32250  0.90227  Biso   1.000  C
  H36      1.0000 0.87160  0.32740  0.92737  Biso   1.000  H
  C39      1.0000 0.89820  0.03380  0.79477  Biso   1.000  C
  H37      1.0000 0.91450  0.04800  0.81997  Biso   1.000  H
  H38      1.0000 0.87310  0.96640  0.79057  Biso   1.000  H
  H39      1.0000 0.85060  0.05070  0.78827  Biso   1.000  H
  C40      1.0000 0.98520  0.08990  0.77237  Biso   1.000  C
  C41      1.0000 0.00290  0.88760  0.77057  Biso   1.000  C
  C42      1.0000 0.09030  0.94120  0.79437  Biso   1.000  C
  H40      1.0000 0.09390  0.99940  0.80297  Biso   1.000  H
  H41      1.0000 0.14710  0.95670  0.78057  Biso   1.000  H
  H42      1.0000 0.08560  0.90160  0.81467  Biso   1.000  H
  O7       1.0000 0.17940  0.14850  0.61140  Biso   1.000  O
  O8       1.0000 0.79630  0.83800  0.60880  Biso   1.000  O
  N7       1.0000 0.60210  0.74380  0.61410  Biso   1.000  N
  C43      1.0000 0.60780  0.74910  0.65170  Biso   1.000  C
  H43      1.0000 0.65830  0.80230  0.66290  Biso   1.000  H
  C44      1.0000 0.53800  0.67480  0.67260  Biso   1.000  C
  H44      1.0000 0.54180  0.67840  0.69780  Biso   1.000  H
  C45      1.0000 0.46250  0.59530  0.65590  Biso   1.000  C
  C46      1.0000 0.45680  0.59000  0.61820  Biso   1.000  C
  H45      1.0000 0.40630  0.53680  0.60700  Biso   1.000  H
  C47      1.0000 0.52660  0.66430  0.59730  Biso   1.000  C
  H46      1.0000 0.52280  0.66070  0.57210  Biso   1.000  H
  N8       1.0000 0.24430  0.37260  0.71950  Biso   1.000  N
  C48      1.0000 0.23710  0.36560  0.68190  Biso   1.000  C
  H47      1.0000 0.18480  0.31310  0.67110  Biso   1.000  H
  C49      1.0000 0.30810  0.43690  0.66040  Biso   1.000  C
  H48      1.0000 0.30330  0.43220  0.63520  Biso   1.000  H
  C50      1.0000 0.38640  0.51530  0.67650  Biso   1.000  C
  C51      1.0000 0.39360  0.52240  0.71410  Biso   1.000  C
  H49      1.0000 0.44590  0.57480  0.72490  Biso   1.000  H
  C52      1.0000 0.32250  0.45100  0.73560  Biso   1.000  C
  H50      1.0000 0.32740  0.45580  0.76070  Biso   1.000  H
  C53      1.0000 0.03380  0.13560  0.62810  Biso   1.000  C
  H51      1.0000 0.04800  0.13350  0.65330  Biso   1.000  H
  H52      1.0000 0.96640  0.09330  0.62390  Biso   1.000  H
  H53      1.0000 0.05070  0.20010  0.62160  Biso   1.000  H
  C54      1.0000 0.08990  0.10470  0.60570  Biso   1.000  C
  C55      1.0000 0.88760  0.88470  0.60390  Biso   1.000  C
  C56      1.0000 0.94120  0.85090  0.62770  Biso   1.000  C
  H54      1.0000 0.99940  0.90550  0.63630  Biso   1.000  H
  H55      1.0000 0.95670  0.80960  0.61390  Biso   1.000  H
  H56      1.0000 0.90160  0.81600  0.64800  Biso   1.000  H
  O9       1.0000 0.85150  0.03090  0.94473  Biso   1.000  O
  O10      1.0000 0.16200  0.95830  0.94213  Biso   1.000  O
  N9       1.0000 0.25620  0.85830  0.94743  Biso   1.000  N
  C57      1.0000 0.25090  0.85870  0.98503  Biso   1.000  C
  H57      1.0000 0.19770  0.85600  0.99623  Biso   1.000  H
  C58      1.0000 0.32520  0.86320  0.00593  Biso   1.000  C
  H58      1.0000 0.32160  0.86340  0.03113  Biso   1.000  H
  C59      1.0000 0.40470  0.86720  0.98923  Biso   1.000  C
  C60      1.0000 0.41000  0.86680  0.95153  Biso   1.000  C
  H59      1.0000 0.46320  0.86950  0.94033  Biso   1.000  H
  C61      1.0000 0.33570  0.86230  0.93063  Biso   1.000  C
  H60      1.0000 0.33930  0.86210  0.90543  Biso   1.000  H
  N10      1.0000 0.62740  0.87170  0.05283  Biso   1.000  N
  C62      1.0000 0.63440  0.87150  0.01523  Biso   1.000  C
  H61      1.0000 0.68690  0.87170  0.00443  Biso   1.000  H
  C63      1.0000 0.56310  0.87120  0.99373  Biso   1.000  C
  H62      1.0000 0.56780  0.87110  0.96853  Biso   1.000  H
  C64      1.0000 0.48470  0.87110  0.00983  Biso   1.000  C
  C65      1.0000 0.47760  0.87120  0.04743  Biso   1.000  C
  H63      1.0000 0.42520  0.87110  0.05823  Biso   1.000  H
  C66      1.0000 0.54900  0.87150  0.06893  Biso   1.000  C
  H64      1.0000 0.54420  0.87160  0.09403  Biso   1.000  H
  C67      1.0000 0.86440  0.89820  0.96143  Biso   1.000  C
  H65      1.0000 0.86650  0.91450  0.98663  Biso   1.000  H
  H66      1.0000 0.90670  0.87310  0.95723  Biso   1.000  H
  H67      1.0000 0.79990  0.85060  0.95493  Biso   1.000  H
  C68      1.0000 0.89530  0.98520  0.93903  Biso   1.000  C
  C69      1.0000 0.11530  0.00290  0.93723  Biso   1.000  C
  C70      1.0000 0.14910  0.09030  0.96103  Biso   1.000  C
  H68      1.0000 0.09450  0.09390  0.96963  Biso   1.000  H
  H69      1.0000 0.19040  0.14710  0.94723  Biso   1.000  H
  H70      1.0000 0.18400  0.08560  0.98133  Biso   1.000  H
  O11      1.0000 0.96910  0.82060  0.27807  Biso   1.000  O
  O12      1.0000 0.04170  0.20370  0.27547  Biso   1.000  O
  N11      1.0000 0.14170  0.39790  0.28077  Biso   1.000  N
  C71      1.0000 0.14130  0.39220  0.31837  Biso   1.000  C
  H71      1.0000 0.14400  0.34170  0.32957  Biso   1.000  H
  C72      1.0000 0.13680  0.46200  0.33927  Biso   1.000  C
  H72      1.0000 0.13660  0.45820  0.36447  Biso   1.000  H
  C73      1.0000 0.13280  0.53750  0.32257  Biso   1.000  C
  C74      1.0000 0.13320  0.54320  0.28487  Biso   1.000  C
  H73      1.0000 0.13050  0.59370  0.27367  Biso   1.000  H
  C75      1.0000 0.13770  0.47340  0.26397  Biso   1.000  C
  H74      1.0000 0.13790  0.47720  0.23877  Biso   1.000  H
  N12      1.0000 0.12830  0.75570  0.38617  Biso   1.000  N
  C76      1.0000 0.12850  0.76290  0.34857  Biso   1.000  C
  H75      1.0000 0.12830  0.81520  0.33777  Biso   1.000  H
  C77      1.0000 0.12880  0.69190  0.32707  Biso   1.000  C
  H76      1.0000 0.12890  0.69670  0.30187  Biso   1.000  H
  C78      1.0000 0.12890  0.61360  0.34317  Biso   1.000  C
  C79      1.0000 0.12880  0.60640  0.38077  Biso   1.000  C
  H77      1.0000 0.12890  0.55410  0.39157  Biso   1.000  H
  C80      1.0000 0.12850  0.67750  0.40227  Biso   1.000  C
  H78      1.0000 0.12840  0.67260  0.42737  Biso   1.000  H
  C81      1.0000 0.10180  0.96620  0.29477  Biso   1.000  C
  H79      1.0000 0.08550  0.95200  0.31997  Biso   1.000  H
  H80      1.0000 0.12690  0.03360  0.29057  Biso   1.000  H
  H81      1.0000 0.14940  0.94930  0.28827  Biso   1.000  H
  C82      1.0000 0.01480  0.91010  0.27237  Biso   1.000  C
  C83      1.0000 0.99710  0.11240  0.27057  Biso   1.000  C
  C84      1.0000 0.90970  0.05880  0.29437  Biso   1.000  C
  H82      1.0000 0.90610  0.00060  0.30297  Biso   1.000  H
  H83      1.0000 0.85290  0.04330  0.28057  Biso   1.000  H
  H84      1.0000 0.91440  0.09840  0.31467  Biso   1.000  H
  O13      1.0000 0.85150  0.82060  0.22193  Biso   1.000  O
  O14      1.0000 0.16200  0.20370  0.22453  Biso   1.000  O
  N13      1.0000 0.25620  0.39790  0.21923  Biso   1.000  N
  C85      1.0000 0.25090  0.39220  0.18163  Biso   1.000  C
  H85      1.0000 0.19770  0.34170  0.17043  Biso   1.000  H
  C86      1.0000 0.32520  0.46200  0.16073  Biso   1.000  C
  H86      1.0000 0.32160  0.45820  0.13553  Biso   1.000  H
  C87      1.0000 0.40470  0.53750  0.17743  Biso   1.000  C
  C88      1.0000 0.41000  0.54320  0.21513  Biso   1.000  C
  H87      1.0000 0.46320  0.59370  0.22633  Biso   1.000  H
  C89      1.0000 0.33570  0.47340  0.23603  Biso   1.000  C
  H88      1.0000 0.33930  0.47720  0.26123  Biso   1.000  H
  N14      1.0000 0.62740  0.75570  0.11383  Biso   1.000  N
  C90      1.0000 0.63440  0.76290  0.15143  Biso   1.000  C
  H89      1.0000 0.68690  0.81520  0.16223  Biso   1.000  H
  C91      1.0000 0.56310  0.69190  0.17293  Biso   1.000  C
  H90      1.0000 0.56780  0.69670  0.19813  Biso   1.000  H
  C92      1.0000 0.48470  0.61360  0.15683  Biso   1.000  C
  C93      1.0000 0.47760  0.60640  0.11923  Biso   1.000  C
  H91      1.0000 0.42520  0.55410  0.10843  Biso   1.000  H
  C94      1.0000 0.54900  0.67750  0.09773  Biso   1.000  C
  H92      1.0000 0.54420  0.67260  0.07263  Biso   1.000  H
  C95      1.0000 0.86440  0.96620  0.20523  Biso   1.000  C
  H93      1.0000 0.86650  0.95200  0.18003  Biso   1.000  H
  H94      1.0000 0.90670  0.03360  0.20943  Biso   1.000  H
  H95      1.0000 0.79990  0.94930  0.21173  Biso   1.000  H
  C96      1.0000 0.89530  0.91010  0.22763  Biso   1.000  C
  C97      1.0000 0.11530  0.11240  0.22943  Biso   1.000  C
  C98      1.0000 0.14910  0.05880  0.20563  Biso   1.000  C
  H96      1.0000 0.09450  0.00060  0.19703  Biso   1.000  H
  H97      1.0000 0.19040  0.04330  0.21943  Biso   1.000  H
  H98      1.0000 0.18400  0.09840  0.18533  Biso   1.000  H
  O15      1.0000 0.96910  0.14850  0.88860  Biso   1.000  O
  O16      1.0000 0.04170  0.83800  0.89120  Biso   1.000  O
  N15      1.0000 0.14170  0.74380  0.88590  Biso   1.000  N
  C99      1.0000 0.14130  0.74910  0.84830  Biso   1.000  C
  H99      1.0000 0.14400  0.80230  0.83710  Biso   1.000  H
  C100     1.0000 0.13680  0.67480  0.82740  Biso   1.000  C
  H100     1.0000 0.13660  0.67840  0.80220  Biso   1.000  H
  C101     1.0000 0.13280  0.59530  0.84410  Biso   1.000  C
  C102     1.0000 0.13320  0.59000  0.88180  Biso   1.000  C
  H101     1.0000 0.13050  0.53680  0.89300  Biso   1.000  H
  C103     1.0000 0.13770  0.66430  0.90270  Biso   1.000  C
  H102     1.0000 0.13790  0.66070  0.92790  Biso   1.000  H
  N16      1.0000 0.12830  0.37260  0.78050  Biso   1.000  N
  C104     1.0000 0.12850  0.36560  0.81810  Biso   1.000  C
  H103     1.0000 0.12830  0.31310  0.82890  Biso   1.000  H
  C105     1.0000 0.12880  0.43690  0.83960  Biso   1.000  C
  H104     1.0000 0.12890  0.43220  0.86480  Biso   1.000  H
  C106     1.0000 0.12890  0.51530  0.82350  Biso   1.000  C
  C107     1.0000 0.12880  0.52240  0.78590  Biso   1.000  C
  H105     1.0000 0.12890  0.57480  0.77510  Biso   1.000  H
  C108     1.0000 0.12850  0.45100  0.76440  Biso   1.000  C
  H106     1.0000 0.12840  0.45580  0.73930  Biso   1.000  H
  C109     1.0000 0.10180  0.13560  0.87190  Biso   1.000  C
  H107     1.0000 0.08550  0.13350  0.84670  Biso   1.000  H
  H108     1.0000 0.12690  0.09330  0.87610  Biso   1.000  H
  H109     1.0000 0.14940  0.20010  0.87840  Biso   1.000  H
  C110     1.0000 0.01480  0.10470  0.89430  Biso   1.000  C
  C111     1.0000 0.99710  0.88470  0.89610  Biso   1.000  C
  C112     1.0000 0.90970  0.85090  0.87230  Biso   1.000  C
  H110     1.0000 0.90610  0.90550  0.86370  Biso   1.000  H
  H111     1.0000 0.85290  0.80960  0.88610  Biso   1.000  H
  H112     1.0000 0.91440  0.81600  0.85200  Biso   1.000  H
  O17      1.0000 0.17940  0.03090  0.55527  Biso   1.000  O
  O18      1.0000 0.79630  0.95830  0.55787  Biso   1.000  O
  N17      1.0000 0.60210  0.85830  0.55257  Biso   1.000  N
  C113     1.0000 0.60780  0.85870  0.51497  Biso   1.000  C
  H113     1.0000 0.65830  0.85600  0.50377  Biso   1.000  H
  C114     1.0000 0.53800  0.86320  0.49407  Biso   1.000  C
  H114     1.0000 0.54180  0.86340  0.46887  Biso   1.000  H
  C115     1.0000 0.46250  0.86720  0.51077  Biso   1.000  C
  C116     1.0000 0.45680  0.86680  0.54847  Biso   1.000  C
  H115     1.0000 0.40630  0.86950  0.55967  Biso   1.000  H
  C117     1.0000 0.52660  0.86230  0.56937  Biso   1.000  C
  H116     1.0000 0.52280  0.86210  0.59457  Biso   1.000  H
  N18      1.0000 0.24430  0.87170  0.44717  Biso   1.000  N
  C118     1.0000 0.23710  0.87150  0.48477  Biso   1.000  C
  H117     1.0000 0.18480  0.87170  0.49557  Biso   1.000  H
  C119     1.0000 0.30810  0.87120  0.50627  Biso   1.000  C
  H118     1.0000 0.30330  0.87110  0.53147  Biso   1.000  H
  C120     1.0000 0.38640  0.87110  0.49017  Biso   1.000  C
  C121     1.0000 0.39360  0.87120  0.45257  Biso   1.000  C
  H119     1.0000 0.44590  0.87110  0.44177  Biso   1.000  H
  C122     1.0000 0.32250  0.87150  0.43107  Biso   1.000  C
  H120     1.0000 0.32740  0.87160  0.40597  Biso   1.000  H
  C123     1.0000 0.03380  0.89820  0.53857  Biso   1.000  C
  H121     1.0000 0.04800  0.91450  0.51337  Biso   1.000  H
  H122     1.0000 0.96640  0.87310  0.54277  Biso   1.000  H
  H123     1.0000 0.05070  0.85060  0.54507  Biso   1.000  H
  C124     1.0000 0.08990  0.98520  0.56097  Biso   1.000  C
  C125     1.0000 0.88760  0.00290  0.56277  Biso   1.000  C
  C126     1.0000 0.94120  0.09030  0.53897  Biso   1.000  C
  H124     1.0000 0.99940  0.09390  0.53037  Biso   1.000  H
  H125     1.0000 0.95670  0.14710  0.55277  Biso   1.000  H
  H126     1.0000 0.90160  0.08560  0.51867  Biso   1.000  H
  O19      1.0000 0.14850  0.17940  0.72193  Biso   1.000  O
  O20      1.0000 0.83800  0.79630  0.72453  Biso   1.000  O
  N19      1.0000 0.74380  0.60210  0.71923  Biso   1.000  N
  C127     1.0000 0.74910  0.60780  0.68163  Biso   1.000  C
  H127     1.0000 0.80230  0.65830  0.67043  Biso   1.000  H
  C128     1.0000 0.67480  0.53800  0.66073  Biso   1.000  C
  H128     1.0000 0.67840  0.54180  0.63553  Biso   1.000  H
  C129     1.0000 0.59530  0.46250  0.67743  Biso   1.000  C
  C130     1.0000 0.59000  0.45680  0.71513  Biso   1.000  C
  H129     1.0000 0.53680  0.40630  0.72633  Biso   1.000  H
  C131     1.0000 0.66430  0.52660  0.73603  Biso   1.000  C
  H130     1.0000 0.66070  0.52280  0.76123  Biso   1.000  H
  N20      1.0000 0.37260  0.24430  0.61383  Biso   1.000  N
  C132     1.0000 0.36560  0.23710  0.65143  Biso   1.000  C
  H131     1.0000 0.31310  0.18480  0.66223  Biso   1.000  H
  C133     1.0000 0.43690  0.30810  0.67293  Biso   1.000  C
  H132     1.0000 0.43220  0.30330  0.69813  Biso   1.000  H
  C134     1.0000 0.51530  0.38640  0.65683  Biso   1.000  C
  C135     1.0000 0.52240  0.39360  0.61923  Biso   1.000  C
  H133     1.0000 0.57480  0.44590  0.60843  Biso   1.000  H
  C136     1.0000 0.45100  0.32250  0.59773  Biso   1.000  C
  H134     1.0000 0.45580  0.32740  0.57263  Biso   1.000  H
  C137     1.0000 0.13560  0.03380  0.70523  Biso   1.000  C
  H135     1.0000 0.13350  0.04800  0.68003  Biso   1.000  H
  H136     1.0000 0.09330  0.96640  0.70943  Biso   1.000  H
  H137     1.0000 0.20010  0.05070  0.71173  Biso   1.000  H
  C138     1.0000 0.10470  0.08990  0.72763  Biso   1.000  C
  C139     1.0000 0.88470  0.88760  0.72943  Biso   1.000  C
  C140     1.0000 0.85090  0.94120  0.70563  Biso   1.000  C
  H138     1.0000 0.90550  0.99940  0.69703  Biso   1.000  H
  H139     1.0000 0.80960  0.95670  0.71943  Biso   1.000  H
  H140     1.0000 0.81600  0.90160  0.68533  Biso   1.000  H
  O21      1.0000 0.03090  0.85150  0.38860  Biso   1.000  O
  O22      1.0000 0.95830  0.16200  0.39120  Biso   1.000  O
  N21      1.0000 0.85830  0.25620  0.38590  Biso   1.000  N
  C141     1.0000 0.85870  0.25090  0.34830  Biso   1.000  C
  H141     1.0000 0.85600  0.19770  0.33710  Biso   1.000  H
  C142     1.0000 0.86320  0.32520  0.32740  Biso   1.000  C
  H142     1.0000 0.86340  0.32160  0.30220  Biso   1.000  H
  C143     1.0000 0.86720  0.40470  0.34410  Biso   1.000  C
  C144     1.0000 0.86680  0.41000  0.38180  Biso   1.000  C
  H143     1.0000 0.86950  0.46320  0.39300  Biso   1.000  H
  C145     1.0000 0.86230  0.33570  0.40270  Biso   1.000  C
  H144     1.0000 0.86210  0.33930  0.42790  Biso   1.000  H
  N22      1.0000 0.87170  0.62740  0.28050  Biso   1.000  N
  C146     1.0000 0.87150  0.63440  0.31810  Biso   1.000  C
  H145     1.0000 0.87170  0.68690  0.32890  Biso   1.000  H
  C147     1.0000 0.87120  0.56310  0.33960  Biso   1.000  C
  H146     1.0000 0.87110  0.56780  0.36480  Biso   1.000  H
  C148     1.0000 0.87110  0.48470  0.32350  Biso   1.000  C
  C149     1.0000 0.87120  0.47760  0.28590  Biso   1.000  C
  H147     1.0000 0.87110  0.42520  0.27510  Biso   1.000  H
  C150     1.0000 0.87150  0.54900  0.26440  Biso   1.000  C
  H148     1.0000 0.87160  0.54420  0.23930  Biso   1.000  H
  C151     1.0000 0.89820  0.86440  0.37190  Biso   1.000  C
  H149     1.0000 0.91450  0.86650  0.34670  Biso   1.000  H
  H150     1.0000 0.87310  0.90670  0.37610  Biso   1.000  H
  H151     1.0000 0.85060  0.79990  0.37840  Biso   1.000  H
  C152     1.0000 0.98520  0.89530  0.39430  Biso   1.000  C
  C153     1.0000 0.00290  0.11530  0.39610  Biso   1.000  C
  C154     1.0000 0.09030  0.14910  0.37230  Biso   1.000  C
  H152     1.0000 0.09390  0.09450  0.36370  Biso   1.000  H
  H153     1.0000 0.14710  0.19040  0.38610  Biso   1.000  H
  H154     1.0000 0.08560  0.18400  0.35200  Biso   1.000  H
  O23      1.0000 0.82060  0.96910  0.05527  Biso   1.000  O
  O24      1.0000 0.20370  0.04170  0.05787  Biso   1.000  O
  N23      1.0000 0.39790  0.14170  0.05257  Biso   1.000  N
  C155     1.0000 0.39220  0.14130  0.01497  Biso   1.000  C
  H155     1.0000 0.34170  0.14400  0.00377  Biso   1.000  H
  C156     1.0000 0.46200  0.13680  0.99407  Biso   1.000  C
  H156     1.0000 0.45820  0.13660  0.96887  Biso   1.000  H
  C157     1.0000 0.53750  0.13280  0.01077  Biso   1.000  C
  C158     1.0000 0.54320  0.13320  0.04847  Biso   1.000  C
  H157     1.0000 0.59370  0.13050  0.05967  Biso   1.000  H
  C159     1.0000 0.47340  0.13770  0.06937  Biso   1.000  C
  H158     1.0000 0.47720  0.13790  0.09457  Biso   1.000  H
  N24      1.0000 0.75570  0.12830  0.94717  Biso   1.000  N
  C160     1.0000 0.76290  0.12850  0.98477  Biso   1.000  C
  H159     1.0000 0.81520  0.12830  0.99557  Biso   1.000  H
  C161     1.0000 0.69190  0.12880  0.00627  Biso   1.000  C
  H160     1.0000 0.69670  0.12890  0.03147  Biso   1.000  H
  C162     1.0000 0.61360  0.12890  0.99017  Biso   1.000  C
  C163     1.0000 0.60640  0.12880  0.95257  Biso   1.000  C
  H161     1.0000 0.55410  0.12890  0.94177  Biso   1.000  H
  C164     1.0000 0.67750  0.12850  0.93107  Biso   1.000  C
  H162     1.0000 0.67260  0.12840  0.90597  Biso   1.000  H
  C165     1.0000 0.96620  0.10180  0.03857  Biso   1.000  C
  H163     1.0000 0.95200  0.08550  0.01337  Biso   1.000  H
  H164     1.0000 0.03360  0.12690  0.04277  Biso   1.000  H
  H165     1.0000 0.94930  0.14940  0.04507  Biso   1.000  H
  C166     1.0000 0.91010  0.01480  0.06097  Biso   1.000  C
  C167     1.0000 0.11240  0.99710  0.06277  Biso   1.000  C
  C168     1.0000 0.05880  0.90970  0.03897  Biso   1.000  C
  H166     1.0000 0.00060  0.90610  0.03037  Biso   1.000  H
  H167     1.0000 0.04330  0.85290  0.05277  Biso   1.000  H
  H168     1.0000 0.09840  0.91440  0.01867  Biso   1.000  H
  Cu1      1.0000 0.29777  0.14889  0.08333  Biso   1.000  Cu
  Cu2      1.0000 0.72617  0.86309  0.08333  Biso   1.000  Cu
  C169     1.0000 0.95480  0.97740  0.08333  Biso   1.000  C
  C170     1.0000 0.06960  0.03480  0.08333  Biso   1.000  C
  Cu3      1.0000 0.85111  0.14889  0.41667  Biso   1.000  Cu
  Cu4      1.0000 0.13691  0.86308  0.41667  Biso   1.000  Cu
  C171     1.0000 0.02260  0.97740  0.41667  Biso   1.000  C
  C172     1.0000 0.96520  0.03480  0.41667  Biso   1.000  C
  Cu5      1.0000 0.85111  0.70223  0.75000  Biso   1.000  Cu
  Cu6      1.0000 0.13692  0.27383  0.75000  Biso   1.000  Cu
  C173     1.0000 0.02260  0.04520  0.75000  Biso   1.000  C
  C174     1.0000 0.96520  0.93040  0.75000  Biso   1.000  C
  Cu7      1.0000 0.70223  0.85111  0.58333  Biso   1.000  Cu
  Cu8      1.0000 0.27383  0.13691  0.58333  Biso   1.000  Cu
  C175     1.0000 0.04520  0.02260  0.58333  Biso   1.000  C
  C176     1.0000 0.93040  0.96520  0.58333  Biso   1.000  C
  Cu9      1.0000 0.14889  0.85111  0.91667  Biso   1.000  Cu
  Cu10     1.0000 0.86309  0.13692  0.91667  Biso   1.000  Cu
  C177     1.0000 0.97740  0.02260  0.91667  Biso   1.000  C
  C178     1.0000 0.03480  0.96520  0.91667  Biso   1.000  C
  Cu11     1.0000 0.14889  0.29777  0.25000  Biso   1.000  Cu
  Cu12     1.0000 0.86309  0.72617  0.25000  Biso   1.000  Cu
  C179     1.0000 0.97740  0.95480  0.25000  Biso   1.000  C
  C180     1.0000 0.03480  0.06960  0.25000  Biso   1.000  C
