data_image0
_cell_length_a       8.803
_cell_length_b       8.803
_cell_length_c       25.292
_cell_angle_alpha    90
_cell_angle_beta     90
_cell_angle_gamma    120

_symmetry_space_group_name_H-M    "P 1"
_symmetry_int_tables_number       1

loop_
  _symmetry_equiv_pos_as_xyz
  'x, y, z'

loop_
  _atom_site_label
  _atom_site_occupancy
  _atom_site_fract_x
  _atom_site_fract_y
  _atom_site_fract_z
  _atom_site_thermal_displace_type
  _atom_site_B_iso_or_equiv
  _atom_site_type_symbol
  P1       1.0000 0.04553  0.48920  0.07029  Biso   1.000  P
  H1       1.0000 0.05500  0.62600  0.06860  Biso   1.000  H
  O1       1.0000 0.13220  0.48960  0.12272  Biso   1.000  O
  O2       1.0000 0.85520  0.33880  0.06944  Biso   1.000  O
  O3       1.0000 0.14730  0.47950  0.02279  Biso   1.000  O
  P2       1.0000 0.71220  0.82253  0.40362  Biso   1.000  P
  H2       1.0000 0.72167  0.95933  0.40193  Biso   1.000  H
  O4       1.0000 0.79887  0.82293  0.45605  Biso   1.000  O
  O5       1.0000 0.52187  0.67213  0.40277  Biso   1.000  O
  O6       1.0000 0.81397  0.81283  0.35612  Biso   1.000  O
  P3       1.0000 0.37886  0.15587  0.73696  Biso   1.000  P
  H3       1.0000 0.38833  0.29267  0.73527  Biso   1.000  H
  O7       1.0000 0.46553  0.15627  0.78939  Biso   1.000  O
  O8       1.0000 0.18853  0.00547  0.73611  Biso   1.000  O
  O9       1.0000 0.48063  0.14617  0.68946  Biso   1.000  O
  P4       1.0000 0.51080  0.55633  0.07029  Biso   1.000  P
  H4       1.0000 0.37400  0.42900  0.06860  Biso   1.000  H
  O10      1.0000 0.51040  0.64260  0.12272  Biso   1.000  O
  O11      1.0000 0.66120  0.51640  0.06944  Biso   1.000  O
  O12      1.0000 0.52050  0.66780  0.02279  Biso   1.000  O
  P5       1.0000 0.17747  0.88966  0.40362  Biso   1.000  P
  H5       1.0000 0.04067  0.76233  0.40193  Biso   1.000  H
  O13      1.0000 0.17707  0.97593  0.45605  Biso   1.000  O
  O14      1.0000 0.32787  0.84973  0.40277  Biso   1.000  O
  O15      1.0000 0.18717  0.00113  0.35612  Biso   1.000  O
  P6       1.0000 0.84413  0.22300  0.73696  Biso   1.000  P
  H6       1.0000 0.70733  0.09567  0.73527  Biso   1.000  H
  O16      1.0000 0.84373  0.30927  0.78939  Biso   1.000  O
  O17      1.0000 0.99453  0.18307  0.73611  Biso   1.000  O
  O18      1.0000 0.85383  0.33447  0.68946  Biso   1.000  O
  P7       1.0000 0.44367  0.95447  0.07029  Biso   1.000  P
  H7       1.0000 0.57100  0.94500  0.06860  Biso   1.000  H
  O19      1.0000 0.35740  0.86780  0.12272  Biso   1.000  O
  O20      1.0000 0.48360  0.14480  0.06944  Biso   1.000  O
  O21      1.0000 0.33220  0.85270  0.02279  Biso   1.000  O
  P8       1.0000 0.11034  0.28780  0.40362  Biso   1.000  P
  H8       1.0000 0.23767  0.27833  0.40193  Biso   1.000  H
  O22      1.0000 0.02407  0.20113  0.45605  Biso   1.000  O
  O23      1.0000 0.15027  0.47813  0.40277  Biso   1.000  O
  O24      1.0000 0.99887  0.18603  0.35612  Biso   1.000  O
  P9       1.0000 0.77700  0.62114  0.73696  Biso   1.000  P
  H9       1.0000 0.90433  0.61167  0.73527  Biso   1.000  H
  O25      1.0000 0.69073  0.53447  0.78939  Biso   1.000  O
  O26      1.0000 0.81693  0.81147  0.73611  Biso   1.000  O
  O27      1.0000 0.66553  0.51937  0.68946  Biso   1.000  O
  P10      1.0000 0.95447  0.51080  0.92971  Biso   1.000  P
  H10      1.0000 0.94500  0.37400  0.93140  Biso   1.000  H
  O28      1.0000 0.86780  0.51040  0.87728  Biso   1.000  O
  O29      1.0000 0.14480  0.66120  0.93056  Biso   1.000  O
  O30      1.0000 0.85270  0.52050  0.97721  Biso   1.000  O
  P11      1.0000 0.62114  0.84413  0.26304  Biso   1.000  P
  H11      1.0000 0.61167  0.70733  0.26473  Biso   1.000  H
  O31      1.0000 0.53447  0.84373  0.21061  Biso   1.000  O
  O32      1.0000 0.81147  0.99453  0.26389  Biso   1.000  O
  O33      1.0000 0.51937  0.85383  0.31054  Biso   1.000  O
  P12      1.0000 0.28780  0.17747  0.59638  Biso   1.000  P
  H12      1.0000 0.27833  0.04067  0.59807  Biso   1.000  H
  O34      1.0000 0.20113  0.17707  0.54395  Biso   1.000  O
  O35      1.0000 0.47813  0.32787  0.59723  Biso   1.000  O
  O36      1.0000 0.18603  0.18717  0.64388  Biso   1.000  O
  P13      1.0000 0.48920  0.44367  0.92971  Biso   1.000  P
  H13      1.0000 0.62600  0.57100  0.93140  Biso   1.000  H
  O37      1.0000 0.48960  0.35740  0.87728  Biso   1.000  O
  O38      1.0000 0.33880  0.48360  0.93056  Biso   1.000  O
  O39      1.0000 0.47950  0.33220  0.97721  Biso   1.000  O
  P14      1.0000 0.15587  0.77700  0.26304  Biso   1.000  P
  H14      1.0000 0.29267  0.90433  0.26473  Biso   1.000  H
  O40      1.0000 0.15627  0.69073  0.21061  Biso   1.000  O
  O41      1.0000 0.00547  0.81693  0.26389  Biso   1.000  O
  O42      1.0000 0.14617  0.66553  0.31054  Biso   1.000  O
  P15      1.0000 0.82253  0.11034  0.59638  Biso   1.000  P
  H15      1.0000 0.95933  0.23767  0.59807  Biso   1.000  H
  O43      1.0000 0.82293  0.02407  0.54395  Biso   1.000  O
  O44      1.0000 0.67213  0.15027  0.59723  Biso   1.000  O
  O45      1.0000 0.81283  0.99887  0.64388  Biso   1.000  O
  P16      1.0000 0.55633  0.04553  0.92971  Biso   1.000  P
  H16      1.0000 0.42900  0.05500  0.93140  Biso   1.000  H
  O46      1.0000 0.64260  0.13220  0.87728  Biso   1.000  O
  O47      1.0000 0.51640  0.85520  0.93056  Biso   1.000  O
  O48      1.0000 0.66780  0.14730  0.97721  Biso   1.000  O
  P17      1.0000 0.22300  0.37886  0.26304  Biso   1.000  P
  H17      1.0000 0.09567  0.38833  0.26473  Biso   1.000  H
  O49      1.0000 0.30927  0.46553  0.21061  Biso   1.000  O
  O50      1.0000 0.18307  0.18853  0.26389  Biso   1.000  O
  O51      1.0000 0.33447  0.48063  0.31054  Biso   1.000  O
  P18      1.0000 0.88966  0.71220  0.59638  Biso   1.000  P
  H18      1.0000 0.76233  0.72167  0.59807  Biso   1.000  H
  O52      1.0000 0.97593  0.79887  0.54395  Biso   1.000  O
  O53      1.0000 0.84973  0.52187  0.59723  Biso   1.000  O
  O54      1.0000 0.00113  0.81397  0.64388  Biso   1.000  O
  Fe1      1.0000 0.66667  0.33333  0.02227  Biso   1.000  Fe
  Fe2      1.0000 0.33333  0.66667  0.35560  Biso   1.000  Fe
  Fe3      1.0000 0.00000  0.00000  0.68894  Biso   1.000  Fe
  Fe4      1.0000 0.33333  0.66667  0.97773  Biso   1.000  Fe
  Fe5      1.0000 0.00000  0.00000  0.31106  Biso   1.000  Fe
  Fe6      1.0000 0.66667  0.33333  0.64440  Biso   1.000  Fe
  Fe7      1.0000 0.33333  0.66667  0.16667  Biso   1.000  Fe
  Fe8      1.0000 0.00000  0.00000  0.50000  Biso   1.000  Fe
  Fe9      1.0000 0.66667  0.33333  0.83333  Biso   1.000  Fe
