data_LERNEC_clean
_audit_creation_date              2014-07-02
_audit_creation_method            'Materials Studio'
_symmetry_space_group_name_H-M    'P1'
_symmetry_Int_Tables_number       1
_symmetry_cell_setting            triclinic
loop_
_symmetry_equiv_pos_as_xyz
  x,y,z
_cell_length_a                    10.1040
_cell_length_b                    12.8282
_cell_length_c                    13.0415
_cell_angle_alpha                 71.1983
_cell_angle_beta                  67.2084
_cell_angle_gamma                 66.8076
loop_
_atom_site_label
_atom_site_type_symbol
_atom_site_fract_x
_atom_site_fract_y
_atom_site_fract_z
_atom_site_U_iso_or_equiv
_atom_site_adp_type
_atom_site_occupancy
Co1    Co    0.96756   0.61481   0.89725   0.01267  Uiso   1.00
Co2    Co    0.24910   0.16662   0.26526   0.01267  Uiso   1.00
Co3    Co    0.47962   0.88519   0.60275   0.01267  Uiso   1.00
Co4    Co    0.68098   0.33338   0.23474   0.01267  Uiso   1.00
Co5    Co    0.03244   0.38519   0.10275   0.01267  Uiso   1.00
Co6    Co    0.75090   0.83338   0.73474   0.01267  Uiso   1.00
Co7    Co    0.52038   0.11481   0.39725   0.01267  Uiso   1.00
Co8    Co    0.31902   0.66662   0.76526   0.01267  Uiso   1.00
H1     H     0.85180   0.88250   0.15970   0.01267  Uiso   1.00
H2     H     0.99520   0.74600   0.05040   0.01267  Uiso   1.00
H3     H     0.63790   0.73790   0.01070   0.01267  Uiso   1.00
H4     H     0.48680   0.87610   0.11610   0.01267  Uiso   1.00
H5     H     0.13700   0.95690   0.73770   0.01267  Uiso   1.00
H6     H     0.13880   0.91230   0.53870   0.01267  Uiso   1.00
H7     H     0.02060   0.01590   0.59510   0.01267  Uiso   1.00
H8     H     0.89400   0.61750   0.34030   0.01267  Uiso   1.00
H9     H     0.79160   0.75400   0.44960   0.01267  Uiso   1.00
H10    H     0.38650   0.76210   0.48930   0.01267  Uiso   1.00
H11    H     0.47900   0.62390   0.38390   0.01267  Uiso   1.00
H12    H     0.83160   0.54310   0.76230   0.01267  Uiso   1.00
H13    H     0.58980   0.58770   0.96130   0.01267  Uiso   1.00
H14    H     0.63160   0.48410   0.90490   0.01267  Uiso   1.00
H15    H     0.14820   0.11750   0.84030   0.01267  Uiso   1.00
H16    H     0.00480   0.25400   0.94960   0.01267  Uiso   1.00
H17    H     0.36210   0.26210   0.98930   0.01267  Uiso   1.00
H18    H     0.51320   0.12390   0.88390   0.01267  Uiso   1.00
H19    H     0.86300   0.04310   0.26230   0.01267  Uiso   1.00
H20    H     0.86120   0.08770   0.46130   0.01267  Uiso   1.00
H21    H     0.97940   0.98410   0.40490   0.01267  Uiso   1.00
H22    H     0.10600   0.38250   0.65970   0.01267  Uiso   1.00
H23    H     0.20840   0.24600   0.55040   0.01267  Uiso   1.00
H24    H     0.61350   0.23790   0.51070   0.01267  Uiso   1.00
H25    H     0.52100   0.37610   0.61610   0.01267  Uiso   1.00
H26    H     0.16840   0.45690   0.23770   0.01267  Uiso   1.00
H27    H     0.41020   0.41230   0.03870   0.01267  Uiso   1.00
H28    H     0.36840   0.51590   0.09510   0.01267  Uiso   1.00
C1     C     0.55220   0.98690   0.22190   0.01267  Uiso   1.00
C2     C     0.65310   0.89530   0.15050   0.01267  Uiso   1.00
C3     C     0.80560   0.85480   0.12940   0.01267  Uiso   1.00
C4     C     0.89140   0.77250   0.06330   0.01267  Uiso   1.00
C5     C     0.68230   0.76840   0.03980   0.01267  Uiso   1.00
C6     C     0.59040   0.85060   0.10400   0.01267  Uiso   1.00
C7     C     0.03420   0.83800   0.75240   0.01267  Uiso   1.00
C8     C     0.15280   0.90240   0.69280   0.01267  Uiso   1.00
C9     C     0.12550   0.96820   0.58000   0.01267  Uiso   1.00
C10    C     0.22110   0.04530   0.50230   0.01267  Uiso   1.00
C11    C     0.76100   0.51310   0.27810   0.01267  Uiso   1.00
C12    C     0.69890   0.60470   0.34950   0.01267  Uiso   1.00
C13    C     0.78980   0.64520   0.37060   0.01267  Uiso   1.00
C14    C     0.72720   0.72750   0.43670   0.01267  Uiso   1.00
C15    C     0.49050   0.73160   0.46020   0.01267  Uiso   1.00
C16    C     0.54500   0.64940   0.39600   0.01267  Uiso   1.00
C17    C     0.62460   0.66200   0.74760   0.01267  Uiso   1.00
C18    C     0.74800   0.59760   0.80720   0.01267  Uiso   1.00
C19    C     0.67370   0.53180   0.92000   0.01267  Uiso   1.00
C20    C     0.76870   0.45470   0.99770   0.01267  Uiso   1.00
C21    C     0.44780   0.01310   0.77810   0.01267  Uiso   1.00
C22    C     0.34690   0.10470   0.84950   0.01267  Uiso   1.00
C23    C     0.19440   0.14520   0.87060   0.01267  Uiso   1.00
C24    C     0.10860   0.22750   0.93670   0.01267  Uiso   1.00
C25    C     0.31770   0.23160   0.96020   0.01267  Uiso   1.00
C26    C     0.40960   0.14940   0.89600   0.01267  Uiso   1.00
C27    C     0.96580   0.16200   0.24760   0.01267  Uiso   1.00
C28    C     0.84720   0.09760   0.30720   0.01267  Uiso   1.00
C29    C     0.87450   0.03180   0.42000   0.01267  Uiso   1.00
C30    C     0.77890   0.95470   0.49770   0.01267  Uiso   1.00
C31    C     0.23900   0.48690   0.72190   0.01267  Uiso   1.00
C32    C     0.30110   0.39530   0.65050   0.01267  Uiso   1.00
C33    C     0.21020   0.35480   0.62940   0.01267  Uiso   1.00
C34    C     0.27280   0.27250   0.56330   0.01267  Uiso   1.00
C35    C     0.50950   0.26840   0.53980   0.01267  Uiso   1.00
C36    C     0.45500   0.35060   0.60400   0.01267  Uiso   1.00
C37    C     0.37540   0.33800   0.25240   0.01267  Uiso   1.00
C38    C     0.25200   0.40240   0.19280   0.01267  Uiso   1.00
C39    C     0.32630   0.46820   0.08000   0.01267  Uiso   1.00
C40    C     0.23130   0.54530   0.00230   0.01267  Uiso   1.00
N1     N     0.83280   0.72920   0.01660   0.01267  Uiso   1.00
N2     N     0.57860   0.77080   0.48340   0.01267  Uiso   1.00
N3     N     0.16720   0.27080   0.98340   0.01267  Uiso   1.00
N4     N     0.42140   0.22920   0.51660   0.01267  Uiso   1.00
O1     O     0.60995   0.00690   0.27960   0.01267  Uiso   1.00
O2     O     0.42040   0.03210   0.21590   0.01267  Uiso   1.00
O3     O     0.08240   0.73430   0.79630   0.01267  Uiso   1.00
O4     O     0.89930   0.89200   0.75880   0.01267  Uiso   1.00
O5     O     0.30140   0.82340   0.67740   0.01267  Uiso   1.00
O6     O     0.35823   0.02244   0.49870   0.01267  Uiso   1.00
O7     O     0.16030   0.12140   0.43300   0.01267  Uiso   1.00
O8     O     0.89645   0.49310   0.22040   0.01267  Uiso   1.00
O9     O     0.66840   0.46790   0.28410   0.01267  Uiso   1.00
O10    O     0.61300   0.76570   0.70370   0.01267  Uiso   1.00
O11    O     0.55010   0.60800   0.74120   0.01267  Uiso   1.00
O12    O     0.80220   0.67660   0.82260   0.01267  Uiso   1.00
O13    O     0.87937   0.47756   0.00130   0.01267  Uiso   1.00
O14    O     0.71470   0.37860   0.06700   0.01267  Uiso   1.00
O15    O     0.39005   0.99310   0.72040   0.01267  Uiso   1.00
O16    O     0.57960   0.96790   0.78410   0.01267  Uiso   1.00
O17    O     0.91760   0.26570   0.20370   0.01267  Uiso   1.00
O18    O     0.10070   0.10800   0.24120   0.01267  Uiso   1.00
O19    O     0.69860   0.17660   0.32260   0.01267  Uiso   1.00
O20    O     0.64177   0.97756   0.50130   0.01267  Uiso   1.00
O21    O     0.83970   0.87860   0.56700   0.01267  Uiso   1.00
O22    O     0.10355   0.50690   0.77960   0.01267  Uiso   1.00
O23    O     0.33160   0.53210   0.71590   0.01267  Uiso   1.00
O24    O     0.38700   0.23430   0.29630   0.01267  Uiso   1.00
O25    O     0.44990   0.39200   0.25880   0.01267  Uiso   1.00
O26    O     0.19780   0.32340   0.17740   0.01267  Uiso   1.00
O27    O     0.12063   0.52244   0.99870   0.01267  Uiso   1.00
O28    O     0.28530   0.62140   0.93300   0.01267  Uiso   1.00
