data_LERNAY01_clean
_audit_creation_date              2014-07-02
_audit_creation_method            'Materials Studio'
_symmetry_space_group_name_H-M    'P1'
_symmetry_Int_Tables_number       1
_symmetry_cell_setting            triclinic
loop_
_symmetry_equiv_pos_as_xyz
  x,y,z
_cell_length_a                    10.0816
_cell_length_b                    12.8086
_cell_length_c                    12.9996
_cell_angle_alpha                 70.9476
_cell_angle_beta                  67.1845
_cell_angle_gamma                 66.8246
loop_
_atom_site_label
_atom_site_type_symbol
_atom_site_fract_x
_atom_site_fract_y
_atom_site_fract_z
_atom_site_U_iso_or_equiv
_atom_site_adp_type
_atom_site_occupancy
Co1    Co    0.96661   0.61481   0.89703   0.01267  Uiso   1.00
Co2    Co    0.31752   0.66698   0.76372   0.01267  Uiso   1.00
Co3    Co    0.47845   0.88519   0.60297   0.01267  Uiso   1.00
Co4    Co    0.74822   0.83302   0.73628   0.01267  Uiso   1.00
Co5    Co    0.03339   0.38519   0.10297   0.01267  Uiso   1.00
Co6    Co    0.68248   0.33302   0.23628   0.01267  Uiso   1.00
Co7    Co    0.52155   0.11481   0.39703   0.01267  Uiso   1.00
Co8    Co    0.25178   0.16698   0.26372   0.01267  Uiso   1.00
H1     H     0.10240   0.39080   0.65040   0.01267  Uiso   1.00
H2     H     0.20830   0.25560   0.53840   0.01267  Uiso   1.00
H3     H     0.61200   0.23010   0.51950   0.01267  Uiso   1.00
H4     H     0.51840   0.37000   0.62460   0.01267  Uiso   1.00
H5     H     0.13500   0.95720   0.73900   0.01267  Uiso   1.00
H6     H     0.13940   0.91320   0.53800   0.01267  Uiso   1.00
H7     H     0.01960   0.01660   0.59420   0.01267  Uiso   1.00
H8     H     0.14360   0.10920   0.84960   0.01267  Uiso   1.00
H9     H     0.00230   0.24440   0.96160   0.01267  Uiso   1.00
H10    H     0.36160   0.26990   0.98050   0.01267  Uiso   1.00
H11    H     0.51300   0.13000   0.87540   0.01267  Uiso   1.00
H12    H     0.83120   0.54280   0.76100   0.01267  Uiso   1.00
H13    H     0.59060   0.58680   0.96200   0.01267  Uiso   1.00
H14    H     0.63040   0.48340   0.90580   0.01267  Uiso   1.00
H15    H     0.89760   0.60920   0.34960   0.01267  Uiso   1.00
H16    H     0.79170   0.74440   0.46160   0.01267  Uiso   1.00
H17    H     0.38800   0.76990   0.48050   0.01267  Uiso   1.00
H18    H     0.48160   0.63000   0.37540   0.01267  Uiso   1.00
H19    H     0.86500   0.04280   0.26100   0.01267  Uiso   1.00
H20    H     0.86060   0.08680   0.46200   0.01267  Uiso   1.00
H21    H     0.98040   0.98340   0.40580   0.01267  Uiso   1.00
H22    H     0.85640   0.89080   0.15040   0.01267  Uiso   1.00
H23    H     0.99770   0.75560   0.03840   0.01267  Uiso   1.00
H24    H     0.63840   0.73010   0.01950   0.01267  Uiso   1.00
H25    H     0.48700   0.87000   0.12460   0.01267  Uiso   1.00
H26    H     0.16880   0.45720   0.23900   0.01267  Uiso   1.00
H27    H     0.40940   0.41320   0.03800   0.01267  Uiso   1.00
H28    H     0.36960   0.51660   0.09420   0.01267  Uiso   1.00
C1     C     0.23660   0.48740   0.72140   0.01267  Uiso   1.00
C2     C     0.29920   0.39660   0.64980   0.01267  Uiso   1.00
C3     C     0.20680   0.36080   0.62280   0.01267  Uiso   1.00
C4     C     0.27210   0.27870   0.55610   0.01267  Uiso   1.00
C5     C     0.50800   0.26370   0.54530   0.01267  Uiso   1.00
C6     C     0.45240   0.34710   0.60930   0.01267  Uiso   1.00
C7     C     0.03220   0.83960   0.75000   0.01267  Uiso   1.00
C8     C     0.15080   0.90330   0.69330   0.01267  Uiso   1.00
C9     C     0.12470   0.96930   0.57970   0.01267  Uiso   1.00
C10    C     0.22130   0.04820   0.50160   0.01267  Uiso   1.00
C11    C     0.44540   0.01260   0.77860   0.01267  Uiso   1.00
C12    C     0.34560   0.10340   0.85020   0.01267  Uiso   1.00
C13    C     0.19040   0.13920   0.87720   0.01267  Uiso   1.00
C14    C     0.10690   0.22130   0.94390   0.01267  Uiso   1.00
C15    C     0.31700   0.23630   0.95470   0.01267  Uiso   1.00
C16    C     0.40880   0.15290   0.89070   0.01267  Uiso   1.00
C17    C     0.62180   0.66040   0.75000   0.01267  Uiso   1.00
C18    C     0.74740   0.59670   0.80670   0.01267  Uiso   1.00
C19    C     0.67370   0.53070   0.92030   0.01267  Uiso   1.00
C20    C     0.77110   0.45180   0.99840   0.01267  Uiso   1.00
C21    C     0.76340   0.51260   0.27860   0.01267  Uiso   1.00
C22    C     0.70080   0.60340   0.35020   0.01267  Uiso   1.00
C23    C     0.79320   0.63920   0.37720   0.01267  Uiso   1.00
C24    C     0.72790   0.72130   0.44390   0.01267  Uiso   1.00
C25    C     0.49200   0.73630   0.45470   0.01267  Uiso   1.00
C26    C     0.54760   0.65290   0.39070   0.01267  Uiso   1.00
C27    C     0.96780   0.16040   0.25000   0.01267  Uiso   1.00
C28    C     0.84920   0.09670   0.30670   0.01267  Uiso   1.00
C29    C     0.87530   0.03070   0.42030   0.01267  Uiso   1.00
C30    C     0.77870   0.95180   0.49840   0.01267  Uiso   1.00
C31    C     0.55460   0.98740   0.22140   0.01267  Uiso   1.00
C32    C     0.65440   0.89660   0.14980   0.01267  Uiso   1.00
C33    C     0.80960   0.86080   0.12280   0.01267  Uiso   1.00
C34    C     0.89310   0.77870   0.05610   0.01267  Uiso   1.00
C35    C     0.68300   0.76370   0.04530   0.01267  Uiso   1.00
C36    C     0.59120   0.84710   0.10930   0.01267  Uiso   1.00
C37    C     0.37820   0.33960   0.25000   0.01267  Uiso   1.00
C38    C     0.25260   0.40330   0.19330   0.01267  Uiso   1.00
C39    C     0.32630   0.46930   0.07970   0.01267  Uiso   1.00
C40    C     0.22890   0.54820   0.00160   0.01267  Uiso   1.00
N1     N     0.42037   0.22976   0.51570   0.01267  Uiso   1.00
N2     N     0.16583   0.27024   0.98430   0.01267  Uiso   1.00
N3     N     0.57963   0.77024   0.48430   0.01267  Uiso   1.00
N4     N     0.83417   0.72976   0.01570   0.01267  Uiso   1.00
O1     O     0.33066   0.53058   0.71750   0.01267  Uiso   1.00
O2     O     0.10085   0.50790   0.77900   0.01267  Uiso   1.00
O3     O     0.08080   0.73480   0.79380   0.01267  Uiso   1.00
O4     O     0.89726   0.89288   0.75840   0.01267  Uiso   1.00
O5     O     0.29980   0.82420   0.67620   0.01267  Uiso   1.00
O6     O     0.35852   0.02356   0.49700   0.01267  Uiso   1.00
O7     O     0.15870   0.12750   0.43310   0.01267  Uiso   1.00
O8     O     0.57874   0.96942   0.78250   0.01267  Uiso   1.00
O9     O     0.38775   0.99210   0.72100   0.01267  Uiso   1.00
O10    O     0.60940   0.76520   0.70620   0.01267  Uiso   1.00
O11    O     0.54854   0.60712   0.74160   0.01267  Uiso   1.00
O12    O     0.80020   0.67580   0.82380   0.01267  Uiso   1.00
O13    O     0.87908   0.47644   0.00300   0.01267  Uiso   1.00
O14    O     0.71930   0.37250   0.06690   0.01267  Uiso   1.00
O15    O     0.66934   0.46942   0.28250   0.01267  Uiso   1.00
O16    O     0.89915   0.49210   0.22100   0.01267  Uiso   1.00
O17    O     0.91920   0.26520   0.20620   0.01267  Uiso   1.00
O18    O     0.10274   0.10712   0.24160   0.01267  Uiso   1.00
O19    O     0.70020   0.17580   0.32380   0.01267  Uiso   1.00
O20    O     0.64148   0.97644   0.50300   0.01267  Uiso   1.00
O21    O     0.84130   0.87250   0.56690   0.01267  Uiso   1.00
O22    O     0.42126   0.03058   0.21750   0.01267  Uiso   1.00
O23    O     0.61225   0.00790   0.27900   0.01267  Uiso   1.00
O24    O     0.39060   0.23480   0.29380   0.01267  Uiso   1.00
O25    O     0.45146   0.39288   0.25840   0.01267  Uiso   1.00
O26    O     0.19980   0.32420   0.17620   0.01267  Uiso   1.00
O27    O     0.12092   0.52356   0.99700   0.01267  Uiso   1.00
O28    O     0.28070   0.62750   0.93310   0.01267  Uiso   1.00
