data_LERNAY_clean
_audit_creation_date              2014-07-02
_audit_creation_method            'Materials Studio'
_symmetry_space_group_name_H-M    'P1'
_symmetry_Int_Tables_number       1
_symmetry_cell_setting            triclinic
loop_
_symmetry_equiv_pos_as_xyz
  x,y,z
_cell_length_a                    10.0960
_cell_length_b                    12.8422
_cell_length_c                    12.9731
_cell_angle_alpha                 71.0140
_cell_angle_beta                  67.1008
_cell_angle_gamma                 66.8539
loop_
_atom_site_label
_atom_site_type_symbol
_atom_site_fract_x
_atom_site_fract_y
_atom_site_fract_z
_atom_site_U_iso_or_equiv
_atom_site_adp_type
_atom_site_occupancy
Co1    Co    0.96579   0.61527   0.89717   0.01267  Uiso   1.00
Co2    Co    0.25240   0.16702   0.26346   0.01267  Uiso   1.00
Co3    Co    0.47823   0.88473   0.60283   0.01267  Uiso   1.00
Co4    Co    0.68288   0.33298   0.23654   0.01267  Uiso   1.00
Co5    Co    0.03421   0.38473   0.10283   0.01267  Uiso   1.00
Co6    Co    0.74760   0.83298   0.73654   0.01267  Uiso   1.00
Co7    Co    0.52177   0.11527   0.39717   0.01267  Uiso   1.00
Co8    Co    0.31712   0.66702   0.76346   0.01267  Uiso   1.00
H1     H     0.85530   0.88910   0.15150   0.01267  Uiso   1.00
H2     H     0.99730   0.75460   0.03960   0.01267  Uiso   1.00
H3     H     0.63790   0.73040   0.01900   0.01267  Uiso   1.00
H4     H     0.48650   0.87040   0.12420   0.01267  Uiso   1.00
H5     H     0.14260   0.92810   0.75590   0.01267  Uiso   1.00
H6     H     0.14410   0.91190   0.53490   0.01267  Uiso   1.00
H7     H     0.02070   0.01380   0.59180   0.01267  Uiso   1.00
H8     H     0.89590   0.61090   0.34850   0.01267  Uiso   1.00
H9     H     0.79150   0.74540   0.46040   0.01267  Uiso   1.00
H10    H     0.38730   0.76960   0.48100   0.01267  Uiso   1.00
H11    H     0.48110   0.62960   0.37580   0.01267  Uiso   1.00
H12    H     0.82660   0.57190   0.74410   0.01267  Uiso   1.00
H13    H     0.59090   0.58810   0.96510   0.01267  Uiso   1.00
H14    H     0.62630   0.48620   0.90820   0.01267  Uiso   1.00
H15    H     0.14470   0.11090   0.84850   0.01267  Uiso   1.00
H16    H     0.00270   0.24540   0.96040   0.01267  Uiso   1.00
H17    H     0.36210   0.26960   0.98100   0.01267  Uiso   1.00
H18    H     0.51350   0.12960   0.87580   0.01267  Uiso   1.00
H19    H     0.85740   0.07190   0.24410   0.01267  Uiso   1.00
H20    H     0.85590   0.08810   0.46510   0.01267  Uiso   1.00
H21    H     0.97930   0.98620   0.40820   0.01267  Uiso   1.00
H22    H     0.10410   0.38910   0.65150   0.01267  Uiso   1.00
H23    H     0.20850   0.25460   0.53960   0.01267  Uiso   1.00
H24    H     0.61270   0.23040   0.51900   0.01267  Uiso   1.00
H25    H     0.51890   0.37040   0.62420   0.01267  Uiso   1.00
H26    H     0.17340   0.42810   0.25590   0.01267  Uiso   1.00
H27    H     0.40910   0.41190   0.03490   0.01267  Uiso   1.00
H28    H     0.37370   0.51380   0.09180   0.01267  Uiso   1.00
C1     C     0.55390   0.98820   0.22200   0.01267  Uiso   1.00
C2     C     0.65360   0.89600   0.15020   0.01267  Uiso   1.00
C3     C     0.80860   0.85890   0.12390   0.01267  Uiso   1.00
C4     C     0.89270   0.77760   0.05740   0.01267  Uiso   1.00
C5     C     0.68250   0.76410   0.04470   0.01267  Uiso   1.00
C6     C     0.59080   0.84750   0.10890   0.01267  Uiso   1.00
C7     C     0.03290   0.83910   0.74990   0.01267  Uiso   1.00
C8     C     0.15130   0.90280   0.69100   0.01267  Uiso   1.00
C9     C     0.12630   0.96800   0.57780   0.01267  Uiso   1.00
C10    C     0.22090   0.04830   0.50210   0.01267  Uiso   1.00
C11    C     0.76410   0.51180   0.27800   0.01267  Uiso   1.00
C12    C     0.69980   0.60400   0.34980   0.01267  Uiso   1.00
C13    C     0.79140   0.64110   0.37610   0.01267  Uiso   1.00
C14    C     0.72770   0.72240   0.44260   0.01267  Uiso   1.00
C15    C     0.49130   0.73590   0.45530   0.01267  Uiso   1.00
C16    C     0.54720   0.65250   0.39110   0.01267  Uiso   1.00
C17    C     0.62190   0.66090   0.75010   0.01267  Uiso   1.00
C18    C     0.74510   0.59720   0.80900   0.01267  Uiso   1.00
C19    C     0.67210   0.53200   0.92220   0.01267  Uiso   1.00
C20    C     0.77130   0.45170   0.99790   0.01267  Uiso   1.00
C21    C     0.44610   0.01180   0.77800   0.01267  Uiso   1.00
C22    C     0.34640   0.10400   0.84980   0.01267  Uiso   1.00
C23    C     0.19140   0.14110   0.87610   0.01267  Uiso   1.00
C24    C     0.10730   0.22240   0.94260   0.01267  Uiso   1.00
C25    C     0.31750   0.23590   0.95530   0.01267  Uiso   1.00
C26    C     0.40920   0.15250   0.89110   0.01267  Uiso   1.00
C27    C     0.96710   0.16090   0.25010   0.01267  Uiso   1.00
C28    C     0.84870   0.09720   0.30900   0.01267  Uiso   1.00
C29    C     0.87370   0.03200   0.42220   0.01267  Uiso   1.00
C30    C     0.77910   0.95170   0.49790   0.01267  Uiso   1.00
C31    C     0.23590   0.48820   0.72200   0.01267  Uiso   1.00
C32    C     0.30020   0.39600   0.65020   0.01267  Uiso   1.00
C33    C     0.20860   0.35890   0.62390   0.01267  Uiso   1.00
C34    C     0.27230   0.27760   0.55740   0.01267  Uiso   1.00
C35    C     0.50870   0.26410   0.54470   0.01267  Uiso   1.00
C36    C     0.45280   0.34750   0.60890   0.01267  Uiso   1.00
C37    C     0.37810   0.33910   0.24990   0.01267  Uiso   1.00
C38    C     0.25490   0.40280   0.19100   0.01267  Uiso   1.00
C39    C     0.32790   0.46800   0.07780   0.01267  Uiso   1.00
C40    C     0.22870   0.54830   0.00210   0.01267  Uiso   1.00
N1     N     0.83320   0.72940   0.01700   0.01267  Uiso   1.00
N2     N     0.57960   0.77060   0.48300   0.01267  Uiso   1.00
N3     N     0.16680   0.27060   0.98300   0.01267  Uiso   1.00
N4     N     0.42040   0.22940   0.51700   0.01267  Uiso   1.00
O1     O     0.61180   0.00890   0.27750   0.01267  Uiso   1.00
O2     O     0.41980   0.03050   0.21850   0.01267  Uiso   1.00
O3     O     0.08020   0.73470   0.79370   0.01267  Uiso   1.00
O4     O     0.89750   0.89230   0.75830   0.01267  Uiso   1.00
O5     O     0.30010   0.82410   0.67550   0.01267  Uiso   1.00
O6     O     0.35914   0.02272   0.49700   0.01267  Uiso   1.00
O7     O     0.15900   0.12740   0.43340   0.01267  Uiso   1.00
O8     O     0.89820   0.49110   0.22250   0.01267  Uiso   1.00
O9     O     0.66880   0.46950   0.28150   0.01267  Uiso   1.00
O10    O     0.60860   0.76530   0.70630   0.01267  Uiso   1.00
O11    O     0.54810   0.60770   0.74170   0.01267  Uiso   1.00
O12    O     0.79970   0.67590   0.82450   0.01267  Uiso   1.00
O13    O     0.87886   0.47728   0.00300   0.01267  Uiso   1.00
O14    O     0.71980   0.37260   0.06660   0.01267  Uiso   1.00
O15    O     0.38820   0.99110   0.72250   0.01267  Uiso   1.00
O16    O     0.58020   0.96950   0.78150   0.01267  Uiso   1.00
O17    O     0.91980   0.26530   0.20630   0.01267  Uiso   1.00
O18    O     0.10250   0.10770   0.24170   0.01267  Uiso   1.00
O19    O     0.69990   0.17590   0.32450   0.01267  Uiso   1.00
O20    O     0.64086   0.97728   0.50300   0.01267  Uiso   1.00
O21    O     0.84100   0.87260   0.56660   0.01267  Uiso   1.00
O22    O     0.10180   0.50890   0.77750   0.01267  Uiso   1.00
O23    O     0.33120   0.53050   0.71850   0.01267  Uiso   1.00
O24    O     0.39140   0.23470   0.29370   0.01267  Uiso   1.00
O25    O     0.45190   0.39230   0.25830   0.01267  Uiso   1.00
O26    O     0.20030   0.32410   0.17550   0.01267  Uiso   1.00
O27    O     0.12114   0.52272   0.99700   0.01267  Uiso   1.00
O28    O     0.28020   0.62740   0.93340   0.01267  Uiso   1.00
