data_LESWAI_clean
_audit_creation_date              2014-07-02
_audit_creation_method            'Materials Studio'
_symmetry_space_group_name_H-M    'P1'
_symmetry_Int_Tables_number       1
_symmetry_cell_setting            triclinic
loop_
_symmetry_equiv_pos_as_xyz
  x,y,z
_cell_length_a                    12.4561
_cell_length_b                    12.5595
_cell_length_c                    16.5920
_cell_angle_alpha                 83.2753
_cell_angle_beta                  76.3411
_cell_angle_gamma                 60.2719
loop_
_atom_site_label
_atom_site_type_symbol
_atom_site_fract_x
_atom_site_fract_y
_atom_site_fract_z
_atom_site_U_iso_or_equiv
_atom_site_adp_type
_atom_site_occupancy
La1    La    0.57639   0.90618   0.59998   0.01267  Uiso   1.00
La2    La    0.51743   0.90618   0.90002   0.01267  Uiso   1.00
La3    La    0.42361   0.09382   0.40002   0.01267  Uiso   1.00
La4    La    0.48257   0.09382   0.09998   0.01267  Uiso   1.00
H1     H     0.94910   0.79460   0.60500   0.01267  Uiso   1.00
H2     H     0.14080   0.78560   0.58830   0.01267  Uiso   1.00
H3     H     0.91020   0.78620   0.85140   0.01267  Uiso   1.00
H4     H     0.06790   0.09780   0.54240   0.01267  Uiso   1.00
H5     H     0.88550   0.10000   0.61050   0.01267  Uiso   1.00
H6     H     0.16100   0.09360   0.75780   0.01267  Uiso   1.00
H7     H     0.47000   0.33260   0.44180   0.01267  Uiso   1.00
H8     H     0.61940   0.27460   0.64170   0.01267  Uiso   1.00
H9     H     0.40240   0.53380   0.36840   0.01267  Uiso   1.00
H10    H     0.25630   0.79460   0.89500   0.01267  Uiso   1.00
H11    H     0.07360   0.78560   0.91170   0.01267  Uiso   1.00
H12    H     0.30360   0.78620   0.64860   0.01267  Uiso   1.00
H13    H     0.83430   0.09780   0.95760   0.01267  Uiso   1.00
H14    H     0.01450   0.10000   0.88950   0.01267  Uiso   1.00
H15    H     0.74540   0.09360   0.74220   0.01267  Uiso   1.00
H16    H     0.19740   0.33260   0.05820   0.01267  Uiso   1.00
H17    H     0.10600   0.27460   0.85830   0.01267  Uiso   1.00
H18    H     0.06380   0.53380   0.13160   0.01267  Uiso   1.00
H19    H     0.05090   0.20540   0.39500   0.01267  Uiso   1.00
H20    H     0.85920   0.21440   0.41170   0.01267  Uiso   1.00
H21    H     0.08980   0.21380   0.14860   0.01267  Uiso   1.00
H22    H     0.93210   0.90220   0.45760   0.01267  Uiso   1.00
H23    H     0.11450   0.90000   0.38950   0.01267  Uiso   1.00
H24    H     0.83900   0.90640   0.24220   0.01267  Uiso   1.00
H25    H     0.53000   0.66740   0.55820   0.01267  Uiso   1.00
H26    H     0.38060   0.72540   0.35830   0.01267  Uiso   1.00
H27    H     0.59760   0.46620   0.63160   0.01267  Uiso   1.00
H28    H     0.74370   0.20540   0.10500   0.01267  Uiso   1.00
H29    H     0.92640   0.21440   0.08830   0.01267  Uiso   1.00
H30    H     0.69640   0.21380   0.35140   0.01267  Uiso   1.00
H31    H     0.16570   0.90220   0.04240   0.01267  Uiso   1.00
H32    H     0.98550   0.90000   0.11050   0.01267  Uiso   1.00
H33    H     0.25460   0.90640   0.25780   0.01267  Uiso   1.00
H34    H     0.80260   0.66740   0.94180   0.01267  Uiso   1.00
H35    H     0.89400   0.72540   0.14170   0.01267  Uiso   1.00
H36    H     0.93620   0.46620   0.86840   0.01267  Uiso   1.00
C1     C     0.78350   0.80320   0.74030   0.01267  Uiso   1.00
C2     C     0.91110   0.79160   0.73110   0.01267  Uiso   1.00
C3     C     0.98070   0.79160   0.65130   0.01267  Uiso   1.00
C4     C     0.09400   0.78760   0.64140   0.01267  Uiso   1.00
C5     C     0.95620   0.78780   0.79860   0.01267  Uiso   1.00
C6     C     0.14100   0.78620   0.71050   0.01267  Uiso   1.00
C7     C     0.25580   0.08580   0.59740   0.01267  Uiso   1.00
C8     C     0.13380   0.09440   0.64500   0.01267  Uiso   1.00
C9     C     0.04880   0.09720   0.60010   0.01267  Uiso   1.00
C10    C     0.94010   0.09920   0.64060   0.01267  Uiso   1.00
C11    C     0.10490   0.09560   0.72860   0.01267  Uiso   1.00
C12    C     0.90880   0.09980   0.72740   0.01267  Uiso   1.00
C13    C     0.55630   0.15920   0.55380   0.01267  Uiso   1.00
C14    C     0.54420   0.28540   0.54250   0.01267  Uiso   1.00
C15    C     0.49530   0.36000   0.47970   0.01267  Uiso   1.00
C16    C     0.48210   0.47860   0.47110   0.01267  Uiso   1.00
C17    C     0.58400   0.32640   0.59940   0.01267  Uiso   1.00
C18    C     0.42870   0.55960   0.40660   0.01267  Uiso   1.00
C19    C     0.41330   0.80320   0.75970   0.01267  Uiso   1.00
C20    C     0.29730   0.79160   0.76890   0.01267  Uiso   1.00
C21    C     0.22770   0.79160   0.84870   0.01267  Uiso   1.00
C22    C     0.11840   0.78760   0.85860   0.01267  Uiso   1.00
C23    C     0.25600   0.78780   0.70140   0.01267  Uiso   1.00
C24    C     0.07280   0.78620   0.78950   0.01267  Uiso   1.00
C25    C     0.65840   0.08580   0.90260   0.01267  Uiso   1.00
C26    C     0.77180   0.09440   0.85500   0.01267  Uiso   1.00
C27    C     0.85400   0.09720   0.89990   0.01267  Uiso   1.00
C28    C     0.96070   0.09920   0.85940   0.01267  Uiso   1.00
C29    C     0.79950   0.09560   0.77140   0.01267  Uiso   1.00
C30    C     0.99140   0.09980   0.77260   0.01267  Uiso   1.00
C31    C     0.28450   0.15920   0.94620   0.01267  Uiso   1.00
C32    C     0.17040   0.28540   0.95750   0.01267  Uiso   1.00
C33    C     0.14470   0.36000   0.02030   0.01267  Uiso   1.00
C34    C     0.03930   0.47860   0.02890   0.01267  Uiso   1.00
C35    C     0.08960   0.32640   0.90060   0.01267  Uiso   1.00
C36    C     0.01170   0.55960   0.09340   0.01267  Uiso   1.00
C37    C     0.21650   0.19680   0.25970   0.01267  Uiso   1.00
C38    C     0.08890   0.20840   0.26890   0.01267  Uiso   1.00
C39    C     0.01930   0.20840   0.34870   0.01267  Uiso   1.00
C40    C     0.90600   0.21240   0.35860   0.01267  Uiso   1.00
C41    C     0.04380   0.21220   0.20140   0.01267  Uiso   1.00
C42    C     0.85900   0.21380   0.28950   0.01267  Uiso   1.00
C43    C     0.74420   0.91420   0.40260   0.01267  Uiso   1.00
C44    C     0.86620   0.90560   0.35500   0.01267  Uiso   1.00
C45    C     0.95120   0.90280   0.39990   0.01267  Uiso   1.00
C46    C     0.05990   0.90080   0.35940   0.01267  Uiso   1.00
C47    C     0.89510   0.90440   0.27140   0.01267  Uiso   1.00
C48    C     0.09120   0.90020   0.27260   0.01267  Uiso   1.00
C49    C     0.44370   0.84080   0.44620   0.01267  Uiso   1.00
C50    C     0.45580   0.71460   0.45750   0.01267  Uiso   1.00
C51    C     0.50470   0.64000   0.52030   0.01267  Uiso   1.00
C52    C     0.51790   0.52140   0.52890   0.01267  Uiso   1.00
C53    C     0.41600   0.67360   0.40060   0.01267  Uiso   1.00
C54    C     0.57130   0.44040   0.59340   0.01267  Uiso   1.00
C55    C     0.58670   0.19680   0.24030   0.01267  Uiso   1.00
C56    C     0.70270   0.20840   0.23110   0.01267  Uiso   1.00
C57    C     0.77230   0.20840   0.15130   0.01267  Uiso   1.00
C58    C     0.88160   0.21240   0.14140   0.01267  Uiso   1.00
C59    C     0.74400   0.21220   0.29860   0.01267  Uiso   1.00
C60    C     0.92720   0.21380   0.21050   0.01267  Uiso   1.00
C61    C     0.34160   0.91420   0.09740   0.01267  Uiso   1.00
C62    C     0.22820   0.90560   0.14500   0.01267  Uiso   1.00
C63    C     0.14600   0.90280   0.10010   0.01267  Uiso   1.00
C64    C     0.03930   0.90080   0.14060   0.01267  Uiso   1.00
C65    C     0.20050   0.90440   0.22860   0.01267  Uiso   1.00
C66    C     0.00860   0.90020   0.22740   0.01267  Uiso   1.00
C67    C     0.71550   0.84080   0.05380   0.01267  Uiso   1.00
C68    C     0.82960   0.71460   0.04250   0.01267  Uiso   1.00
C69    C     0.85530   0.64000   0.97970   0.01267  Uiso   1.00
C70    C     0.96070   0.52140   0.97110   0.01267  Uiso   1.00
C71    C     0.91040   0.67360   0.09940   0.01267  Uiso   1.00
C72    C     0.98830   0.44040   0.90660   0.01267  Uiso   1.00
O1     O     0.74130   0.82560   0.67600   0.01267  Uiso   1.00
O2     O     0.72710   0.78920   0.81020   0.01267  Uiso   1.00
O3     O     0.34430   0.04840   0.63510   0.01267  Uiso   1.00
O4     O     0.26230   0.11640   0.52340   0.01267  Uiso   1.00
O5     O     0.60930   0.09200   0.60850   0.01267  Uiso   1.00
O6     O     0.51184   0.12612   0.50660   0.01267  Uiso   1.00
O7     O     0.43310   0.82560   0.82400   0.01267  Uiso   1.00
O8     O     0.48370   0.78920   0.68980   0.01267  Uiso   1.00
O9     O     0.60730   0.04840   0.86490   0.01267  Uiso   1.00
O10    O     0.62130   0.11640   0.97660   0.01267  Uiso   1.00
O11    O     0.29870   0.09200   0.89150   0.01267  Uiso   1.00
O12    O     0.36204   0.12612   0.99340   0.01267  Uiso   1.00
O13    O     0.25870   0.17440   0.32400   0.01267  Uiso   1.00
O14    O     0.27290   0.21080   0.18980   0.01267  Uiso   1.00
O15    O     0.65570   0.95160   0.36490   0.01267  Uiso   1.00
O16    O     0.73770   0.88360   0.47660   0.01267  Uiso   1.00
O17    O     0.39070   0.90800   0.39150   0.01267  Uiso   1.00
O18    O     0.48816   0.87388   0.49340   0.01267  Uiso   1.00
O19    O     0.56690   0.17440   0.17600   0.01267  Uiso   1.00
O20    O     0.51630   0.21080   0.31020   0.01267  Uiso   1.00
O21    O     0.39270   0.95160   0.13510   0.01267  Uiso   1.00
O22    O     0.37870   0.88360   0.02340   0.01267  Uiso   1.00
O23    O     0.70130   0.90800   0.10850   0.01267  Uiso   1.00
O24    O     0.63796   0.87388   0.00660   0.01267  Uiso   1.00
O25    O     0.49320   0.01360   0.75000   0.01267  Uiso   1.00
O26    O     0.50680   0.98640   0.25000   0.01267  Uiso   1.00
