data_image0
_cell_length_a       12.3251
_cell_length_b       12.3251
_cell_length_c       6.981
_cell_angle_alpha    90
_cell_angle_beta     90
_cell_angle_gamma    90

_symmetry_space_group_name_H-M    "P 1"
_symmetry_int_tables_number       1

loop_
  _symmetry_equiv_pos_as_xyz
  'x, y, z'

loop_
  _atom_site_label
  _atom_site_occupancy
  _atom_site_fract_x
  _atom_site_fract_y
  _atom_site_fract_z
  _atom_site_thermal_displace_type
  _atom_site_B_iso_or_equiv
  _atom_site_type_symbol
  N1       1.0000 0.65270  0.34240  0.16950  Biso   1.000  N
  C1       1.0000 0.59440  0.30070  0.30200  Biso   1.000  C
  C2       1.0000 0.53000  0.35790  0.43000  Biso   1.000  C
  C3       1.0000 0.53350  0.46910  0.43200  Biso   1.000  C
  C4       1.0000 0.59440  0.51380  0.29400  Biso   1.000  C
  C5       1.0000 0.65500  0.45120  0.17100  Biso   1.000  C
  H1       1.0000 0.59600  0.21400  0.32600  Biso   1.000  H
  H2       1.0000 0.47500  0.31900  0.52900  Biso   1.000  H
  H3       1.0000 0.59300  0.60100  0.27900  Biso   1.000  H
  H4       1.0000 0.70600  0.49300  0.06900  Biso   1.000  H
  N2       1.0000 0.84730  0.15760  0.16950  Biso   1.000  N
  C6       1.0000 0.90560  0.19930  0.30200  Biso   1.000  C
  C7       1.0000 0.97000  0.14210  0.43000  Biso   1.000  C
  C8       1.0000 0.96650  0.03090  0.43200  Biso   1.000  C
  C9       1.0000 0.90560  0.98620  0.29400  Biso   1.000  C
  C10      1.0000 0.84500  0.04880  0.17100  Biso   1.000  C
  H5       1.0000 0.90400  0.28600  0.32600  Biso   1.000  H
  H6       1.0000 0.02500  0.18100  0.52900  Biso   1.000  H
  H7       1.0000 0.90700  0.89900  0.27900  Biso   1.000  H
  H8       1.0000 0.79400  0.00700  0.06900  Biso   1.000  H
  N3       1.0000 0.15760  0.65270  0.16950  Biso   1.000  N
  C11      1.0000 0.19930  0.59440  0.30200  Biso   1.000  C
  C12      1.0000 0.14210  0.53000  0.43000  Biso   1.000  C
  C13      1.0000 0.03090  0.53350  0.43200  Biso   1.000  C
  C14      1.0000 0.98620  0.59440  0.29400  Biso   1.000  C
  C15      1.0000 0.04880  0.65500  0.17100  Biso   1.000  C
  H9       1.0000 0.28600  0.59600  0.32600  Biso   1.000  H
  H10      1.0000 0.18100  0.47500  0.52900  Biso   1.000  H
  H11      1.0000 0.89900  0.59300  0.27900  Biso   1.000  H
  H12      1.0000 0.00700  0.70600  0.06900  Biso   1.000  H
  N4       1.0000 0.34240  0.84730  0.16950  Biso   1.000  N
  C16      1.0000 0.30070  0.90560  0.30200  Biso   1.000  C
  C17      1.0000 0.35790  0.97000  0.43000  Biso   1.000  C
  C18      1.0000 0.46910  0.96650  0.43200  Biso   1.000  C
  C19      1.0000 0.51380  0.90560  0.29400  Biso   1.000  C
  C20      1.0000 0.45120  0.84500  0.17100  Biso   1.000  C
  H13      1.0000 0.21400  0.90400  0.32600  Biso   1.000  H
  H14      1.0000 0.31900  0.02500  0.52900  Biso   1.000  H
  H15      1.0000 0.60100  0.90700  0.27900  Biso   1.000  H
  H16      1.0000 0.49300  0.79400  0.06900  Biso   1.000  H
  N5       1.0000 0.34730  0.65760  0.83050  Biso   1.000  N
  C21      1.0000 0.40560  0.69930  0.69800  Biso   1.000  C
  C22      1.0000 0.47000  0.64210  0.57000  Biso   1.000  C
  C23      1.0000 0.46650  0.53090  0.56800  Biso   1.000  C
  C24      1.0000 0.40560  0.48620  0.70600  Biso   1.000  C
  C25      1.0000 0.34500  0.54880  0.82900  Biso   1.000  C
  H17      1.0000 0.40400  0.78600  0.67400  Biso   1.000  H
  H18      1.0000 0.52500  0.68100  0.47100  Biso   1.000  H
  H19      1.0000 0.40700  0.39900  0.72100  Biso   1.000  H
  H20      1.0000 0.29400  0.50700  0.93100  Biso   1.000  H
  N6       1.0000 0.15270  0.84240  0.83050  Biso   1.000  N
  C26      1.0000 0.09440  0.80070  0.69800  Biso   1.000  C
  C27      1.0000 0.03000  0.85790  0.57000  Biso   1.000  C
  C28      1.0000 0.03350  0.96910  0.56800  Biso   1.000  C
  C29      1.0000 0.09440  0.01380  0.70600  Biso   1.000  C
  C30      1.0000 0.15500  0.95120  0.82900  Biso   1.000  C
  H21      1.0000 0.09600  0.71400  0.67400  Biso   1.000  H
  H22      1.0000 0.97500  0.81900  0.47100  Biso   1.000  H
  H23      1.0000 0.09300  0.10100  0.72100  Biso   1.000  H
  H24      1.0000 0.20600  0.99300  0.93100  Biso   1.000  H
  N7       1.0000 0.84240  0.34730  0.83050  Biso   1.000  N
  C31      1.0000 0.80070  0.40560  0.69800  Biso   1.000  C
  C32      1.0000 0.85790  0.47000  0.57000  Biso   1.000  C
  C33      1.0000 0.96910  0.46650  0.56800  Biso   1.000  C
  C34      1.0000 0.01380  0.40560  0.70600  Biso   1.000  C
  C35      1.0000 0.95120  0.34500  0.82900  Biso   1.000  C
  H25      1.0000 0.71400  0.40400  0.67400  Biso   1.000  H
  H26      1.0000 0.81900  0.52500  0.47100  Biso   1.000  H
  H27      1.0000 0.10100  0.40700  0.72100  Biso   1.000  H
  H28      1.0000 0.99300  0.29400  0.93100  Biso   1.000  H
  N8       1.0000 0.65760  0.15270  0.83050  Biso   1.000  N
  C36      1.0000 0.69930  0.09440  0.69800  Biso   1.000  C
  C37      1.0000 0.64210  0.03000  0.57000  Biso   1.000  C
  C38      1.0000 0.53090  0.03350  0.56800  Biso   1.000  C
  C39      1.0000 0.48620  0.09440  0.70600  Biso   1.000  C
  C40      1.0000 0.54880  0.15500  0.82900  Biso   1.000  C
  H29      1.0000 0.78600  0.09600  0.67400  Biso   1.000  H
  H30      1.0000 0.68100  0.97500  0.47100  Biso   1.000  H
  H31      1.0000 0.39900  0.09300  0.72100  Biso   1.000  H
  H32      1.0000 0.50700  0.20600  0.93100  Biso   1.000  H
  Cu1      1.0000 0.75000  0.25000  0.00000  Biso   1.000  Cu
  Cu2      1.0000 0.25000  0.75000  0.00000  Biso   1.000  Cu
