data_image0
_cell_length_a       13.9306
_cell_length_b       13.9306
_cell_length_c       24.0435
_cell_angle_alpha    90
_cell_angle_beta     90
_cell_angle_gamma    120

_symmetry_space_group_name_H-M    "P 1"
_symmetry_int_tables_number       1

loop_
  _symmetry_equiv_pos_as_xyz
  'x, y, z'

loop_
  _atom_site_label
  _atom_site_occupancy
  _atom_site_fract_x
  _atom_site_fract_y
  _atom_site_fract_z
  _atom_site_thermal_displace_type
  _atom_site_B_iso_or_equiv
  _atom_site_type_symbol
  In1      1.0000 0.29304  0.44140  0.47128  Biso   1.000  In
  P1       1.0000 0.12005  0.49220  0.54439  Biso   1.000  P
  P2       1.0000 0.16657  0.19116  0.40118  Biso   1.000  P
  O1       1.0000 0.14400  0.43130  0.49840  Biso   1.000  O
  O2       1.0000 0.18940  0.30550  0.41794  Biso   1.000  O
  O3       1.0000 0.17250  0.47950  0.60030  Biso   1.000  O
  H1       1.0000 0.14660  0.41350  0.60740  Biso   1.000  H
  H2       1.0000 0.38450  0.65890  0.31660  Biso   1.000  H
  O4       1.0000 0.31850  0.55550  0.40880  Biso   1.000  O
  O5       1.0000 0.99740  0.43680  0.55500  Biso   1.000  O
  O6       1.0000 0.14020  0.11290  0.45101  Biso   1.000  O
  O7       1.0000 0.07150  0.14720  0.35840  Biso   1.000  O
  O8       1.0000 0.26610  0.19560  0.36888  Biso   1.000  O
  H3       1.0000 0.32140  0.22380  0.38870  Biso   1.000  H
  O9       1.0000 0.17310  0.61560  0.53409  Biso   1.000  O
  In2      1.0000 0.55860  0.85164  0.47128  Biso   1.000  In
  P3       1.0000 0.50780  0.62785  0.54439  Biso   1.000  P
  P4       1.0000 0.80884  0.97541  0.40118  Biso   1.000  P
  O10      1.0000 0.56870  0.71270  0.49840  Biso   1.000  O
  O11      1.0000 0.69450  0.88390  0.41794  Biso   1.000  O
  O12      1.0000 0.52050  0.69300  0.60030  Biso   1.000  O
  H4       1.0000 0.58650  0.73310  0.60740  Biso   1.000  H
  H5       1.0000 0.34110  0.72560  0.31660  Biso   1.000  H
  O13      1.0000 0.44450  0.76300  0.40880  Biso   1.000  O
  O14      1.0000 0.56320  0.56060  0.55500  Biso   1.000  O
  O15      1.0000 0.88710  0.02730  0.45101  Biso   1.000  O
  O16      1.0000 0.85280  0.92430  0.35840  Biso   1.000  O
  O17      1.0000 0.80440  0.07050  0.36888  Biso   1.000  O
  H6       1.0000 0.77620  0.09760  0.38870  Biso   1.000  H
  O18      1.0000 0.38440  0.55750  0.53409  Biso   1.000  O
  In3      1.0000 0.14836  0.70696  0.47128  Biso   1.000  In
  P5       1.0000 0.37215  0.87995  0.54439  Biso   1.000  P
  P6       1.0000 0.02459  0.83343  0.40118  Biso   1.000  P
  O19      1.0000 0.28730  0.85600  0.49840  Biso   1.000  O
  O20      1.0000 0.11610  0.81060  0.41794  Biso   1.000  O
  O21      1.0000 0.30700  0.82750  0.60030  Biso   1.000  O
  H7       1.0000 0.26690  0.85340  0.60740  Biso   1.000  H
  H8       1.0000 0.27440  0.61550  0.31660  Biso   1.000  H
  O22      1.0000 0.23700  0.68150  0.40880  Biso   1.000  O
  O23      1.0000 0.43940  0.00260  0.55500  Biso   1.000  O
  O24      1.0000 0.97270  0.85980  0.45101  Biso   1.000  O
  O25      1.0000 0.07570  0.92850  0.35840  Biso   1.000  O
  O26      1.0000 0.92950  0.73390  0.36888  Biso   1.000  O
  H9       1.0000 0.90240  0.67860  0.38870  Biso   1.000  H
  O27      1.0000 0.44250  0.82690  0.53409  Biso   1.000  O
  In4      1.0000 0.55860  0.70696  0.02872  Biso   1.000  In
  P7       1.0000 0.50780  0.87995  0.95561  Biso   1.000  P
  P8       1.0000 0.80884  0.83343  0.09882  Biso   1.000  P
  O28      1.0000 0.56870  0.85600  0.00160  Biso   1.000  O
  O29      1.0000 0.69450  0.81060  0.08206  Biso   1.000  O
  O30      1.0000 0.52050  0.82750  0.89970  Biso   1.000  O
  H10      1.0000 0.58650  0.85340  0.89260  Biso   1.000  H
  H11      1.0000 0.34110  0.61550  0.18340  Biso   1.000  H
  O31      1.0000 0.44450  0.68150  0.09120  Biso   1.000  O
  O32      1.0000 0.56320  0.00260  0.94500  Biso   1.000  O
  O33      1.0000 0.88710  0.85980  0.04899  Biso   1.000  O
  O34      1.0000 0.85280  0.92850  0.14160  Biso   1.000  O
  O35      1.0000 0.80440  0.73390  0.13112  Biso   1.000  O
  H12      1.0000 0.77620  0.67860  0.11130  Biso   1.000  H
  O36      1.0000 0.38440  0.82690  0.96591  Biso   1.000  O
  In5      1.0000 0.14836  0.44140  0.02872  Biso   1.000  In
  P9       1.0000 0.37215  0.49220  0.95561  Biso   1.000  P
  P10      1.0000 0.02459  0.19116  0.09882  Biso   1.000  P
  O37      1.0000 0.28730  0.43130  0.00160  Biso   1.000  O
  O38      1.0000 0.11610  0.30550  0.08206  Biso   1.000  O
  O39      1.0000 0.30700  0.47950  0.89970  Biso   1.000  O
  H13      1.0000 0.26690  0.41350  0.89260  Biso   1.000  H
  H14      1.0000 0.27440  0.65890  0.18340  Biso   1.000  H
  O40      1.0000 0.23700  0.55550  0.09120  Biso   1.000  O
  O41      1.0000 0.43940  0.43680  0.94500  Biso   1.000  O
  O42      1.0000 0.97270  0.11290  0.04899  Biso   1.000  O
  O43      1.0000 0.07570  0.14720  0.14160  Biso   1.000  O
  O44      1.0000 0.92950  0.19560  0.13112  Biso   1.000  O
  H15      1.0000 0.90240  0.22380  0.11130  Biso   1.000  H
  O45      1.0000 0.44250  0.61560  0.96591  Biso   1.000  O
  In6      1.0000 0.29304  0.85164  0.02872  Biso   1.000  In
  P11      1.0000 0.12005  0.62785  0.95561  Biso   1.000  P
  P12      1.0000 0.16657  0.97541  0.09882  Biso   1.000  P
  O46      1.0000 0.14400  0.71270  0.00160  Biso   1.000  O
  O47      1.0000 0.18940  0.88390  0.08206  Biso   1.000  O
  O48      1.0000 0.17250  0.69300  0.89970  Biso   1.000  O
  H16      1.0000 0.14660  0.73310  0.89260  Biso   1.000  H
  H17      1.0000 0.38450  0.72560  0.18340  Biso   1.000  H
  O49      1.0000 0.31850  0.76300  0.09120  Biso   1.000  O
  O50      1.0000 0.99740  0.56060  0.94500  Biso   1.000  O
  O51      1.0000 0.14020  0.02730  0.04899  Biso   1.000  O
  O52      1.0000 0.07150  0.92430  0.14160  Biso   1.000  O
  O53      1.0000 0.26610  0.07050  0.13112  Biso   1.000  O
  H18      1.0000 0.32140  0.09760  0.11130  Biso   1.000  H
  O54      1.0000 0.17310  0.55750  0.96591  Biso   1.000  O
  In7      1.0000 0.70696  0.55860  0.52872  Biso   1.000  In
  P13      1.0000 0.87995  0.50780  0.45561  Biso   1.000  P
  P14      1.0000 0.83343  0.80884  0.59882  Biso   1.000  P
  O55      1.0000 0.85600  0.56870  0.50160  Biso   1.000  O
  O56      1.0000 0.81060  0.69450  0.58206  Biso   1.000  O
  O57      1.0000 0.82750  0.52050  0.39970  Biso   1.000  O
  H19      1.0000 0.85340  0.58650  0.39260  Biso   1.000  H
  H20      1.0000 0.61550  0.34110  0.68340  Biso   1.000  H
  O58      1.0000 0.68150  0.44450  0.59120  Biso   1.000  O
  O59      1.0000 0.00260  0.56320  0.44500  Biso   1.000  O
  O60      1.0000 0.85980  0.88710  0.54899  Biso   1.000  O
  O61      1.0000 0.92850  0.85280  0.64160  Biso   1.000  O
  O62      1.0000 0.73390  0.80440  0.63112  Biso   1.000  O
  H21      1.0000 0.67860  0.77620  0.61130  Biso   1.000  H
  O63      1.0000 0.82690  0.38440  0.46591  Biso   1.000  O
  In8      1.0000 0.44140  0.14836  0.52872  Biso   1.000  In
  P15      1.0000 0.49220  0.37215  0.45561  Biso   1.000  P
  P16      1.0000 0.19116  0.02459  0.59882  Biso   1.000  P
  O64      1.0000 0.43130  0.28730  0.50160  Biso   1.000  O
  O65      1.0000 0.30550  0.11610  0.58206  Biso   1.000  O
  O66      1.0000 0.47950  0.30700  0.39970  Biso   1.000  O
  H22      1.0000 0.41350  0.26690  0.39260  Biso   1.000  H
  H23      1.0000 0.65890  0.27440  0.68340  Biso   1.000  H
  O67      1.0000 0.55550  0.23700  0.59120  Biso   1.000  O
  O68      1.0000 0.43680  0.43940  0.44500  Biso   1.000  O
  O69      1.0000 0.11290  0.97270  0.54899  Biso   1.000  O
  O70      1.0000 0.14720  0.07570  0.64160  Biso   1.000  O
  O71      1.0000 0.19560  0.92950  0.63112  Biso   1.000  O
  H24      1.0000 0.22380  0.90240  0.61130  Biso   1.000  H
  O72      1.0000 0.61560  0.44250  0.46591  Biso   1.000  O
  In9      1.0000 0.85164  0.29304  0.52872  Biso   1.000  In
  P17      1.0000 0.62785  0.12005  0.45561  Biso   1.000  P
  P18      1.0000 0.97541  0.16657  0.59882  Biso   1.000  P
  O73      1.0000 0.71270  0.14400  0.50160  Biso   1.000  O
  O74      1.0000 0.88390  0.18940  0.58206  Biso   1.000  O
  O75      1.0000 0.69300  0.17250  0.39970  Biso   1.000  O
  H25      1.0000 0.73310  0.14660  0.39260  Biso   1.000  H
  H26      1.0000 0.72560  0.38450  0.68340  Biso   1.000  H
  O76      1.0000 0.76300  0.31850  0.59120  Biso   1.000  O
  O77      1.0000 0.56060  0.99740  0.44500  Biso   1.000  O
  O78      1.0000 0.02730  0.14020  0.54899  Biso   1.000  O
  O79      1.0000 0.92430  0.07150  0.64160  Biso   1.000  O
  O80      1.0000 0.07050  0.26610  0.63112  Biso   1.000  O
  H27      1.0000 0.09760  0.32140  0.61130  Biso   1.000  H
  O81      1.0000 0.55750  0.17310  0.46591  Biso   1.000  O
  In10     1.0000 0.44140  0.29304  0.97128  Biso   1.000  In
  P19      1.0000 0.49220  0.12005  0.04439  Biso   1.000  P
  P20      1.0000 0.19116  0.16657  0.90118  Biso   1.000  P
  O82      1.0000 0.43130  0.14400  0.99840  Biso   1.000  O
  O83      1.0000 0.30550  0.18940  0.91794  Biso   1.000  O
  O84      1.0000 0.47950  0.17250  0.10030  Biso   1.000  O
  H28      1.0000 0.41350  0.14660  0.10740  Biso   1.000  H
  H29      1.0000 0.65890  0.38450  0.81660  Biso   1.000  H
  O85      1.0000 0.55550  0.31850  0.90880  Biso   1.000  O
  O86      1.0000 0.43680  0.99740  0.05500  Biso   1.000  O
  O87      1.0000 0.11290  0.14020  0.95101  Biso   1.000  O
  O88      1.0000 0.14720  0.07150  0.85840  Biso   1.000  O
  O89      1.0000 0.19560  0.26610  0.86888  Biso   1.000  O
  H30      1.0000 0.22380  0.32140  0.88870  Biso   1.000  H
  O90      1.0000 0.61560  0.17310  0.03409  Biso   1.000  O
  In11     1.0000 0.85164  0.55860  0.97128  Biso   1.000  In
  P21      1.0000 0.62785  0.50780  0.04439  Biso   1.000  P
  P22      1.0000 0.97541  0.80884  0.90118  Biso   1.000  P
  O91      1.0000 0.71270  0.56870  0.99840  Biso   1.000  O
  O92      1.0000 0.88390  0.69450  0.91794  Biso   1.000  O
  O93      1.0000 0.69300  0.52050  0.10030  Biso   1.000  O
  H31      1.0000 0.73310  0.58650  0.10740  Biso   1.000  H
  H32      1.0000 0.72560  0.34110  0.81660  Biso   1.000  H
  O94      1.0000 0.76300  0.44450  0.90880  Biso   1.000  O
  O95      1.0000 0.56060  0.56320  0.05500  Biso   1.000  O
  O96      1.0000 0.02730  0.88710  0.95101  Biso   1.000  O
  O97      1.0000 0.92430  0.85280  0.85840  Biso   1.000  O
  O98      1.0000 0.07050  0.80440  0.86888  Biso   1.000  O
  H33      1.0000 0.09760  0.77620  0.88870  Biso   1.000  H
  O99      1.0000 0.55750  0.38440  0.03409  Biso   1.000  O
  In12     1.0000 0.70696  0.14836  0.97128  Biso   1.000  In
  P23      1.0000 0.87995  0.37215  0.04439  Biso   1.000  P
  P24      1.0000 0.83343  0.02459  0.90118  Biso   1.000  P
  O100     1.0000 0.85600  0.28730  0.99840  Biso   1.000  O
  O101     1.0000 0.81060  0.11610  0.91794  Biso   1.000  O
  O102     1.0000 0.82750  0.30700  0.10030  Biso   1.000  O
  H34      1.0000 0.85340  0.26690  0.10740  Biso   1.000  H
  H35      1.0000 0.61550  0.27440  0.81660  Biso   1.000  H
  O103     1.0000 0.68150  0.23700  0.90880  Biso   1.000  O
  O104     1.0000 0.00260  0.43940  0.05500  Biso   1.000  O
  O105     1.0000 0.85980  0.97270  0.95101  Biso   1.000  O
  O106     1.0000 0.92850  0.07570  0.85840  Biso   1.000  O
  O107     1.0000 0.73390  0.92950  0.86888  Biso   1.000  O
  H36      1.0000 0.67860  0.90240  0.88870  Biso   1.000  H
  O108     1.0000 0.82690  0.44250  0.03409  Biso   1.000  O
  In13     1.0000 0.00000  0.00000  0.50000  Biso   1.000  In
  In14     1.0000 0.00000  0.00000  0.00000  Biso   1.000  In
  In15     1.0000 0.00000  0.00000  0.31507  Biso   1.000  In
  In16     1.0000 0.00000  0.00000  0.18493  Biso   1.000  In
  In17     1.0000 0.00000  0.00000  0.68493  Biso   1.000  In
  In18     1.0000 0.00000  0.00000  0.81507  Biso   1.000  In
  P25      1.0000 0.33333  0.66667  0.39315  Biso   1.000  P
  O109     1.0000 0.33333  0.66667  0.32800  Biso   1.000  O
  P26      1.0000 0.33333  0.66667  0.10685  Biso   1.000  P
  O110     1.0000 0.33333  0.66667  0.17200  Biso   1.000  O
  P27      1.0000 0.66667  0.33333  0.60685  Biso   1.000  P
  O111     1.0000 0.66667  0.33333  0.67200  Biso   1.000  O
  P28      1.0000 0.66667  0.33333  0.89315  Biso   1.000  P
  O112     1.0000 0.66667  0.33333  0.82800  Biso   1.000  O
  F1       1.0000 0.12340  0.06170  0.25000  Biso   1.000  F
  F2       1.0000 0.93830  0.06170  0.25000  Biso   1.000  F
  F3       1.0000 0.93830  0.87660  0.25000  Biso   1.000  F
  F4       1.0000 0.87660  0.93830  0.75000  Biso   1.000  F
  F5       1.0000 0.06170  0.93830  0.75000  Biso   1.000  F
  F6       1.0000 0.06170  0.12340  0.75000  Biso   1.000  F
