data_LEVDIB_clean
_audit_creation_date              2014-07-02
_audit_creation_method            'Materials Studio'
_symmetry_space_group_name_H-M    'P1'
_symmetry_Int_Tables_number       1
_symmetry_cell_setting            triclinic
loop_
_symmetry_equiv_pos_as_xyz
  x,y,z
_cell_length_a                    18.5676
_cell_length_b                    18.5676
_cell_length_c                    20.4386
_cell_angle_alpha                 62.9847
_cell_angle_beta                  62.9847
_cell_angle_gamma                 60.0000
loop_
_atom_site_label
_atom_site_type_symbol
_atom_site_fract_x
_atom_site_fract_y
_atom_site_fract_z
_atom_site_U_iso_or_equiv
_atom_site_adp_type
_atom_site_occupancy
Cu1    Cu    0.49723   0.06845   0.93778   0.01267  Uiso   1.00
Cu2    Cu    0.06845   0.49654   0.93778   0.01267  Uiso   1.00
Cu3    Cu    0.49654   0.49723   0.93778   0.01267  Uiso   1.00
Cu4    Cu    0.50277   0.50346   0.06222   0.01267  Uiso   1.00
Cu5    Cu    0.93155   0.50277   0.06222   0.01267  Uiso   1.00
Cu6    Cu    0.50346   0.93155   0.06222   0.01267  Uiso   1.00
H1     H     0.77250   0.77200   0.99070   0.01267  Uiso   1.00
H2     H     0.76490   0.97610   0.79750   0.01267  Uiso   1.00
H3     H     0.97950   0.76160   0.80170   0.01267  Uiso   1.00
H4     H     0.93820   0.81320   0.67120   0.01267  Uiso   1.00
H5     H     0.89150   0.00850   0.77710   0.01267  Uiso   1.00
H6     H     0.95840   0.20110   0.59830   0.01267  Uiso   1.00
H7     H     0.99350   0.12880   0.51430   0.01267  Uiso   1.00
H8     H     0.77200   0.46480   0.99070   0.01267  Uiso   1.00
H9     H     0.97610   0.46150   0.79750   0.01267  Uiso   1.00
H10    H     0.76160   0.45720   0.80170   0.01267  Uiso   1.00
H11    H     0.81320   0.57740   0.67120   0.01267  Uiso   1.00
H12    H     0.00850   0.32290   0.77710   0.01267  Uiso   1.00
H13    H     0.20110   0.24220   0.59830   0.01267  Uiso   1.00
H14    H     0.12880   0.36340   0.51430   0.01267  Uiso   1.00
H15    H     0.46480   0.77250   0.99070   0.01267  Uiso   1.00
H16    H     0.46150   0.76490   0.79750   0.01267  Uiso   1.00
H17    H     0.45720   0.97950   0.80170   0.01267  Uiso   1.00
H18    H     0.57740   0.93820   0.67120   0.01267  Uiso   1.00
H19    H     0.32290   0.89150   0.77710   0.01267  Uiso   1.00
H20    H     0.24220   0.95840   0.59830   0.01267  Uiso   1.00
H21    H     0.36340   0.99350   0.51430   0.01267  Uiso   1.00
H22    H     0.22750   0.53520   0.00930   0.01267  Uiso   1.00
H23    H     0.23510   0.53850   0.20250   0.01267  Uiso   1.00
H24    H     0.02050   0.54280   0.19830   0.01267  Uiso   1.00
H25    H     0.06180   0.42260   0.32880   0.01267  Uiso   1.00
H26    H     0.10850   0.67710   0.22290   0.01267  Uiso   1.00
H27    H     0.04160   0.75780   0.40170   0.01267  Uiso   1.00
H28    H     0.00650   0.63660   0.48570   0.01267  Uiso   1.00
H29    H     0.22800   0.22750   0.00930   0.01267  Uiso   1.00
H30    H     0.02390   0.23510   0.20250   0.01267  Uiso   1.00
H31    H     0.23840   0.02050   0.19830   0.01267  Uiso   1.00
H32    H     0.18680   0.06180   0.32880   0.01267  Uiso   1.00
H33    H     0.99150   0.10850   0.22290   0.01267  Uiso   1.00
H34    H     0.79890   0.04160   0.40170   0.01267  Uiso   1.00
H35    H     0.87120   0.00650   0.48570   0.01267  Uiso   1.00
H36    H     0.53520   0.22800   0.00930   0.01267  Uiso   1.00
H37    H     0.53850   0.02390   0.20250   0.01267  Uiso   1.00
H38    H     0.54280   0.23840   0.19830   0.01267  Uiso   1.00
H39    H     0.42260   0.18680   0.32880   0.01267  Uiso   1.00
H40    H     0.67710   0.99150   0.22290   0.01267  Uiso   1.00
H41    H     0.75780   0.79890   0.40170   0.01267  Uiso   1.00
H42    H     0.63660   0.87120   0.48570   0.01267  Uiso   1.00
C1     C     0.93139   0.65689   0.93793   0.01267  Uiso   1.00
C2     C     0.88411   0.75261   0.90007   0.01267  Uiso   1.00
C3     C     0.79734   0.79844   0.93958   0.01267  Uiso   1.00
C4     C     0.75138   0.87868   0.90406   0.01267  Uiso   1.00
C5     C     0.66085   0.92195   0.94195   0.01267  Uiso   1.00
C6     C     0.79469   0.91929   0.82273   0.01267  Uiso   1.00
C7     C     0.87683   0.87513   0.78451   0.01267  Uiso   1.00
C8     C     0.92222   0.79132   0.82564   0.01267  Uiso   1.00
C9     C     0.92344   0.90974   0.70258   0.01267  Uiso   1.00
C10    C     0.94452   0.86642   0.65224   0.01267  Uiso   1.00
C11    C     0.97507   0.90247   0.57349   0.01267  Uiso   1.00
C12    C     0.98454   0.98184   0.54508   0.01267  Uiso   1.00
C13    C     0.96356   0.02516   0.59542   0.01267  Uiso   1.00
C14    C     0.93301   0.98911   0.67417   0.01267  Uiso   1.00
C15    C     0.91192   0.03252   0.72454   0.01267  Uiso   1.00
C16    C     0.92150   0.11190   0.69610   0.01267  Uiso   1.00
C17    C     0.95190   0.14800   0.61750   0.01267  Uiso   1.00
C18    C     0.97302   0.10462   0.56704   0.01267  Uiso   1.00
C19    C     0.65689   0.47379   0.93793   0.01267  Uiso   1.00
C20    C     0.75261   0.46321   0.90007   0.01267  Uiso   1.00
C21    C     0.79844   0.46464   0.93958   0.01267  Uiso   1.00
C22    C     0.87868   0.46588   0.90406   0.01267  Uiso   1.00
C23    C     0.92195   0.47525   0.94195   0.01267  Uiso   1.00
C24    C     0.91929   0.46329   0.82273   0.01267  Uiso   1.00
C25    C     0.87513   0.46353   0.78451   0.01267  Uiso   1.00
C26    C     0.79132   0.46082   0.82564   0.01267  Uiso   1.00
C27    C     0.90974   0.46424   0.70258   0.01267  Uiso   1.00
C28    C     0.86642   0.53682   0.65224   0.01267  Uiso   1.00
C29    C     0.90247   0.54897   0.57349   0.01267  Uiso   1.00
C30    C     0.98184   0.48854   0.54508   0.01267  Uiso   1.00
C31    C     0.02516   0.41586   0.59542   0.01267  Uiso   1.00
C32    C     0.98911   0.40371   0.67417   0.01267  Uiso   1.00
C33    C     0.03252   0.33102   0.72454   0.01267  Uiso   1.00
C34    C     0.11190   0.27050   0.69610   0.01267  Uiso   1.00
C35    C     0.14800   0.28260   0.61750   0.01267  Uiso   1.00
C36    C     0.10462   0.35532   0.56704   0.01267  Uiso   1.00
C37    C     0.47379   0.93139   0.93793   0.01267  Uiso   1.00
C38    C     0.46321   0.88411   0.90007   0.01267  Uiso   1.00
C39    C     0.46464   0.79734   0.93958   0.01267  Uiso   1.00
C40    C     0.46588   0.75138   0.90406   0.01267  Uiso   1.00
C41    C     0.47525   0.66085   0.94195   0.01267  Uiso   1.00
C42    C     0.46329   0.79469   0.82273   0.01267  Uiso   1.00
C43    C     0.46353   0.87683   0.78451   0.01267  Uiso   1.00
C44    C     0.46082   0.92222   0.82564   0.01267  Uiso   1.00
C45    C     0.46424   0.92344   0.70258   0.01267  Uiso   1.00
C46    C     0.53682   0.94452   0.65224   0.01267  Uiso   1.00
C47    C     0.54897   0.97507   0.57349   0.01267  Uiso   1.00
C48    C     0.48854   0.98454   0.54508   0.01267  Uiso   1.00
C49    C     0.41586   0.96356   0.59542   0.01267  Uiso   1.00
C50    C     0.40371   0.93301   0.67417   0.01267  Uiso   1.00
C51    C     0.33102   0.91192   0.72454   0.01267  Uiso   1.00
C52    C     0.27050   0.92150   0.69610   0.01267  Uiso   1.00
C53    C     0.28260   0.95190   0.61750   0.01267  Uiso   1.00
C54    C     0.35532   0.97302   0.56704   0.01267  Uiso   1.00
C55    C     0.06861   0.52621   0.06207   0.01267  Uiso   1.00
C56    C     0.11589   0.53679   0.09993   0.01267  Uiso   1.00
C57    C     0.20266   0.53536   0.06042   0.01267  Uiso   1.00
C58    C     0.24862   0.53412   0.09594   0.01267  Uiso   1.00
C59    C     0.33915   0.52475   0.05805   0.01267  Uiso   1.00
C60    C     0.20531   0.53671   0.17727   0.01267  Uiso   1.00
C61    C     0.12317   0.53647   0.21549   0.01267  Uiso   1.00
C62    C     0.07778   0.53918   0.17436   0.01267  Uiso   1.00
C63    C     0.07656   0.53576   0.29742   0.01267  Uiso   1.00
C64    C     0.05548   0.46318   0.34776   0.01267  Uiso   1.00
C65    C     0.02493   0.45103   0.42651   0.01267  Uiso   1.00
C66    C     0.01546   0.51146   0.45492   0.01267  Uiso   1.00
C67    C     0.03644   0.58414   0.40458   0.01267  Uiso   1.00
C68    C     0.06699   0.59629   0.32583   0.01267  Uiso   1.00
C69    C     0.08808   0.66898   0.27546   0.01267  Uiso   1.00
C70    C     0.07850   0.72950   0.30390   0.01267  Uiso   1.00
C71    C     0.04810   0.71740   0.38250   0.01267  Uiso   1.00
C72    C     0.02698   0.64468   0.43296   0.01267  Uiso   1.00
C73    C     0.34311   0.06861   0.06207   0.01267  Uiso   1.00
C74    C     0.24739   0.11589   0.09993   0.01267  Uiso   1.00
C75    C     0.20156   0.20266   0.06042   0.01267  Uiso   1.00
C76    C     0.12132   0.24862   0.09594   0.01267  Uiso   1.00
C77    C     0.07805   0.33915   0.05805   0.01267  Uiso   1.00
C78    C     0.08071   0.20531   0.17727   0.01267  Uiso   1.00
C79    C     0.12487   0.12317   0.21549   0.01267  Uiso   1.00
C80    C     0.20868   0.07778   0.17436   0.01267  Uiso   1.00
C81    C     0.09026   0.07656   0.29742   0.01267  Uiso   1.00
C82    C     0.13358   0.05548   0.34776   0.01267  Uiso   1.00
C83    C     0.09753   0.02493   0.42651   0.01267  Uiso   1.00
C84    C     0.01816   0.01546   0.45492   0.01267  Uiso   1.00
C85    C     0.97484   0.03644   0.40458   0.01267  Uiso   1.00
C86    C     0.01089   0.06699   0.32583   0.01267  Uiso   1.00
C87    C     0.96748   0.08808   0.27546   0.01267  Uiso   1.00
C88    C     0.88810   0.07850   0.30390   0.01267  Uiso   1.00
C89    C     0.85200   0.04810   0.38250   0.01267  Uiso   1.00
C90    C     0.89538   0.02698   0.43296   0.01267  Uiso   1.00
C91    C     0.52621   0.34311   0.06207   0.01267  Uiso   1.00
C92    C     0.53679   0.24739   0.09993   0.01267  Uiso   1.00
C93    C     0.53536   0.20156   0.06042   0.01267  Uiso   1.00
C94    C     0.53412   0.12132   0.09594   0.01267  Uiso   1.00
C95    C     0.52475   0.07805   0.05805   0.01267  Uiso   1.00
C96    C     0.53671   0.08071   0.17727   0.01267  Uiso   1.00
C97    C     0.53647   0.12487   0.21549   0.01267  Uiso   1.00
C98    C     0.53918   0.20868   0.17436   0.01267  Uiso   1.00
C99    C     0.53576   0.09026   0.29742   0.01267  Uiso   1.00
C100   C     0.46318   0.13358   0.34776   0.01267  Uiso   1.00
C101   C     0.45103   0.09753   0.42651   0.01267  Uiso   1.00
C102   C     0.51146   0.01816   0.45492   0.01267  Uiso   1.00
C103   C     0.58414   0.97484   0.40458   0.01267  Uiso   1.00
C104   C     0.59629   0.01089   0.32583   0.01267  Uiso   1.00
C105   C     0.66898   0.96748   0.27546   0.01267  Uiso   1.00
C106   C     0.72950   0.88810   0.30390   0.01267  Uiso   1.00
C107   C     0.71740   0.85200   0.38250   0.01267  Uiso   1.00
C108   C     0.64468   0.89538   0.43296   0.01267  Uiso   1.00
Cl1    Cl    0.92630   0.17170   0.74980   0.01267  Uiso   1.00
Cl2    Cl    0.17170   0.15220   0.74980   0.01267  Uiso   1.00
Cl3    Cl    0.15220   0.92630   0.74980   0.01267  Uiso   1.00
Cl4    Cl    0.07370   0.84780   0.25020   0.01267  Uiso   1.00
Cl5    Cl    0.82830   0.07370   0.25020   0.01267  Uiso   1.00
Cl6    Cl    0.84780   0.82830   0.25020   0.01267  Uiso   1.00
O1     O     0.00368   0.61908   0.89956   0.01267  Uiso   1.00
O2     O     0.88682   0.62662   0.00534   0.01267  Uiso   1.00
O3     O     0.62756   0.88676   0.00462   0.01267  Uiso   1.00
O4     O     0.62290   0.00220   0.90160   0.01267  Uiso   1.00
O5     O     0.02160   0.84810   0.51970   0.01267  Uiso   1.00
O6     O     0.61908   0.47768   0.89956   0.01267  Uiso   1.00
O7     O     0.62662   0.48122   0.00534   0.01267  Uiso   1.00
O8     O     0.88676   0.48106   0.00462   0.01267  Uiso   1.00
O9     O     0.00220   0.47330   0.90160   0.01267  Uiso   1.00
O10    O     0.84810   0.61060   0.51970   0.01267  Uiso   1.00
O11    O     0.47768   0.00368   0.89956   0.01267  Uiso   1.00
O12    O     0.48122   0.88682   0.00534   0.01267  Uiso   1.00
O13    O     0.48106   0.62756   0.00462   0.01267  Uiso   1.00
O14    O     0.47330   0.62290   0.90160   0.01267  Uiso   1.00
O15    O     0.61060   0.02160   0.51970   0.01267  Uiso   1.00
O16    O     0.99632   0.52232   0.10044   0.01267  Uiso   1.00
O17    O     0.11318   0.51878   0.99466   0.01267  Uiso   1.00
O18    O     0.37244   0.51894   0.99538   0.01267  Uiso   1.00
O19    O     0.37710   0.52670   0.09840   0.01267  Uiso   1.00
O20    O     0.97840   0.38940   0.48030   0.01267  Uiso   1.00
O21    O     0.38092   0.99632   0.10044   0.01267  Uiso   1.00
O22    O     0.37338   0.11318   0.99466   0.01267  Uiso   1.00
O23    O     0.11324   0.37244   0.99538   0.01267  Uiso   1.00
O24    O     0.99780   0.37710   0.09840   0.01267  Uiso   1.00
O25    O     0.15190   0.97840   0.48030   0.01267  Uiso   1.00
O26    O     0.52232   0.38092   0.10044   0.01267  Uiso   1.00
O27    O     0.51878   0.37338   0.99466   0.01267  Uiso   1.00
O28    O     0.51894   0.11324   0.99538   0.01267  Uiso   1.00
O29    O     0.52670   0.99780   0.09840   0.01267  Uiso   1.00
O30    O     0.38940   0.15190   0.48030   0.01267  Uiso   1.00
