data_LEVNOQ01_clean
_audit_creation_date              2014-07-02
_audit_creation_method            'Materials Studio'
_symmetry_space_group_name_H-M    'P1'
_symmetry_Int_Tables_number       1
_symmetry_cell_setting            triclinic
loop_
_symmetry_equiv_pos_as_xyz
  x,y,z
_cell_length_a                    11.0942
_cell_length_b                    11.0942
_cell_length_c                    21.0440
_cell_angle_alpha                 95.8930
_cell_angle_beta                  95.8930
_cell_angle_gamma                 107.2150
loop_
_atom_site_label
_atom_site_type_symbol
_atom_site_fract_x
_atom_site_fract_y
_atom_site_fract_z
_atom_site_U_iso_or_equiv
_atom_site_adp_type
_atom_site_occupancy
Mg1    Mg    0.98216   0.49898   0.19429   0.01267  Uiso   1.00
Mg2    Mg    0.50102   0.01784   0.30571   0.01267  Uiso   1.00
Mg3    Mg    0.01784   0.50102   0.80571   0.01267  Uiso   1.00
Mg4    Mg    0.49898   0.98216   0.69429   0.01267  Uiso   1.00
Mg5    Mg    0.75266   0.24734   0.25000   0.01267  Uiso   1.00
Mg6    Mg    0.24734   0.75266   0.75000   0.01267  Uiso   1.00
H1     H     0.89860   0.97960   0.14930   0.01267  Uiso   1.00
H2     H     0.01260   0.24240   0.03040   0.01267  Uiso   1.00
H3     H     0.93460   0.82420   0.07800   0.01267  Uiso   1.00
H4     H     0.71980   0.60640   0.07700   0.01267  Uiso   1.00
H5     H     0.47670   0.26430   0.09750   0.01267  Uiso   1.00
H6     H     0.66350   0.72490   0.98940   0.01267  Uiso   1.00
H7     H     0.00550   0.72230   0.39600   0.01267  Uiso   1.00
H8     H     0.94990   0.34350   0.38920   0.01267  Uiso   1.00
H9     H     0.03140   0.74820   0.50710   0.01267  Uiso   1.00
H10    H     0.02040   0.10140   0.35070   0.01267  Uiso   1.00
H11    H     0.75760   0.98740   0.46960   0.01267  Uiso   1.00
H12    H     0.17580   0.06540   0.42200   0.01267  Uiso   1.00
H13    H     0.39360   0.28020   0.42300   0.01267  Uiso   1.00
H14    H     0.73570   0.52330   0.40250   0.01267  Uiso   1.00
H15    H     0.27510   0.33650   0.51060   0.01267  Uiso   1.00
H16    H     0.27770   0.99450   0.10400   0.01267  Uiso   1.00
H17    H     0.65650   0.05010   0.11080   0.01267  Uiso   1.00
H18    H     0.25180   0.96860   0.99290   0.01267  Uiso   1.00
H19    H     0.10140   0.02040   0.85070   0.01267  Uiso   1.00
H20    H     0.98740   0.75760   0.96960   0.01267  Uiso   1.00
H21    H     0.06540   0.17580   0.92200   0.01267  Uiso   1.00
H22    H     0.28020   0.39360   0.92300   0.01267  Uiso   1.00
H23    H     0.52330   0.73570   0.90250   0.01267  Uiso   1.00
H24    H     0.33650   0.27510   0.01060   0.01267  Uiso   1.00
H25    H     0.99450   0.27770   0.60400   0.01267  Uiso   1.00
H26    H     0.05010   0.65650   0.61080   0.01267  Uiso   1.00
H27    H     0.96860   0.25180   0.49290   0.01267  Uiso   1.00
H28    H     0.97960   0.89860   0.64930   0.01267  Uiso   1.00
H29    H     0.24240   0.01260   0.53040   0.01267  Uiso   1.00
H30    H     0.82420   0.93460   0.57800   0.01267  Uiso   1.00
H31    H     0.60640   0.71980   0.57700   0.01267  Uiso   1.00
H32    H     0.26430   0.47670   0.59750   0.01267  Uiso   1.00
H33    H     0.72490   0.66350   0.48940   0.01267  Uiso   1.00
H34    H     0.72230   0.00550   0.89600   0.01267  Uiso   1.00
H35    H     0.34350   0.94990   0.88920   0.01267  Uiso   1.00
H36    H     0.74820   0.03140   0.00710   0.01267  Uiso   1.00
C1     C     0.91850   0.22450   0.14108   0.01267  Uiso   1.00
C2     C     0.95040   0.12700   0.09559   0.01267  Uiso   1.00
C3     C     0.92790   0.00050   0.10979   0.01267  Uiso   1.00
C4     C     0.99400   0.15700   0.03910   0.01267  Uiso   1.00
C5     C     0.01240   0.06320   0.99268   0.01267  Uiso   1.00
C6     C     0.94780   0.90780   0.06716   0.01267  Uiso   1.00
C7     C     0.70638   0.42482   0.15020   0.01267  Uiso   1.00
C8     C     0.61282   0.43558   0.09528   0.01267  Uiso   1.00
C9     C     0.64199   0.53981   0.06329   0.01267  Uiso   1.00
C10    C     0.55770   0.54970   0.01002   0.01267  Uiso   1.00
C11    C     0.49710   0.33630   0.07516   0.01267  Uiso   1.00
C12    C     0.58620   0.65720   0.97623   0.01267  Uiso   1.00
C13    C     0.96214   0.51586   0.31065   0.01267  Uiso   1.00
C14    C     0.97428   0.52832   0.38242   0.01267  Uiso   1.00
C15    C     0.99995   0.65065   0.41802   0.01267  Uiso   1.00
C16    C     0.96777   0.42523   0.41356   0.01267  Uiso   1.00
C17    C     0.98757   0.43863   0.48224   0.01267  Uiso   1.00
C18    C     0.01670   0.66610   0.48373   0.01267  Uiso   1.00
C19    C     0.77550   0.08150   0.35892   0.01267  Uiso   1.00
C20    C     0.87300   0.04960   0.40441   0.01267  Uiso   1.00
C21    C     0.99950   0.07210   0.39021   0.01267  Uiso   1.00
C22    C     0.84300   0.00600   0.46090   0.01267  Uiso   1.00
C23    C     0.93680   0.98760   0.50732   0.01267  Uiso   1.00
C24    C     0.09220   0.05220   0.43284   0.01267  Uiso   1.00
C25    C     0.57518   0.29362   0.34980   0.01267  Uiso   1.00
C26    C     0.56442   0.38718   0.40472   0.01267  Uiso   1.00
C27    C     0.46019   0.35801   0.43671   0.01267  Uiso   1.00
C28    C     0.45030   0.44230   0.48998   0.01267  Uiso   1.00
C29    C     0.66370   0.50290   0.42484   0.01267  Uiso   1.00
C30    C     0.34280   0.41380   0.52377   0.01267  Uiso   1.00
C31    C     0.48414   0.03786   0.18935   0.01267  Uiso   1.00
C32    C     0.47168   0.02572   0.11758   0.01267  Uiso   1.00
C33    C     0.34935   0.00005   0.08198   0.01267  Uiso   1.00
C34    C     0.57477   0.03223   0.08644   0.01267  Uiso   1.00
C35    C     0.56137   0.01243   0.01776   0.01267  Uiso   1.00
C36    C     0.33390   0.98330   0.01627   0.01267  Uiso   1.00
C37    C     0.08150   0.77550   0.85892   0.01267  Uiso   1.00
C38    C     0.04960   0.87300   0.90441   0.01267  Uiso   1.00
C39    C     0.07210   0.99950   0.89021   0.01267  Uiso   1.00
C40    C     0.00600   0.84300   0.96090   0.01267  Uiso   1.00
C41    C     0.98760   0.93680   0.00732   0.01267  Uiso   1.00
C42    C     0.05220   0.09220   0.93284   0.01267  Uiso   1.00
C43    C     0.29362   0.57518   0.84980   0.01267  Uiso   1.00
C44    C     0.38718   0.56442   0.90472   0.01267  Uiso   1.00
C45    C     0.35801   0.46019   0.93671   0.01267  Uiso   1.00
C46    C     0.44230   0.45030   0.98998   0.01267  Uiso   1.00
C47    C     0.50290   0.66370   0.92484   0.01267  Uiso   1.00
C48    C     0.41380   0.34280   0.02377   0.01267  Uiso   1.00
C49    C     0.03786   0.48414   0.68935   0.01267  Uiso   1.00
C50    C     0.02572   0.47168   0.61758   0.01267  Uiso   1.00
C51    C     0.00005   0.34935   0.58198   0.01267  Uiso   1.00
C52    C     0.03223   0.57477   0.58644   0.01267  Uiso   1.00
C53    C     0.01243   0.56137   0.51776   0.01267  Uiso   1.00
C54    C     0.98330   0.33390   0.51627   0.01267  Uiso   1.00
C55    C     0.22450   0.91850   0.64108   0.01267  Uiso   1.00
C56    C     0.12700   0.95040   0.59559   0.01267  Uiso   1.00
C57    C     0.00050   0.92790   0.60979   0.01267  Uiso   1.00
C58    C     0.15700   0.99400   0.53910   0.01267  Uiso   1.00
C59    C     0.06320   0.01240   0.49268   0.01267  Uiso   1.00
C60    C     0.90780   0.94780   0.56716   0.01267  Uiso   1.00
C61    C     0.42482   0.70638   0.65020   0.01267  Uiso   1.00
C62    C     0.43558   0.61282   0.59528   0.01267  Uiso   1.00
C63    C     0.53981   0.64199   0.56329   0.01267  Uiso   1.00
C64    C     0.54970   0.55770   0.51002   0.01267  Uiso   1.00
C65    C     0.33630   0.49710   0.57516   0.01267  Uiso   1.00
C66    C     0.65720   0.58620   0.47623   0.01267  Uiso   1.00
C67    C     0.51586   0.96214   0.81065   0.01267  Uiso   1.00
C68    C     0.52832   0.97428   0.88242   0.01267  Uiso   1.00
C69    C     0.65065   0.99995   0.91802   0.01267  Uiso   1.00
C70    C     0.42523   0.96777   0.91356   0.01267  Uiso   1.00
C71    C     0.43863   0.98757   0.98224   0.01267  Uiso   1.00
C72    C     0.66610   0.01670   0.98373   0.01267  Uiso   1.00
O1     O     0.95715   0.33825   0.13217   0.01267  Uiso   1.00
O2     O     0.85533   0.18121   0.18491   0.01267  Uiso   1.00
O3     O     0.81207   0.51045   0.16087   0.01267  Uiso   1.00
O4     O     0.67267   0.32995   0.17989   0.01267  Uiso   1.00
O5     O     0.00557   0.61293   0.28451   0.01267  Uiso   1.00
O6     O     0.91605   0.40633   0.27633   0.01267  Uiso   1.00
O7     O     0.66175   0.04285   0.36783   0.01267  Uiso   1.00
O8     O     0.81879   0.14467   0.31509   0.01267  Uiso   1.00
O9     O     0.48955   0.18793   0.33913   0.01267  Uiso   1.00
O10    O     0.67005   0.32733   0.32011   0.01267  Uiso   1.00
O11    O     0.38707   0.99443   0.21549   0.01267  Uiso   1.00
O12    O     0.59367   0.08395   0.22367   0.01267  Uiso   1.00
O13    O     0.04285   0.66175   0.86783   0.01267  Uiso   1.00
O14    O     0.14467   0.81879   0.81509   0.01267  Uiso   1.00
O15    O     0.18793   0.48955   0.83913   0.01267  Uiso   1.00
O16    O     0.32733   0.67005   0.82011   0.01267  Uiso   1.00
O17    O     0.99443   0.38707   0.71549   0.01267  Uiso   1.00
O18    O     0.08395   0.59367   0.72367   0.01267  Uiso   1.00
O19    O     0.33825   0.95715   0.63217   0.01267  Uiso   1.00
O20    O     0.18121   0.85533   0.68491   0.01267  Uiso   1.00
O21    O     0.51045   0.81207   0.66087   0.01267  Uiso   1.00
O22    O     0.32995   0.67267   0.67989   0.01267  Uiso   1.00
O23    O     0.61293   0.00557   0.78451   0.01267  Uiso   1.00
O24    O     0.40633   0.91605   0.77633   0.01267  Uiso   1.00
