data_image0
_cell_length_a       31.864
_cell_length_b       31.864
_cell_length_c       12.846
_cell_angle_alpha    90
_cell_angle_beta     90
_cell_angle_gamma    120

_symmetry_space_group_name_H-M    "P 1"
_symmetry_int_tables_number       1

loop_
  _symmetry_equiv_pos_as_xyz
  'x, y, z'

loop_
  _atom_site_label
  _atom_site_occupancy
  _atom_site_fract_x
  _atom_site_fract_y
  _atom_site_fract_z
  _atom_site_thermal_displace_type
  _atom_site_B_iso_or_equiv
  _atom_site_type_symbol
  C1       1.0000 0.02159  0.29412  0.03400  Biso   1.000  C
  C2       1.0000 0.05546  0.27527  0.02270  Biso   1.000  C
  H1       1.0000 0.06920  0.27650  0.95810  Biso   1.000  H
  C3       1.0000 0.06643  0.25664  0.10330  Biso   1.000  C
  H2       1.0000 0.05010  0.25490  0.16460  Biso   1.000  H
  C4       1.0000 0.10012  0.23843  0.11080  Biso   1.000  C
  C5       1.0000 0.13111  0.24046  0.03200  Biso   1.000  C
  C6       1.0000 0.16487  0.22550  0.04960  Biso   1.000  C
  H3       1.0000 0.18550  0.22730  0.99630  Biso   1.000  H
  C7       1.0000 0.16770  0.20793  0.14670  Biso   1.000  C
  H4       1.0000 0.19070  0.19860  0.15860  Biso   1.000  H
  C8       1.0000 0.13680  0.20400  0.22490  Biso   1.000  C
  H5       1.0000 0.13810  0.19140  0.28930  Biso   1.000  H
  C9       1.0000 0.10353  0.21904  0.20730  Biso   1.000  C
  H6       1.0000 0.08260  0.21620  0.26090  Biso   1.000  H
  C10      1.0000 0.91098  0.24013  0.81490  Biso   1.000  C
  H7       1.0000 0.91550  0.25080  0.88350  Biso   1.000  H
  C11      1.0000 0.86566  0.20358  0.78530  Biso   1.000  C
  H8       1.0000 0.84060  0.19020  0.83380  Biso   1.000  H
  C12      1.0000 0.85732  0.18671  0.68360  Biso   1.000  C
  C13      1.0000 0.89677  0.20916  0.61550  Biso   1.000  C
  H9       1.0000 0.89320  0.19970  0.54600  Biso   1.000  H
  C14      1.0000 0.94085  0.24519  0.65120  Biso   1.000  C
  H10      1.0000 0.96660  0.25940  0.60460  Biso   1.000  H
  N1       1.0000 0.94852  0.26086  0.75010  Biso   1.000  N
  O1       1.0000 0.01044  0.30035  0.12450  Biso   1.000  O
  O2       1.0000 0.00454  0.30376  0.95470  Biso   1.000  O
  O3       1.0000 0.12857  0.25786  0.93820  Biso   1.000  O
  H11      1.0000 0.15550  0.27140  0.91120  Biso   1.000  H
  Zn1      1.0000 0.01673  0.30926  0.80286  Biso   1.000  Zn
  C15      1.0000 0.68826  0.62745  0.36733  Biso   1.000  C
  C16      1.0000 0.72213  0.60860  0.35603  Biso   1.000  C
  H12      1.0000 0.73587  0.60983  0.29143  Biso   1.000  H
  C17      1.0000 0.73310  0.58997  0.43663  Biso   1.000  C
  H13      1.0000 0.71677  0.58823  0.49793  Biso   1.000  H
  C18      1.0000 0.76679  0.57176  0.44413  Biso   1.000  C
  C19      1.0000 0.79778  0.57379  0.36533  Biso   1.000  C
  C20      1.0000 0.83154  0.55883  0.38293  Biso   1.000  C
  H14      1.0000 0.85217  0.56063  0.32963  Biso   1.000  H
  C21      1.0000 0.83437  0.54126  0.48003  Biso   1.000  C
  H15      1.0000 0.85737  0.53193  0.49193  Biso   1.000  H
  C22      1.0000 0.80347  0.53733  0.55823  Biso   1.000  C
  H16      1.0000 0.80477  0.52473  0.62263  Biso   1.000  H
  C23      1.0000 0.77020  0.55237  0.54063  Biso   1.000  C
  H17      1.0000 0.74927  0.54953  0.59423  Biso   1.000  H
  C24      1.0000 0.57765  0.57346  0.14823  Biso   1.000  C
  H18      1.0000 0.58217  0.58413  0.21683  Biso   1.000  H
  C25      1.0000 0.53233  0.53691  0.11863  Biso   1.000  C
  H19      1.0000 0.50727  0.52353  0.16713  Biso   1.000  H
  C26      1.0000 0.52399  0.52004  0.01693  Biso   1.000  C
  C27      1.0000 0.56344  0.54249  0.94883  Biso   1.000  C
  H20      1.0000 0.55987  0.53303  0.87933  Biso   1.000  H
  C28      1.0000 0.60752  0.57852  0.98453  Biso   1.000  C
  H21      1.0000 0.63327  0.59273  0.93793  Biso   1.000  H
  N2       1.0000 0.61519  0.59419  0.08343  Biso   1.000  N
  O4       1.0000 0.67711  0.63368  0.45783  Biso   1.000  O
  O5       1.0000 0.67121  0.63709  0.28803  Biso   1.000  O
  O6       1.0000 0.79524  0.59119  0.27153  Biso   1.000  O
  H22      1.0000 0.82217  0.60473  0.24453  Biso   1.000  H
  Zn2      1.0000 0.68339  0.64260  0.13619  Biso   1.000  Zn
  C29      1.0000 0.35492  0.96079  0.70067  Biso   1.000  C
  C30      1.0000 0.38879  0.94194  0.68937  Biso   1.000  C
  H23      1.0000 0.40253  0.94317  0.62477  Biso   1.000  H
  C31      1.0000 0.39976  0.92331  0.76997  Biso   1.000  C
  H24      1.0000 0.38343  0.92157  0.83127  Biso   1.000  H
  C32      1.0000 0.43345  0.90510  0.77747  Biso   1.000  C
  C33      1.0000 0.46444  0.90713  0.69867  Biso   1.000  C
  C34      1.0000 0.49820  0.89217  0.71627  Biso   1.000  C
  H25      1.0000 0.51883  0.89397  0.66297  Biso   1.000  H
  C35      1.0000 0.50103  0.87460  0.81337  Biso   1.000  C
  H26      1.0000 0.52403  0.86527  0.82527  Biso   1.000  H
  C36      1.0000 0.47013  0.87067  0.89157  Biso   1.000  C
  H27      1.0000 0.47143  0.85807  0.95597  Biso   1.000  H
  C37      1.0000 0.43686  0.88571  0.87397  Biso   1.000  C
  H28      1.0000 0.41593  0.88287  0.92757  Biso   1.000  H
  C38      1.0000 0.24431  0.90680  0.48157  Biso   1.000  C
  H29      1.0000 0.24883  0.91747  0.55017  Biso   1.000  H
  C39      1.0000 0.19899  0.87025  0.45197  Biso   1.000  C
  H30      1.0000 0.17393  0.85687  0.50047  Biso   1.000  H
  C40      1.0000 0.19065  0.85338  0.35027  Biso   1.000  C
  C41      1.0000 0.23010  0.87583  0.28217  Biso   1.000  C
  H31      1.0000 0.22653  0.86637  0.21267  Biso   1.000  H
  C42      1.0000 0.27418  0.91186  0.31787  Biso   1.000  C
  H32      1.0000 0.29993  0.92607  0.27127  Biso   1.000  H
  N3       1.0000 0.28185  0.92753  0.41677  Biso   1.000  N
  O7       1.0000 0.34377  0.96702  0.79117  Biso   1.000  O
  O8       1.0000 0.33787  0.97043  0.62137  Biso   1.000  O
  O9       1.0000 0.46190  0.92453  0.60487  Biso   1.000  O
  H33      1.0000 0.48883  0.93807  0.57787  Biso   1.000  H
  Zn3      1.0000 0.35006  0.97593  0.46953  Biso   1.000  Zn
  C43      1.0000 0.70588  0.72747  0.03400  Biso   1.000  C
  C44      1.0000 0.72473  0.78019  0.02270  Biso   1.000  C
  H34      1.0000 0.72350  0.79270  0.95810  Biso   1.000  H
  C45      1.0000 0.74336  0.80979  0.10330  Biso   1.000  C
  H35      1.0000 0.74510  0.79520  0.16460  Biso   1.000  H
  C46      1.0000 0.76157  0.86169  0.11080  Biso   1.000  C
  C47      1.0000 0.75954  0.89065  0.03200  Biso   1.000  C
  C48      1.0000 0.77450  0.93937  0.04960  Biso   1.000  C
  H36      1.0000 0.77270  0.95820  0.99630  Biso   1.000  H
  C49      1.0000 0.79207  0.95977  0.14670  Biso   1.000  C
  H37      1.0000 0.80140  0.99210  0.15860  Biso   1.000  H
  C50      1.0000 0.79600  0.93280  0.22490  Biso   1.000  C
  H38      1.0000 0.80860  0.94670  0.28930  Biso   1.000  H
  C51      1.0000 0.78096  0.88449  0.20730  Biso   1.000  C
  H39      1.0000 0.78380  0.86640  0.26090  Biso   1.000  H
  C52      1.0000 0.75987  0.67085  0.81490  Biso   1.000  C
  H40      1.0000 0.74920  0.66470  0.88350  Biso   1.000  H
  C53      1.0000 0.79642  0.66208  0.78530  Biso   1.000  C
  H41      1.0000 0.80980  0.65040  0.83380  Biso   1.000  H
  C54      1.0000 0.81329  0.67061  0.68360  Biso   1.000  C
  C55      1.0000 0.79084  0.68761  0.61550  Biso   1.000  C
  H42      1.0000 0.80030  0.69350  0.54600  Biso   1.000  H
  C56      1.0000 0.75481  0.69566  0.65120  Biso   1.000  C
  H43      1.0000 0.74060  0.70720  0.60460  Biso   1.000  H
  N4       1.0000 0.73914  0.68766  0.75010  Biso   1.000  N
  O10      1.0000 0.69965  0.71009  0.12450  Biso   1.000  O
  O11      1.0000 0.69624  0.70078  0.95470  Biso   1.000  O
  O12      1.0000 0.74214  0.87071  0.93820  Biso   1.000  O
  H44      1.0000 0.72860  0.88410  0.91120  Biso   1.000  H
  Zn4      1.0000 0.69074  0.70746  0.80286  Biso   1.000  Zn
  C57      1.0000 0.37255  0.06080  0.36733  Biso   1.000  C
  C58      1.0000 0.39140  0.11352  0.35603  Biso   1.000  C
  H45      1.0000 0.39017  0.12603  0.29143  Biso   1.000  H
  C59      1.0000 0.41003  0.14312  0.43663  Biso   1.000  C
  H46      1.0000 0.41177  0.12853  0.49793  Biso   1.000  H
  C60      1.0000 0.42824  0.19502  0.44413  Biso   1.000  C
  C61      1.0000 0.42621  0.22398  0.36533  Biso   1.000  C
  C62      1.0000 0.44117  0.27270  0.38293  Biso   1.000  C
  H47      1.0000 0.43937  0.29153  0.32963  Biso   1.000  H
  C63      1.0000 0.45874  0.29310  0.48003  Biso   1.000  C
  H48      1.0000 0.46807  0.32543  0.49193  Biso   1.000  H
  C64      1.0000 0.46267  0.26613  0.55823  Biso   1.000  C
  H49      1.0000 0.47527  0.28003  0.62263  Biso   1.000  H
  C65      1.0000 0.44763  0.21782  0.54063  Biso   1.000  C
  H50      1.0000 0.45047  0.19973  0.59423  Biso   1.000  H
  C66      1.0000 0.42654  0.00418  0.14823  Biso   1.000  C
  H51      1.0000 0.41587  0.99803  0.21683  Biso   1.000  H
  C67      1.0000 0.46309  0.99541  0.11863  Biso   1.000  C
  H52      1.0000 0.47647  0.98373  0.16713  Biso   1.000  H
  C68      1.0000 0.47996  0.00394  0.01693  Biso   1.000  C
  C69      1.0000 0.45751  0.02094  0.94883  Biso   1.000  C
  H53      1.0000 0.46697  0.02683  0.87933  Biso   1.000  H
  C70      1.0000 0.42148  0.02899  0.98453  Biso   1.000  C
  H54      1.0000 0.40727  0.04053  0.93793  Biso   1.000  H
  N5       1.0000 0.40581  0.02099  0.08343  Biso   1.000  N
  O13      1.0000 0.36632  0.04342  0.45783  Biso   1.000  O
  O14      1.0000 0.36291  0.03411  0.28803  Biso   1.000  O
  O15      1.0000 0.40881  0.20404  0.27153  Biso   1.000  O
  H55      1.0000 0.39527  0.21743  0.24453  Biso   1.000  H
  Zn5      1.0000 0.35740  0.04080  0.13619  Biso   1.000  Zn
  C71      1.0000 0.03921  0.39414  0.70067  Biso   1.000  C
  C72      1.0000 0.05806  0.44686  0.68937  Biso   1.000  C
  H56      1.0000 0.05683  0.45937  0.62477  Biso   1.000  H
  C73      1.0000 0.07669  0.47646  0.76997  Biso   1.000  C
  H57      1.0000 0.07843  0.46187  0.83127  Biso   1.000  H
  C74      1.0000 0.09490  0.52836  0.77747  Biso   1.000  C
  C75      1.0000 0.09287  0.55732  0.69867  Biso   1.000  C
  C76      1.0000 0.10783  0.60604  0.71627  Biso   1.000  C
  H58      1.0000 0.10603  0.62487  0.66297  Biso   1.000  H
  C77      1.0000 0.12540  0.62644  0.81337  Biso   1.000  C
  H59      1.0000 0.13473  0.65877  0.82527  Biso   1.000  H
  C78      1.0000 0.12933  0.59947  0.89157  Biso   1.000  C
  H60      1.0000 0.14193  0.61337  0.95597  Biso   1.000  H
  C79      1.0000 0.11429  0.55116  0.87397  Biso   1.000  C
  H61      1.0000 0.11713  0.53307  0.92757  Biso   1.000  H
  C80      1.0000 0.09320  0.33752  0.48157  Biso   1.000  C
  H62      1.0000 0.08253  0.33137  0.55017  Biso   1.000  H
  C81      1.0000 0.12975  0.32875  0.45197  Biso   1.000  C
  H63      1.0000 0.14313  0.31707  0.50047  Biso   1.000  H
  C82      1.0000 0.14662  0.33728  0.35027  Biso   1.000  C
  C83      1.0000 0.12417  0.35428  0.28217  Biso   1.000  C
  H64      1.0000 0.13363  0.36017  0.21267  Biso   1.000  H
  C84      1.0000 0.08814  0.36233  0.31787  Biso   1.000  C
  H65      1.0000 0.07393  0.37387  0.27127  Biso   1.000  H
  N6       1.0000 0.07247  0.35433  0.41677  Biso   1.000  N
  O16      1.0000 0.03298  0.37676  0.79117  Biso   1.000  O
  O17      1.0000 0.02957  0.36745  0.62137  Biso   1.000  O
  O18      1.0000 0.07547  0.53738  0.60487  Biso   1.000  O
  H66      1.0000 0.06193  0.55077  0.57787  Biso   1.000  H
  Zn6      1.0000 0.02407  0.37413  0.46953  Biso   1.000  Zn
  C85      1.0000 0.27253  0.97841  0.03400  Biso   1.000  C
  C86      1.0000 0.21981  0.94454  0.02270  Biso   1.000  C
  H67      1.0000 0.20730  0.93080  0.95810  Biso   1.000  H
  C87      1.0000 0.19021  0.93357  0.10330  Biso   1.000  C
  H68      1.0000 0.20480  0.94990  0.16460  Biso   1.000  H
  C88      1.0000 0.13831  0.89988  0.11080  Biso   1.000  C
  C89      1.0000 0.10935  0.86889  0.03200  Biso   1.000  C
  C90      1.0000 0.06063  0.83513  0.04960  Biso   1.000  C
  H69      1.0000 0.04180  0.81450  0.99630  Biso   1.000  H
  C91      1.0000 0.04023  0.83230  0.14670  Biso   1.000  C
  H70      1.0000 0.00790  0.80930  0.15860  Biso   1.000  H
  C92      1.0000 0.06720  0.86320  0.22490  Biso   1.000  C
  H71      1.0000 0.05330  0.86190  0.28930  Biso   1.000  H
  C93      1.0000 0.11551  0.89647  0.20730  Biso   1.000  C
  H72      1.0000 0.13360  0.91740  0.26090  Biso   1.000  H
  C94      1.0000 0.32915  0.08902  0.81490  Biso   1.000  C
  H73      1.0000 0.33530  0.08450  0.88350  Biso   1.000  H
  C95      1.0000 0.33792  0.13434  0.78530  Biso   1.000  C
  H74      1.0000 0.34960  0.15940  0.83380  Biso   1.000  H
  C96      1.0000 0.32939  0.14268  0.68360  Biso   1.000  C
  C97      1.0000 0.31239  0.10323  0.61550  Biso   1.000  C
  H75      1.0000 0.30650  0.10680  0.54600  Biso   1.000  H
  C98      1.0000 0.30434  0.05915  0.65120  Biso   1.000  C
  H76      1.0000 0.29280  0.03340  0.60460  Biso   1.000  H
  N7       1.0000 0.31234  0.05148  0.75010  Biso   1.000  N
  O19      1.0000 0.28991  0.98956  0.12450  Biso   1.000  O
  O20      1.0000 0.29922  0.99546  0.95470  Biso   1.000  O
  O21      1.0000 0.12929  0.87143  0.93820  Biso   1.000  O
  H77      1.0000 0.11590  0.84450  0.91120  Biso   1.000  H
  Zn7      1.0000 0.29254  0.98327  0.80286  Biso   1.000  Zn
  C99      1.0000 0.93920  0.31174  0.36733  Biso   1.000  C
  C100     1.0000 0.88648  0.27787  0.35603  Biso   1.000  C
  H78      1.0000 0.87397  0.26413  0.29143  Biso   1.000  H
  C101     1.0000 0.85688  0.26690  0.43663  Biso   1.000  C
  H79      1.0000 0.87147  0.28323  0.49793  Biso   1.000  H
  C102     1.0000 0.80498  0.23321  0.44413  Biso   1.000  C
  C103     1.0000 0.77602  0.20222  0.36533  Biso   1.000  C
  C104     1.0000 0.72730  0.16846  0.38293  Biso   1.000  C
  H80      1.0000 0.70847  0.14783  0.32963  Biso   1.000  H
  C105     1.0000 0.70690  0.16563  0.48003  Biso   1.000  C
  H81      1.0000 0.67457  0.14263  0.49193  Biso   1.000  H
  C106     1.0000 0.73387  0.19653  0.55823  Biso   1.000  C
  H82      1.0000 0.71997  0.19523  0.62263  Biso   1.000  H
  C107     1.0000 0.78218  0.22980  0.54063  Biso   1.000  C
  H83      1.0000 0.80027  0.25073  0.59423  Biso   1.000  H
  C108     1.0000 0.99582  0.42235  0.14823  Biso   1.000  C
  H84      1.0000 0.00197  0.41783  0.21683  Biso   1.000  H
  C109     1.0000 0.00459  0.46767  0.11863  Biso   1.000  C
  H85      1.0000 0.01627  0.49273  0.16713  Biso   1.000  H
  C110     1.0000 0.99606  0.47601  0.01693  Biso   1.000  C
  C111     1.0000 0.97906  0.43656  0.94883  Biso   1.000  C
  H86      1.0000 0.97317  0.44013  0.87933  Biso   1.000  H
  C112     1.0000 0.97101  0.39248  0.98453  Biso   1.000  C
  H87      1.0000 0.95947  0.36673  0.93793  Biso   1.000  H
  N8       1.0000 0.97901  0.38481  0.08343  Biso   1.000  N
  O22      1.0000 0.95658  0.32289  0.45783  Biso   1.000  O
  O23      1.0000 0.96589  0.32879  0.28803  Biso   1.000  O
  O24      1.0000 0.79596  0.20476  0.27153  Biso   1.000  O
  H88      1.0000 0.78257  0.17783  0.24453  Biso   1.000  H
  Zn8      1.0000 0.95920  0.31661  0.13619  Biso   1.000  Zn
  C113     1.0000 0.60586  0.64508  0.70067  Biso   1.000  C
  C114     1.0000 0.55314  0.61121  0.68937  Biso   1.000  C
  H89      1.0000 0.54063  0.59747  0.62477  Biso   1.000  H
  C115     1.0000 0.52354  0.60024  0.76997  Biso   1.000  C
  H90      1.0000 0.53813  0.61657  0.83127  Biso   1.000  H
  C116     1.0000 0.47164  0.56655  0.77747  Biso   1.000  C
  C117     1.0000 0.44268  0.53556  0.69867  Biso   1.000  C
  C118     1.0000 0.39396  0.50180  0.71627  Biso   1.000  C
  H91      1.0000 0.37513  0.48117  0.66297  Biso   1.000  H
  C119     1.0000 0.37356  0.49897  0.81337  Biso   1.000  C
  H92      1.0000 0.34123  0.47597  0.82527  Biso   1.000  H
  C120     1.0000 0.40053  0.52987  0.89157  Biso   1.000  C
  H93      1.0000 0.38663  0.52857  0.95597  Biso   1.000  H
  C121     1.0000 0.44884  0.56314  0.87397  Biso   1.000  C
  H94      1.0000 0.46693  0.58407  0.92757  Biso   1.000  H
  C122     1.0000 0.66248  0.75569  0.48157  Biso   1.000  C
  H95      1.0000 0.66863  0.75117  0.55017  Biso   1.000  H
  C123     1.0000 0.67125  0.80101  0.45197  Biso   1.000  C
  H96      1.0000 0.68293  0.82607  0.50047  Biso   1.000  H
  C124     1.0000 0.66272  0.80935  0.35027  Biso   1.000  C
  C125     1.0000 0.64572  0.76990  0.28217  Biso   1.000  C
  H97      1.0000 0.63983  0.77347  0.21267  Biso   1.000  H
  C126     1.0000 0.63767  0.72582  0.31787  Biso   1.000  C
  H98      1.0000 0.62613  0.70007  0.27127  Biso   1.000  H
  N9       1.0000 0.64567  0.71815  0.41677  Biso   1.000  N
  O25      1.0000 0.62324  0.65623  0.79117  Biso   1.000  O
  O26      1.0000 0.63255  0.66213  0.62137  Biso   1.000  O
  O27      1.0000 0.46262  0.53810  0.60487  Biso   1.000  O
  H99      1.0000 0.44923  0.51117  0.57787  Biso   1.000  H
  Zn9      1.0000 0.62587  0.64994  0.46953  Biso   1.000  Zn
  C127     1.0000 0.97841  0.70588  0.96600  Biso   1.000  C
  C128     1.0000 0.94454  0.72473  0.97730  Biso   1.000  C
  H100     1.0000 0.93080  0.72350  0.04190  Biso   1.000  H
  C129     1.0000 0.93357  0.74336  0.89670  Biso   1.000  C
  H101     1.0000 0.94990  0.74510  0.83540  Biso   1.000  H
  C130     1.0000 0.89988  0.76157  0.88920  Biso   1.000  C
  C131     1.0000 0.86889  0.75954  0.96800  Biso   1.000  C
  C132     1.0000 0.83513  0.77450  0.95040  Biso   1.000  C
  H102     1.0000 0.81450  0.77270  0.00370  Biso   1.000  H
  C133     1.0000 0.83230  0.79207  0.85330  Biso   1.000  C
  H103     1.0000 0.80930  0.80140  0.84140  Biso   1.000  H
  C134     1.0000 0.86320  0.79600  0.77510  Biso   1.000  C
  H104     1.0000 0.86190  0.80860  0.71070  Biso   1.000  H
  C135     1.0000 0.89647  0.78096  0.79270  Biso   1.000  C
  H105     1.0000 0.91740  0.78380  0.73910  Biso   1.000  H
  C136     1.0000 0.08902  0.75987  0.18510  Biso   1.000  C
  H106     1.0000 0.08450  0.74920  0.11650  Biso   1.000  H
  C137     1.0000 0.13434  0.79642  0.21470  Biso   1.000  C
  H107     1.0000 0.15940  0.80980  0.16620  Biso   1.000  H
  C138     1.0000 0.14268  0.81329  0.31640  Biso   1.000  C
  C139     1.0000 0.10323  0.79084  0.38450  Biso   1.000  C
  H108     1.0000 0.10680  0.80030  0.45400  Biso   1.000  H
  C140     1.0000 0.05915  0.75481  0.34880  Biso   1.000  C
  H109     1.0000 0.03340  0.74060  0.39540  Biso   1.000  H
  N10      1.0000 0.05148  0.73914  0.24990  Biso   1.000  N
  O28      1.0000 0.98956  0.69965  0.87550  Biso   1.000  O
  O29      1.0000 0.99546  0.69624  0.04530  Biso   1.000  O
  O30      1.0000 0.87143  0.74214  0.06180  Biso   1.000  O
  H110     1.0000 0.84450  0.72860  0.08880  Biso   1.000  H
  Zn10     1.0000 0.98327  0.69074  0.19714  Biso   1.000  Zn
  C141     1.0000 0.64508  0.03921  0.29933  Biso   1.000  C
  C142     1.0000 0.61121  0.05806  0.31063  Biso   1.000  C
  H111     1.0000 0.59747  0.05683  0.37523  Biso   1.000  H
  C143     1.0000 0.60024  0.07669  0.23003  Biso   1.000  C
  H112     1.0000 0.61657  0.07843  0.16873  Biso   1.000  H
  C144     1.0000 0.56655  0.09490  0.22253  Biso   1.000  C
  C145     1.0000 0.53556  0.09287  0.30133  Biso   1.000  C
  C146     1.0000 0.50180  0.10783  0.28373  Biso   1.000  C
  H113     1.0000 0.48117  0.10603  0.33703  Biso   1.000  H
  C147     1.0000 0.49897  0.12540  0.18663  Biso   1.000  C
  H114     1.0000 0.47597  0.13473  0.17473  Biso   1.000  H
  C148     1.0000 0.52987  0.12933  0.10843  Biso   1.000  C
  H115     1.0000 0.52857  0.14193  0.04403  Biso   1.000  H
  C149     1.0000 0.56314  0.11429  0.12603  Biso   1.000  C
  H116     1.0000 0.58407  0.11713  0.07243  Biso   1.000  H
  C150     1.0000 0.75569  0.09320  0.51843  Biso   1.000  C
  H117     1.0000 0.75117  0.08253  0.44983  Biso   1.000  H
  C151     1.0000 0.80101  0.12975  0.54803  Biso   1.000  C
  H118     1.0000 0.82607  0.14313  0.49953  Biso   1.000  H
  C152     1.0000 0.80935  0.14662  0.64973  Biso   1.000  C
  C153     1.0000 0.76990  0.12417  0.71783  Biso   1.000  C
  H119     1.0000 0.77347  0.13363  0.78733  Biso   1.000  H
  C154     1.0000 0.72582  0.08814  0.68213  Biso   1.000  C
  H120     1.0000 0.70007  0.07393  0.72873  Biso   1.000  H
  N11      1.0000 0.71815  0.07247  0.58323  Biso   1.000  N
  O31      1.0000 0.65623  0.03298  0.20883  Biso   1.000  O
  O32      1.0000 0.66213  0.02957  0.37863  Biso   1.000  O
  O33      1.0000 0.53810  0.07547  0.39513  Biso   1.000  O
  H121     1.0000 0.51117  0.06193  0.42213  Biso   1.000  H
  Zn11     1.0000 0.64994  0.02407  0.53047  Biso   1.000  Zn
  C155     1.0000 0.31174  0.37255  0.63267  Biso   1.000  C
  C156     1.0000 0.27787  0.39140  0.64397  Biso   1.000  C
  H122     1.0000 0.26413  0.39017  0.70857  Biso   1.000  H
  C157     1.0000 0.26690  0.41003  0.56337  Biso   1.000  C
  H123     1.0000 0.28323  0.41177  0.50207  Biso   1.000  H
  C158     1.0000 0.23321  0.42824  0.55587  Biso   1.000  C
  C159     1.0000 0.20222  0.42621  0.63467  Biso   1.000  C
  C160     1.0000 0.16846  0.44117  0.61707  Biso   1.000  C
  H124     1.0000 0.14783  0.43937  0.67037  Biso   1.000  H
  C161     1.0000 0.16563  0.45874  0.51997  Biso   1.000  C
  H125     1.0000 0.14263  0.46807  0.50807  Biso   1.000  H
  C162     1.0000 0.19653  0.46267  0.44177  Biso   1.000  C
  H126     1.0000 0.19523  0.47527  0.37737  Biso   1.000  H
  C163     1.0000 0.22980  0.44763  0.45937  Biso   1.000  C
  H127     1.0000 0.25073  0.45047  0.40577  Biso   1.000  H
  C164     1.0000 0.42235  0.42654  0.85177  Biso   1.000  C
  H128     1.0000 0.41783  0.41587  0.78317  Biso   1.000  H
  C165     1.0000 0.46767  0.46309  0.88137  Biso   1.000  C
  H129     1.0000 0.49273  0.47647  0.83287  Biso   1.000  H
  C166     1.0000 0.47601  0.47996  0.98307  Biso   1.000  C
  C167     1.0000 0.43656  0.45751  0.05117  Biso   1.000  C
  H130     1.0000 0.44013  0.46697  0.12067  Biso   1.000  H
  C168     1.0000 0.39248  0.42148  0.01547  Biso   1.000  C
  H131     1.0000 0.36673  0.40727  0.06207  Biso   1.000  H
  N12      1.0000 0.38481  0.40581  0.91657  Biso   1.000  N
  O34      1.0000 0.32289  0.36632  0.54217  Biso   1.000  O
  O35      1.0000 0.32879  0.36291  0.71197  Biso   1.000  O
  O36      1.0000 0.20476  0.40881  0.72847  Biso   1.000  O
  H132     1.0000 0.17783  0.39527  0.75547  Biso   1.000  H
  Zn12     1.0000 0.31661  0.35740  0.86381  Biso   1.000  Zn
  C169     1.0000 0.29412  0.27253  0.96600  Biso   1.000  C
  C170     1.0000 0.27527  0.21981  0.97730  Biso   1.000  C
  H133     1.0000 0.27650  0.20730  0.04190  Biso   1.000  H
  C171     1.0000 0.25664  0.19021  0.89670  Biso   1.000  C
  H134     1.0000 0.25490  0.20480  0.83540  Biso   1.000  H
  C172     1.0000 0.23843  0.13831  0.88920  Biso   1.000  C
  C173     1.0000 0.24046  0.10935  0.96800  Biso   1.000  C
  C174     1.0000 0.22550  0.06063  0.95040  Biso   1.000  C
  H135     1.0000 0.22730  0.04180  0.00370  Biso   1.000  H
  C175     1.0000 0.20793  0.04023  0.85330  Biso   1.000  C
  H136     1.0000 0.19860  0.00790  0.84140  Biso   1.000  H
  C176     1.0000 0.20400  0.06720  0.77510  Biso   1.000  C
  H137     1.0000 0.19140  0.05330  0.71070  Biso   1.000  H
  C177     1.0000 0.21904  0.11551  0.79270  Biso   1.000  C
  H138     1.0000 0.21620  0.13360  0.73910  Biso   1.000  H
  C178     1.0000 0.24013  0.32915  0.18510  Biso   1.000  C
  H139     1.0000 0.25080  0.33530  0.11650  Biso   1.000  H
  C179     1.0000 0.20358  0.33792  0.21470  Biso   1.000  C
  H140     1.0000 0.19020  0.34960  0.16620  Biso   1.000  H
  C180     1.0000 0.18671  0.32939  0.31640  Biso   1.000  C
  C181     1.0000 0.20916  0.31239  0.38450  Biso   1.000  C
  H141     1.0000 0.19970  0.30650  0.45400  Biso   1.000  H
  C182     1.0000 0.24519  0.30434  0.34880  Biso   1.000  C
  H142     1.0000 0.25940  0.29280  0.39540  Biso   1.000  H
  N13      1.0000 0.26086  0.31234  0.24990  Biso   1.000  N
  O37      1.0000 0.30035  0.28991  0.87550  Biso   1.000  O
  O38      1.0000 0.30376  0.29922  0.04530  Biso   1.000  O
  O39      1.0000 0.25786  0.12929  0.06180  Biso   1.000  O
  H143     1.0000 0.27140  0.11590  0.08880  Biso   1.000  H
  Zn13     1.0000 0.30926  0.29254  0.19714  Biso   1.000  Zn
  C183     1.0000 0.96079  0.60586  0.29933  Biso   1.000  C
  C184     1.0000 0.94194  0.55314  0.31063  Biso   1.000  C
  H144     1.0000 0.94317  0.54063  0.37523  Biso   1.000  H
  C185     1.0000 0.92331  0.52354  0.23003  Biso   1.000  C
  H145     1.0000 0.92157  0.53813  0.16873  Biso   1.000  H
  C186     1.0000 0.90510  0.47164  0.22253  Biso   1.000  C
  C187     1.0000 0.90713  0.44268  0.30133  Biso   1.000  C
  C188     1.0000 0.89217  0.39396  0.28373  Biso   1.000  C
  H146     1.0000 0.89397  0.37513  0.33703  Biso   1.000  H
  C189     1.0000 0.87460  0.37356  0.18663  Biso   1.000  C
  H147     1.0000 0.86527  0.34123  0.17473  Biso   1.000  H
  C190     1.0000 0.87067  0.40053  0.10843  Biso   1.000  C
  H148     1.0000 0.85807  0.38663  0.04403  Biso   1.000  H
  C191     1.0000 0.88571  0.44884  0.12603  Biso   1.000  C
  H149     1.0000 0.88287  0.46693  0.07243  Biso   1.000  H
  C192     1.0000 0.90680  0.66248  0.51843  Biso   1.000  C
  H150     1.0000 0.91747  0.66863  0.44983  Biso   1.000  H
  C193     1.0000 0.87025  0.67125  0.54803  Biso   1.000  C
  H151     1.0000 0.85687  0.68293  0.49953  Biso   1.000  H
  C194     1.0000 0.85338  0.66272  0.64973  Biso   1.000  C
  C195     1.0000 0.87583  0.64572  0.71783  Biso   1.000  C
  H152     1.0000 0.86637  0.63983  0.78733  Biso   1.000  H
  C196     1.0000 0.91186  0.63767  0.68213  Biso   1.000  C
  H153     1.0000 0.92607  0.62613  0.72873  Biso   1.000  H
  N14      1.0000 0.92753  0.64567  0.58323  Biso   1.000  N
  O40      1.0000 0.96702  0.62324  0.20883  Biso   1.000  O
  O41      1.0000 0.97043  0.63255  0.37863  Biso   1.000  O
  O42      1.0000 0.92453  0.46262  0.39513  Biso   1.000  O
  H154     1.0000 0.93807  0.44923  0.42213  Biso   1.000  H
  Zn14     1.0000 0.97593  0.62587  0.53047  Biso   1.000  Zn
  C197     1.0000 0.62745  0.93920  0.63267  Biso   1.000  C
  C198     1.0000 0.60860  0.88648  0.64397  Biso   1.000  C
  H155     1.0000 0.60983  0.87397  0.70857  Biso   1.000  H
  C199     1.0000 0.58997  0.85688  0.56337  Biso   1.000  C
  H156     1.0000 0.58823  0.87147  0.50207  Biso   1.000  H
  C200     1.0000 0.57176  0.80498  0.55587  Biso   1.000  C
  C201     1.0000 0.57379  0.77602  0.63467  Biso   1.000  C
  C202     1.0000 0.55883  0.72730  0.61707  Biso   1.000  C
  H157     1.0000 0.56063  0.70847  0.67037  Biso   1.000  H
  C203     1.0000 0.54126  0.70690  0.51997  Biso   1.000  C
  H158     1.0000 0.53193  0.67457  0.50807  Biso   1.000  H
  C204     1.0000 0.53733  0.73387  0.44177  Biso   1.000  C
  H159     1.0000 0.52473  0.71997  0.37737  Biso   1.000  H
  C205     1.0000 0.55237  0.78218  0.45937  Biso   1.000  C
  H160     1.0000 0.54953  0.80027  0.40577  Biso   1.000  H
  C206     1.0000 0.57346  0.99582  0.85177  Biso   1.000  C
  H161     1.0000 0.58413  0.00197  0.78317  Biso   1.000  H
  C207     1.0000 0.53691  0.00459  0.88137  Biso   1.000  C
  H162     1.0000 0.52353  0.01627  0.83287  Biso   1.000  H
  C208     1.0000 0.52004  0.99606  0.98307  Biso   1.000  C
  C209     1.0000 0.54249  0.97906  0.05117  Biso   1.000  C
  H163     1.0000 0.53303  0.97317  0.12067  Biso   1.000  H
  C210     1.0000 0.57852  0.97101  0.01547  Biso   1.000  C
  H164     1.0000 0.59273  0.95947  0.06207  Biso   1.000  H
  N15      1.0000 0.59419  0.97901  0.91657  Biso   1.000  N
  O43      1.0000 0.63368  0.95658  0.54217  Biso   1.000  O
  O44      1.0000 0.63709  0.96589  0.71197  Biso   1.000  O
  O45      1.0000 0.59119  0.79596  0.72847  Biso   1.000  O
  H165     1.0000 0.60473  0.78257  0.75547  Biso   1.000  H
  Zn15     1.0000 0.64260  0.95920  0.86381  Biso   1.000  Zn
  C211     1.0000 0.72747  0.02159  0.96600  Biso   1.000  C
  C212     1.0000 0.78019  0.05546  0.97730  Biso   1.000  C
  H166     1.0000 0.79270  0.06920  0.04190  Biso   1.000  H
  C213     1.0000 0.80979  0.06643  0.89670  Biso   1.000  C
  H167     1.0000 0.79520  0.05010  0.83540  Biso   1.000  H
  C214     1.0000 0.86169  0.10012  0.88920  Biso   1.000  C
  C215     1.0000 0.89065  0.13111  0.96800  Biso   1.000  C
  C216     1.0000 0.93937  0.16487  0.95040  Biso   1.000  C
  H168     1.0000 0.95820  0.18550  0.00370  Biso   1.000  H
  C217     1.0000 0.95977  0.16770  0.85330  Biso   1.000  C
  H169     1.0000 0.99210  0.19070  0.84140  Biso   1.000  H
  C218     1.0000 0.93280  0.13680  0.77510  Biso   1.000  C
  H170     1.0000 0.94670  0.13810  0.71070  Biso   1.000  H
  C219     1.0000 0.88449  0.10353  0.79270  Biso   1.000  C
  H171     1.0000 0.86640  0.08260  0.73910  Biso   1.000  H
  C220     1.0000 0.67085  0.91098  0.18510  Biso   1.000  C
  H172     1.0000 0.66470  0.91550  0.11650  Biso   1.000  H
  C221     1.0000 0.66208  0.86566  0.21470  Biso   1.000  C
  H173     1.0000 0.65040  0.84060  0.16620  Biso   1.000  H
  C222     1.0000 0.67061  0.85732  0.31640  Biso   1.000  C
  C223     1.0000 0.68761  0.89677  0.38450  Biso   1.000  C
  H174     1.0000 0.69350  0.89320  0.45400  Biso   1.000  H
  C224     1.0000 0.69566  0.94085  0.34880  Biso   1.000  C
  H175     1.0000 0.70720  0.96660  0.39540  Biso   1.000  H
  N16      1.0000 0.68766  0.94852  0.24990  Biso   1.000  N
  O46      1.0000 0.71009  0.01044  0.87550  Biso   1.000  O
  O47      1.0000 0.70078  0.00454  0.04530  Biso   1.000  O
  O48      1.0000 0.87071  0.12857  0.06180  Biso   1.000  O
  H176     1.0000 0.88410  0.15550  0.08880  Biso   1.000  H
  Zn16     1.0000 0.70746  0.01673  0.19714  Biso   1.000  Zn
  C225     1.0000 0.39414  0.35492  0.29933  Biso   1.000  C
  C226     1.0000 0.44686  0.38879  0.31063  Biso   1.000  C
  H177     1.0000 0.45937  0.40253  0.37523  Biso   1.000  H
  C227     1.0000 0.47646  0.39976  0.23003  Biso   1.000  C
  H178     1.0000 0.46187  0.38343  0.16873  Biso   1.000  H
  C228     1.0000 0.52836  0.43345  0.22253  Biso   1.000  C
  C229     1.0000 0.55732  0.46444  0.30133  Biso   1.000  C
  C230     1.0000 0.60604  0.49820  0.28373  Biso   1.000  C
  H179     1.0000 0.62487  0.51883  0.33703  Biso   1.000  H
  C231     1.0000 0.62644  0.50103  0.18663  Biso   1.000  C
  H180     1.0000 0.65877  0.52403  0.17473  Biso   1.000  H
  C232     1.0000 0.59947  0.47013  0.10843  Biso   1.000  C
  H181     1.0000 0.61337  0.47143  0.04403  Biso   1.000  H
  C233     1.0000 0.55116  0.43686  0.12603  Biso   1.000  C
  H182     1.0000 0.53307  0.41593  0.07243  Biso   1.000  H
  C234     1.0000 0.33752  0.24431  0.51843  Biso   1.000  C
  H183     1.0000 0.33137  0.24883  0.44983  Biso   1.000  H
  C235     1.0000 0.32875  0.19899  0.54803  Biso   1.000  C
  H184     1.0000 0.31707  0.17393  0.49953  Biso   1.000  H
  C236     1.0000 0.33728  0.19065  0.64973  Biso   1.000  C
  C237     1.0000 0.35428  0.23010  0.71783  Biso   1.000  C
  H185     1.0000 0.36017  0.22653  0.78733  Biso   1.000  H
  C238     1.0000 0.36233  0.27418  0.68213  Biso   1.000  C
  H186     1.0000 0.37387  0.29993  0.72873  Biso   1.000  H
  N17      1.0000 0.35433  0.28185  0.58323  Biso   1.000  N
  O49      1.0000 0.37676  0.34377  0.20883  Biso   1.000  O
  O50      1.0000 0.36745  0.33787  0.37863  Biso   1.000  O
  O51      1.0000 0.53738  0.46190  0.39513  Biso   1.000  O
  H187     1.0000 0.55077  0.48883  0.42213  Biso   1.000  H
  Zn17     1.0000 0.37413  0.35006  0.53047  Biso   1.000  Zn
  C239     1.0000 0.06080  0.68826  0.63267  Biso   1.000  C
  C240     1.0000 0.11352  0.72213  0.64397  Biso   1.000  C
  H188     1.0000 0.12603  0.73587  0.70857  Biso   1.000  H
  C241     1.0000 0.14312  0.73310  0.56337  Biso   1.000  C
  H189     1.0000 0.12853  0.71677  0.50207  Biso   1.000  H
  C242     1.0000 0.19502  0.76679  0.55587  Biso   1.000  C
  C243     1.0000 0.22398  0.79778  0.63467  Biso   1.000  C
  C244     1.0000 0.27270  0.83154  0.61707  Biso   1.000  C
  H190     1.0000 0.29153  0.85217  0.67037  Biso   1.000  H
  C245     1.0000 0.29310  0.83437  0.51997  Biso   1.000  C
  H191     1.0000 0.32543  0.85737  0.50807  Biso   1.000  H
  C246     1.0000 0.26613  0.80347  0.44177  Biso   1.000  C
  H192     1.0000 0.28003  0.80477  0.37737  Biso   1.000  H
  C247     1.0000 0.21782  0.77020  0.45937  Biso   1.000  C
  H193     1.0000 0.19973  0.74927  0.40577  Biso   1.000  H
  C248     1.0000 0.00418  0.57765  0.85177  Biso   1.000  C
  H194     1.0000 0.99803  0.58217  0.78317  Biso   1.000  H
  C249     1.0000 0.99541  0.53233  0.88137  Biso   1.000  C
  H195     1.0000 0.98373  0.50727  0.83287  Biso   1.000  H
  C250     1.0000 0.00394  0.52399  0.98307  Biso   1.000  C
  C251     1.0000 0.02094  0.56344  0.05117  Biso   1.000  C
  H196     1.0000 0.02683  0.55987  0.12067  Biso   1.000  H
  C252     1.0000 0.02899  0.60752  0.01547  Biso   1.000  C
  H197     1.0000 0.04053  0.63327  0.06207  Biso   1.000  H
  N18      1.0000 0.02099  0.61519  0.91657  Biso   1.000  N
  O52      1.0000 0.04342  0.67711  0.54217  Biso   1.000  O
  O53      1.0000 0.03411  0.67121  0.71197  Biso   1.000  O
  O54      1.0000 0.20404  0.79524  0.72847  Biso   1.000  O
  H198     1.0000 0.21743  0.82217  0.75547  Biso   1.000  H
  Zn18     1.0000 0.04080  0.68339  0.86381  Biso   1.000  Zn
