data_image0
_cell_length_a       12.9879
_cell_length_b       12.9879
_cell_length_c       25.025
_cell_angle_alpha    90
_cell_angle_beta     90
_cell_angle_gamma    90

_symmetry_space_group_name_H-M    "P 1"
_symmetry_int_tables_number       1

loop_
  _symmetry_equiv_pos_as_xyz
  'x, y, z'

loop_
  _atom_site_label
  _atom_site_occupancy
  _atom_site_fract_x
  _atom_site_fract_y
  _atom_site_fract_z
  _atom_site_thermal_displace_type
  _atom_site_B_iso_or_equiv
  _atom_site_type_symbol
  C1       1.0000 0.40620  0.06910  0.70602  Biso   1.000  C
  C2       1.0000 0.37580  0.17020  0.71540  Biso   1.000  C
  H1       1.0000 0.40580  0.20670  0.74340  Biso   1.000  H
  C3       1.0000 0.30110  0.21790  0.68380  Biso   1.000  C
  H2       1.0000 0.27960  0.28450  0.69160  Biso   1.000  H
  C4       1.0000 0.25930  0.16580  0.64080  Biso   1.000  C
  H3       1.0000 0.21000  0.19790  0.61960  Biso   1.000  H
  C5       1.0000 0.29000  0.06710  0.62920  Biso   1.000  C
  C6       1.0000 0.36360  0.01980  0.66105  Biso   1.000  C
  H4       1.0000 0.38540  0.95360  0.65250  Biso   1.000  H
  C7       1.0000 0.24510  0.01020  0.58165  Biso   1.000  C
  O1       1.0000 0.28480  0.92550  0.56846  Biso   1.000  O
  O2       1.0000 0.16720  0.04610  0.55801  Biso   1.000  O
  C8       1.0000 0.90620  0.56910  0.20602  Biso   1.000  C
  C9       1.0000 0.87580  0.67020  0.21540  Biso   1.000  C
  H5       1.0000 0.90580  0.70670  0.24340  Biso   1.000  H
  C10      1.0000 0.80110  0.71790  0.18380  Biso   1.000  C
  H6       1.0000 0.77960  0.78450  0.19160  Biso   1.000  H
  C11      1.0000 0.75930  0.66580  0.14080  Biso   1.000  C
  H7       1.0000 0.71000  0.69790  0.11960  Biso   1.000  H
  C12      1.0000 0.79000  0.56710  0.12920  Biso   1.000  C
  C13      1.0000 0.86360  0.51980  0.16105  Biso   1.000  C
  H8       1.0000 0.88540  0.45360  0.15250  Biso   1.000  H
  C14      1.0000 0.74510  0.51020  0.08165  Biso   1.000  C
  O3       1.0000 0.78480  0.42550  0.06846  Biso   1.000  O
  O4       1.0000 0.66720  0.54610  0.05801  Biso   1.000  O
  C15      1.0000 0.59380  0.93090  0.70602  Biso   1.000  C
  C16      1.0000 0.62420  0.82980  0.71540  Biso   1.000  C
  H9       1.0000 0.59420  0.79330  0.74340  Biso   1.000  H
  C17      1.0000 0.69890  0.78210  0.68380  Biso   1.000  C
  H10      1.0000 0.72040  0.71550  0.69160  Biso   1.000  H
  C18      1.0000 0.74070  0.83420  0.64080  Biso   1.000  C
  H11      1.0000 0.79000  0.80210  0.61960  Biso   1.000  H
  C19      1.0000 0.71000  0.93290  0.62920  Biso   1.000  C
  C20      1.0000 0.63640  0.98020  0.66105  Biso   1.000  C
  H12      1.0000 0.61460  0.04640  0.65250  Biso   1.000  H
  C21      1.0000 0.75490  0.98980  0.58165  Biso   1.000  C
  O5       1.0000 0.71520  0.07450  0.56846  Biso   1.000  O
  O6       1.0000 0.83280  0.95390  0.55801  Biso   1.000  O
  C22      1.0000 0.09380  0.43090  0.20602  Biso   1.000  C
  C23      1.0000 0.12420  0.32980  0.21540  Biso   1.000  C
  H13      1.0000 0.09420  0.29330  0.24340  Biso   1.000  H
  C24      1.0000 0.19890  0.28210  0.18380  Biso   1.000  C
  H14      1.0000 0.22040  0.21550  0.19160  Biso   1.000  H
  C25      1.0000 0.24070  0.33420  0.14080  Biso   1.000  C
  H15      1.0000 0.29000  0.30210  0.11960  Biso   1.000  H
  C26      1.0000 0.21000  0.43290  0.12920  Biso   1.000  C
  C27      1.0000 0.13640  0.48020  0.16105  Biso   1.000  C
  H16      1.0000 0.11460  0.54640  0.15250  Biso   1.000  H
  C28      1.0000 0.25490  0.48980  0.08165  Biso   1.000  C
  O7       1.0000 0.21520  0.57450  0.06846  Biso   1.000  O
  O8       1.0000 0.33280  0.45390  0.05801  Biso   1.000  O
  C29      1.0000 0.93090  0.40620  0.70602  Biso   1.000  C
  C30      1.0000 0.82980  0.37580  0.71540  Biso   1.000  C
  H17      1.0000 0.79330  0.40580  0.74340  Biso   1.000  H
  C31      1.0000 0.78210  0.30110  0.68380  Biso   1.000  C
  H18      1.0000 0.71550  0.27960  0.69160  Biso   1.000  H
  C32      1.0000 0.83420  0.25930  0.64080  Biso   1.000  C
  H19      1.0000 0.80210  0.21000  0.61960  Biso   1.000  H
  C33      1.0000 0.93290  0.29000  0.62920  Biso   1.000  C
  C34      1.0000 0.98020  0.36360  0.66105  Biso   1.000  C
  H20      1.0000 0.04640  0.38540  0.65250  Biso   1.000  H
  C35      1.0000 0.98980  0.24510  0.58165  Biso   1.000  C
  O9       1.0000 0.07450  0.28480  0.56846  Biso   1.000  O
  O10      1.0000 0.95390  0.16720  0.55801  Biso   1.000  O
  C36      1.0000 0.43090  0.90620  0.20602  Biso   1.000  C
  C37      1.0000 0.32980  0.87580  0.21540  Biso   1.000  C
  H21      1.0000 0.29330  0.90580  0.24340  Biso   1.000  H
  C38      1.0000 0.28210  0.80110  0.18380  Biso   1.000  C
  H22      1.0000 0.21550  0.77960  0.19160  Biso   1.000  H
  C39      1.0000 0.33420  0.75930  0.14080  Biso   1.000  C
  H23      1.0000 0.30210  0.71000  0.11960  Biso   1.000  H
  C40      1.0000 0.43290  0.79000  0.12920  Biso   1.000  C
  C41      1.0000 0.48020  0.86360  0.16105  Biso   1.000  C
  H24      1.0000 0.54640  0.88540  0.15250  Biso   1.000  H
  C42      1.0000 0.48980  0.74510  0.08165  Biso   1.000  C
  O11      1.0000 0.57450  0.78480  0.06846  Biso   1.000  O
  O12      1.0000 0.45390  0.66720  0.05801  Biso   1.000  O
  C43      1.0000 0.06910  0.59380  0.70602  Biso   1.000  C
  C44      1.0000 0.17020  0.62420  0.71540  Biso   1.000  C
  H25      1.0000 0.20670  0.59420  0.74340  Biso   1.000  H
  C45      1.0000 0.21790  0.69890  0.68380  Biso   1.000  C
  H26      1.0000 0.28450  0.72040  0.69160  Biso   1.000  H
  C46      1.0000 0.16580  0.74070  0.64080  Biso   1.000  C
  H27      1.0000 0.19790  0.79000  0.61960  Biso   1.000  H
  C47      1.0000 0.06710  0.71000  0.62920  Biso   1.000  C
  C48      1.0000 0.01980  0.63640  0.66105  Biso   1.000  C
  H28      1.0000 0.95360  0.61460  0.65250  Biso   1.000  H
  C49      1.0000 0.01020  0.75490  0.58165  Biso   1.000  C
  O13      1.0000 0.92550  0.71520  0.56846  Biso   1.000  O
  O14      1.0000 0.04610  0.83280  0.55801  Biso   1.000  O
  C50      1.0000 0.56910  0.09380  0.20602  Biso   1.000  C
  C51      1.0000 0.67020  0.12420  0.21540  Biso   1.000  C
  H29      1.0000 0.70670  0.09420  0.24340  Biso   1.000  H
  C52      1.0000 0.71790  0.19890  0.18380  Biso   1.000  C
  H30      1.0000 0.78450  0.22040  0.19160  Biso   1.000  H
  C53      1.0000 0.66580  0.24070  0.14080  Biso   1.000  C
  H31      1.0000 0.69790  0.29000  0.11960  Biso   1.000  H
  C54      1.0000 0.56710  0.21000  0.12920  Biso   1.000  C
  C55      1.0000 0.51980  0.13640  0.16105  Biso   1.000  C
  H32      1.0000 0.45360  0.11460  0.15250  Biso   1.000  H
  C56      1.0000 0.51020  0.25490  0.08165  Biso   1.000  C
  O15      1.0000 0.42550  0.21520  0.06846  Biso   1.000  O
  O16      1.0000 0.54610  0.33280  0.05801  Biso   1.000  O
  C57      1.0000 0.59380  0.93090  0.29398  Biso   1.000  C
  C58      1.0000 0.62420  0.82980  0.28460  Biso   1.000  C
  H33      1.0000 0.59420  0.79330  0.25660  Biso   1.000  H
  C59      1.0000 0.69890  0.78210  0.31620  Biso   1.000  C
  H34      1.0000 0.72040  0.71550  0.30840  Biso   1.000  H
  C60      1.0000 0.74070  0.83420  0.35920  Biso   1.000  C
  H35      1.0000 0.79000  0.80210  0.38040  Biso   1.000  H
  C61      1.0000 0.71000  0.93290  0.37080  Biso   1.000  C
  C62      1.0000 0.63640  0.98020  0.33895  Biso   1.000  C
  H36      1.0000 0.61460  0.04640  0.34750  Biso   1.000  H
  C63      1.0000 0.75490  0.98980  0.41835  Biso   1.000  C
  O17      1.0000 0.71520  0.07450  0.43154  Biso   1.000  O
  O18      1.0000 0.83280  0.95390  0.44199  Biso   1.000  O
  C64      1.0000 0.09380  0.43090  0.79398  Biso   1.000  C
  C65      1.0000 0.12420  0.32980  0.78460  Biso   1.000  C
  H37      1.0000 0.09420  0.29330  0.75660  Biso   1.000  H
  C66      1.0000 0.19890  0.28210  0.81620  Biso   1.000  C
  H38      1.0000 0.22040  0.21550  0.80840  Biso   1.000  H
  C67      1.0000 0.24070  0.33420  0.85920  Biso   1.000  C
  H39      1.0000 0.29000  0.30210  0.88040  Biso   1.000  H
  C68      1.0000 0.21000  0.43290  0.87080  Biso   1.000  C
  C69      1.0000 0.13640  0.48020  0.83895  Biso   1.000  C
  H40      1.0000 0.11460  0.54640  0.84750  Biso   1.000  H
  C70      1.0000 0.25490  0.48980  0.91835  Biso   1.000  C
  O19      1.0000 0.21520  0.57450  0.93154  Biso   1.000  O
  O20      1.0000 0.33280  0.45390  0.94199  Biso   1.000  O
  C71      1.0000 0.40620  0.06910  0.29398  Biso   1.000  C
  C72      1.0000 0.37580  0.17020  0.28460  Biso   1.000  C
  H41      1.0000 0.40580  0.20670  0.25660  Biso   1.000  H
  C73      1.0000 0.30110  0.21790  0.31620  Biso   1.000  C
  H42      1.0000 0.27960  0.28450  0.30840  Biso   1.000  H
  C74      1.0000 0.25930  0.16580  0.35920  Biso   1.000  C
  H43      1.0000 0.21000  0.19790  0.38040  Biso   1.000  H
  C75      1.0000 0.29000  0.06710  0.37080  Biso   1.000  C
  C76      1.0000 0.36360  0.01980  0.33895  Biso   1.000  C
  H44      1.0000 0.38540  0.95360  0.34750  Biso   1.000  H
  C77      1.0000 0.24510  0.01020  0.41835  Biso   1.000  C
  O21      1.0000 0.28480  0.92550  0.43154  Biso   1.000  O
  O22      1.0000 0.16720  0.04610  0.44199  Biso   1.000  O
  C78      1.0000 0.90620  0.56910  0.79398  Biso   1.000  C
  C79      1.0000 0.87580  0.67020  0.78460  Biso   1.000  C
  H45      1.0000 0.90580  0.70670  0.75660  Biso   1.000  H
  C80      1.0000 0.80110  0.71790  0.81620  Biso   1.000  C
  H46      1.0000 0.77960  0.78450  0.80840  Biso   1.000  H
  C81      1.0000 0.75930  0.66580  0.85920  Biso   1.000  C
  H47      1.0000 0.71000  0.69790  0.88040  Biso   1.000  H
  C82      1.0000 0.79000  0.56710  0.87080  Biso   1.000  C
  C83      1.0000 0.86360  0.51980  0.83895  Biso   1.000  C
  H48      1.0000 0.88540  0.45360  0.84750  Biso   1.000  H
  C84      1.0000 0.74510  0.51020  0.91835  Biso   1.000  C
  O23      1.0000 0.78480  0.42550  0.93154  Biso   1.000  O
  O24      1.0000 0.66720  0.54610  0.94199  Biso   1.000  O
  C85      1.0000 0.06910  0.59380  0.29398  Biso   1.000  C
  C86      1.0000 0.17020  0.62420  0.28460  Biso   1.000  C
  H49      1.0000 0.20670  0.59420  0.25660  Biso   1.000  H
  C87      1.0000 0.21790  0.69890  0.31620  Biso   1.000  C
  H50      1.0000 0.28450  0.72040  0.30840  Biso   1.000  H
  C88      1.0000 0.16580  0.74070  0.35920  Biso   1.000  C
  H51      1.0000 0.19790  0.79000  0.38040  Biso   1.000  H
  C89      1.0000 0.06710  0.71000  0.37080  Biso   1.000  C
  C90      1.0000 0.01980  0.63640  0.33895  Biso   1.000  C
  H52      1.0000 0.95360  0.61460  0.34750  Biso   1.000  H
  C91      1.0000 0.01020  0.75490  0.41835  Biso   1.000  C
  O25      1.0000 0.92550  0.71520  0.43154  Biso   1.000  O
  O26      1.0000 0.04610  0.83280  0.44199  Biso   1.000  O
  C92      1.0000 0.56910  0.09380  0.79398  Biso   1.000  C
  C93      1.0000 0.67020  0.12420  0.78460  Biso   1.000  C
  H53      1.0000 0.70670  0.09420  0.75660  Biso   1.000  H
  C94      1.0000 0.71790  0.19890  0.81620  Biso   1.000  C
  H54      1.0000 0.78450  0.22040  0.80840  Biso   1.000  H
  C95      1.0000 0.66580  0.24070  0.85920  Biso   1.000  C
  H55      1.0000 0.69790  0.29000  0.88040  Biso   1.000  H
  C96      1.0000 0.56710  0.21000  0.87080  Biso   1.000  C
  C97      1.0000 0.51980  0.13640  0.83895  Biso   1.000  C
  H56      1.0000 0.45360  0.11460  0.84750  Biso   1.000  H
  C98      1.0000 0.51020  0.25490  0.91835  Biso   1.000  C
  O27      1.0000 0.42550  0.21520  0.93154  Biso   1.000  O
  O28      1.0000 0.54610  0.33280  0.94199  Biso   1.000  O
  C99      1.0000 0.93090  0.40620  0.29398  Biso   1.000  C
  C100     1.0000 0.82980  0.37580  0.28460  Biso   1.000  C
  H57      1.0000 0.79330  0.40580  0.25660  Biso   1.000  H
  C101     1.0000 0.78210  0.30110  0.31620  Biso   1.000  C
  H58      1.0000 0.71550  0.27960  0.30840  Biso   1.000  H
  C102     1.0000 0.83420  0.25930  0.35920  Biso   1.000  C
  H59      1.0000 0.80210  0.21000  0.38040  Biso   1.000  H
  C103     1.0000 0.93290  0.29000  0.37080  Biso   1.000  C
  C104     1.0000 0.98020  0.36360  0.33895  Biso   1.000  C
  H60      1.0000 0.04640  0.38540  0.34750  Biso   1.000  H
  C105     1.0000 0.98980  0.24510  0.41835  Biso   1.000  C
  O29      1.0000 0.07450  0.28480  0.43154  Biso   1.000  O
  O30      1.0000 0.95390  0.16720  0.44199  Biso   1.000  O
  C106     1.0000 0.43090  0.90620  0.79398  Biso   1.000  C
  C107     1.0000 0.32980  0.87580  0.78460  Biso   1.000  C
  H61      1.0000 0.29330  0.90580  0.75660  Biso   1.000  H
  C108     1.0000 0.28210  0.80110  0.81620  Biso   1.000  C
  H62      1.0000 0.21550  0.77960  0.80840  Biso   1.000  H
  C109     1.0000 0.33420  0.75930  0.85920  Biso   1.000  C
  H63      1.0000 0.30210  0.71000  0.88040  Biso   1.000  H
  C110     1.0000 0.43290  0.79000  0.87080  Biso   1.000  C
  C111     1.0000 0.48020  0.86360  0.83895  Biso   1.000  C
  H64      1.0000 0.54640  0.88540  0.84750  Biso   1.000  H
  C112     1.0000 0.48980  0.74510  0.91835  Biso   1.000  C
  O31      1.0000 0.57450  0.78480  0.93154  Biso   1.000  O
  O32      1.0000 0.45390  0.66720  0.94199  Biso   1.000  O
  Cd1      1.0000 0.17497  0.88411  0.50000  Biso   1.000  Cd
  Cd2      1.0000 0.67497  0.38411  0.00000  Biso   1.000  Cd
  Cd3      1.0000 0.82503  0.11589  0.50000  Biso   1.000  Cd
  Cd4      1.0000 0.32503  0.61589  0.00000  Biso   1.000  Cd
  Cd5      1.0000 0.11589  0.17497  0.50000  Biso   1.000  Cd
  Cd6      1.0000 0.61589  0.67497  0.00000  Biso   1.000  Cd
  Cd7      1.0000 0.88411  0.82503  0.50000  Biso   1.000  Cd
  Cd8      1.0000 0.38411  0.32503  0.00000  Biso   1.000  Cd
  Si1      1.0000 0.50000  0.00000  0.75000  Biso   1.000  Si
  Si2      1.0000 0.00000  0.50000  0.75000  Biso   1.000  Si
  Si3      1.0000 0.50000  0.00000  0.25000  Biso   1.000  Si
  Si4      1.0000 0.00000  0.50000  0.25000  Biso   1.000  Si
