data_LEWVAL_clean
_audit_creation_date              2014-07-02
_audit_creation_method            'Materials Studio'
_symmetry_space_group_name_H-M    'P1'
_symmetry_Int_Tables_number       1
_symmetry_cell_setting            triclinic
loop_
_symmetry_equiv_pos_as_xyz
  x,y,z
_cell_length_a                    10.0597
_cell_length_b                    12.7730
_cell_length_c                    12.9948
_cell_angle_alpha                 70.9178
_cell_angle_beta                  67.2281
_cell_angle_gamma                 66.8097
loop_
_atom_site_label
_atom_site_type_symbol
_atom_site_fract_x
_atom_site_fract_y
_atom_site_fract_z
_atom_site_U_iso_or_equiv
_atom_site_adp_type
_atom_site_occupancy
Co1    Co    0.96665   0.61468   0.89688   0.01267  Uiso   1.00
Co2    Co    0.31765   0.66681   0.76403   0.01267  Uiso   1.00
Co3    Co    0.47821   0.88532   0.60312   0.01267  Uiso   1.00
Co4    Co    0.74849   0.83319   0.73597   0.01267  Uiso   1.00
Co5    Co    0.03335   0.38532   0.10312   0.01267  Uiso   1.00
Co6    Co    0.68235   0.33319   0.23597   0.01267  Uiso   1.00
Co7    Co    0.52179   0.11468   0.39688   0.01267  Uiso   1.00
Co8    Co    0.25151   0.16681   0.26403   0.01267  Uiso   1.00
H1     H     0.10270   0.38990   0.65010   0.01267  Uiso   1.00
H2     H     0.20850   0.25660   0.53680   0.01267  Uiso   1.00
H3     H     0.61220   0.23010   0.51850   0.01267  Uiso   1.00
H4     H     0.51760   0.37090   0.62510   0.01267  Uiso   1.00
H5     H     0.13680   0.95630   0.73930   0.01267  Uiso   1.00
H6     H     0.01920   0.01920   0.59440   0.01267  Uiso   1.00
H7     H     0.13780   0.91580   0.53700   0.01267  Uiso   1.00
H8     H     0.14270   0.11010   0.84990   0.01267  Uiso   1.00
H9     H     0.00190   0.24340   0.96320   0.01267  Uiso   1.00
H10    H     0.36080   0.26990   0.98150   0.01267  Uiso   1.00
H11    H     0.51360   0.12910   0.87490   0.01267  Uiso   1.00
H12    H     0.83240   0.54370   0.76070   0.01267  Uiso   1.00
H13    H     0.63280   0.48080   0.90560   0.01267  Uiso   1.00
H14    H     0.59060   0.58420   0.96300   0.01267  Uiso   1.00
H15    H     0.89730   0.61010   0.34990   0.01267  Uiso   1.00
H16    H     0.79150   0.74340   0.46320   0.01267  Uiso   1.00
H17    H     0.38780   0.76990   0.48150   0.01267  Uiso   1.00
H18    H     0.48240   0.62910   0.37490   0.01267  Uiso   1.00
H19    H     0.86320   0.04370   0.26070   0.01267  Uiso   1.00
H20    H     0.98080   0.98080   0.40560   0.01267  Uiso   1.00
H21    H     0.86220   0.08420   0.46300   0.01267  Uiso   1.00
H22    H     0.85730   0.88990   0.15010   0.01267  Uiso   1.00
H23    H     0.99810   0.75660   0.03680   0.01267  Uiso   1.00
H24    H     0.63920   0.73010   0.01850   0.01267  Uiso   1.00
H25    H     0.48640   0.87090   0.12510   0.01267  Uiso   1.00
H26    H     0.16760   0.45630   0.23930   0.01267  Uiso   1.00
H27    H     0.36720   0.51920   0.09440   0.01267  Uiso   1.00
H28    H     0.40940   0.41580   0.03700   0.01267  Uiso   1.00
C1     C     0.23610   0.48690   0.72170   0.01267  Uiso   1.00
C2     C     0.30010   0.39620   0.64980   0.01267  Uiso   1.00
C3     C     0.20710   0.35990   0.62250   0.01267  Uiso   1.00
C4     C     0.27230   0.27970   0.55450   0.01267  Uiso   1.00
C5     C     0.50820   0.26380   0.54420   0.01267  Uiso   1.00
C6     C     0.45150   0.34810   0.60970   0.01267  Uiso   1.00
C7     C     0.03330   0.83890   0.74990   0.01267  Uiso   1.00
C8     C     0.15220   0.90290   0.69310   0.01267  Uiso   1.00
C9     C     0.12440   0.97130   0.57910   0.01267  Uiso   1.00
C10    C     0.22020   0.04900   0.50240   0.01267  Uiso   1.00
C11    C     0.44470   0.01310   0.77830   0.01267  Uiso   1.00
C12    C     0.34610   0.10380   0.85020   0.01267  Uiso   1.00
C13    C     0.18950   0.14010   0.87750   0.01267  Uiso   1.00
C14    C     0.10650   0.22030   0.94550   0.01267  Uiso   1.00
C15    C     0.31620   0.23620   0.95580   0.01267  Uiso   1.00
C16    C     0.40930   0.15190   0.89030   0.01267  Uiso   1.00
C17    C     0.62210   0.66110   0.75010   0.01267  Uiso   1.00
C18    C     0.74820   0.59710   0.80690   0.01267  Uiso   1.00
C19    C     0.67480   0.52870   0.92090   0.01267  Uiso   1.00
C20    C     0.77160   0.45100   0.99760   0.01267  Uiso   1.00
C21    C     0.76390   0.51310   0.27830   0.01267  Uiso   1.00
C22    C     0.69990   0.60380   0.35020   0.01267  Uiso   1.00
C23    C     0.79290   0.64010   0.37750   0.01267  Uiso   1.00
C24    C     0.72770   0.72030   0.44550   0.01267  Uiso   1.00
C25    C     0.49180   0.73620   0.45580   0.01267  Uiso   1.00
C26    C     0.54850   0.65190   0.39030   0.01267  Uiso   1.00
C27    C     0.96670   0.16110   0.25010   0.01267  Uiso   1.00
C28    C     0.84780   0.09710   0.30690   0.01267  Uiso   1.00
C29    C     0.87560   0.02870   0.42090   0.01267  Uiso   1.00
C30    C     0.77980   0.95100   0.49760   0.01267  Uiso   1.00
C31    C     0.55530   0.98690   0.22170   0.01267  Uiso   1.00
C32    C     0.65390   0.89620   0.14980   0.01267  Uiso   1.00
C33    C     0.81050   0.85990   0.12250   0.01267  Uiso   1.00
C34    C     0.89350   0.77970   0.05450   0.01267  Uiso   1.00
C35    C     0.68380   0.76380   0.04420   0.01267  Uiso   1.00
C36    C     0.59070   0.84810   0.10970   0.01267  Uiso   1.00
C37    C     0.37790   0.33890   0.24990   0.01267  Uiso   1.00
C38    C     0.25180   0.40290   0.19310   0.01267  Uiso   1.00
C39    C     0.32520   0.47130   0.07910   0.01267  Uiso   1.00
C40    C     0.22840   0.54900   0.00240   0.01267  Uiso   1.00
N1     N     0.42076   0.23008   0.51540   0.01267  Uiso   1.00
N2     N     0.16624   0.26992   0.98460   0.01267  Uiso   1.00
N3     N     0.57924   0.76992   0.48460   0.01267  Uiso   1.00
N4     N     0.83376   0.73008   0.01540   0.01267  Uiso   1.00
O1     O     0.33067   0.53046   0.71780   0.01267  Uiso   1.00
O2     O     0.10113   0.50714   0.77920   0.01267  Uiso   1.00
O3     O     0.08073   0.73444   0.79390   0.01267  Uiso   1.00
O4     O     0.89668   0.89374   0.75850   0.01267  Uiso   1.00
O5     O     0.29973   0.82434   0.67600   0.01267  Uiso   1.00
O6     O     0.35873   0.02364   0.49670   0.01267  Uiso   1.00
O7     O     0.15871   0.12828   0.43310   0.01267  Uiso   1.00
O8     O     0.57893   0.96954   0.78220   0.01267  Uiso   1.00
O9     O     0.38747   0.99286   0.72080   0.01267  Uiso   1.00
O10    O     0.60907   0.76556   0.70610   0.01267  Uiso   1.00
O11    O     0.54892   0.60626   0.74150   0.01267  Uiso   1.00
O12    O     0.80007   0.67566   0.82400   0.01267  Uiso   1.00
O13    O     0.87907   0.47636   0.00330   0.01267  Uiso   1.00
O14    O     0.72009   0.37172   0.06690   0.01267  Uiso   1.00
O15    O     0.66933   0.46954   0.28220   0.01267  Uiso   1.00
O16    O     0.89887   0.49286   0.22080   0.01267  Uiso   1.00
O17    O     0.91927   0.26556   0.20610   0.01267  Uiso   1.00
O18    O     0.10332   0.10626   0.24150   0.01267  Uiso   1.00
O19    O     0.70027   0.17566   0.32400   0.01267  Uiso   1.00
O20    O     0.64127   0.97636   0.50330   0.01267  Uiso   1.00
O21    O     0.84129   0.87172   0.56690   0.01267  Uiso   1.00
O22    O     0.42107   0.03046   0.21780   0.01267  Uiso   1.00
O23    O     0.61253   0.00714   0.27920   0.01267  Uiso   1.00
O24    O     0.39093   0.23444   0.29390   0.01267  Uiso   1.00
O25    O     0.45108   0.39374   0.25850   0.01267  Uiso   1.00
O26    O     0.19993   0.32434   0.17600   0.01267  Uiso   1.00
O27    O     0.12093   0.52364   0.99670   0.01267  Uiso   1.00
O28    O     0.27991   0.62828   0.93310   0.01267  Uiso   1.00
