data_image0
_cell_length_a       16.6502
_cell_length_b       16.6502
_cell_length_c       51.313
_cell_angle_alpha    90
_cell_angle_beta     90
_cell_angle_gamma    120

_symmetry_space_group_name_H-M    "P 1"
_symmetry_int_tables_number       1

loop_
  _symmetry_equiv_pos_as_xyz
  'x, y, z'

loop_
  _atom_site_label
  _atom_site_occupancy
  _atom_site_fract_x
  _atom_site_fract_y
  _atom_site_fract_z
  _atom_site_thermal_displace_type
  _atom_site_B_iso_or_equiv
  _atom_site_type_symbol
  W1       1.0000 0.51816  0.62430  0.17320  Biso   1.000  W
  W2       1.0000 0.30545  0.44762  0.16910  Biso   1.000  W
  W3       1.0000 0.25835  0.53290  0.22964  Biso   1.000  W
  W4       1.0000 0.39798  0.58509  0.11885  Biso   1.000  W
  Tm1      1.0000 0.32229  0.21718  0.16869  Biso   1.000  Tm
  O1       1.0000 0.43990  0.49490  0.17840  Biso   1.000  O
  O2       1.0000 0.27780  0.33220  0.17180  Biso   1.000  O
  O3       1.0000 0.37780  0.59410  0.16150  Biso   1.000  O
  O4       1.0000 0.50800  0.60620  0.13540  Biso   1.000  O
  O5       1.0000 0.29850  0.47950  0.20570  Biso   1.000  O
  O6       1.0000 0.24540  0.38500  0.31190  Biso   1.000  O
  O7       1.0000 0.49650  0.65430  0.20740  Biso   1.000  O
  O8       1.0000 0.37460  0.28750  0.20790  Biso   1.000  O
  O9       1.0000 0.33440  0.45560  0.13340  Biso   1.000  O
  O10      1.0000 0.19310  0.43970  0.16510  Biso   1.000  O
  O11      1.0000 0.22600  0.62200  0.24520  Biso   1.000  O
  O12      1.0000 0.43670  0.71000  0.11580  Biso   1.000  O
  O13      1.0000 0.37160  0.50180  0.32720  Biso   1.000  O
  N1       1.0000 0.50500  0.50990  0.25730  Biso   1.000  N
  C1       1.0000 0.37930  0.36360  0.24700  Biso   1.000  C
  C2       1.0000 0.46420  0.43530  0.24120  Biso   1.000  C
  H1       1.0000 0.49580  0.43290  0.22580  Biso   1.000  H
  C3       1.0000 0.37930  0.44080  0.28630  Biso   1.000  C
  C4       1.0000 0.46660  0.51330  0.28030  Biso   1.000  C
  H2       1.0000 0.49900  0.56420  0.29210  Biso   1.000  H
  C5       1.0000 0.33610  0.36590  0.27000  Biso   1.000  C
  H3       1.0000 0.27580  0.31520  0.27430  Biso   1.000  H
  C6       1.0000 0.33030  0.44520  0.31010  Biso   1.000  C
  C7       1.0000 0.33290  0.28020  0.22950  Biso   1.000  C
  O14      1.0000 0.26460  0.21330  0.23720  Biso   1.000  O
  W5       1.0000 0.18483  0.95763  0.50653  Biso   1.000  W
  W6       1.0000 0.97212  0.78095  0.50243  Biso   1.000  W
  W7       1.0000 0.92502  0.86623  0.56298  Biso   1.000  W
  W8       1.0000 0.06465  0.91842  0.45219  Biso   1.000  W
  Tm2      1.0000 0.98896  0.55051  0.50202  Biso   1.000  Tm
  O15      1.0000 0.10657  0.82823  0.51173  Biso   1.000  O
  O16      1.0000 0.94447  0.66553  0.50513  Biso   1.000  O
  O17      1.0000 0.04447  0.92743  0.49483  Biso   1.000  O
  O18      1.0000 0.17467  0.93953  0.46873  Biso   1.000  O
  O19      1.0000 0.96517  0.81283  0.53903  Biso   1.000  O
  O20      1.0000 0.91207  0.71833  0.64523  Biso   1.000  O
  O21      1.0000 0.16317  0.98763  0.54073  Biso   1.000  O
  O22      1.0000 0.04127  0.62083  0.54123  Biso   1.000  O
  O23      1.0000 0.00107  0.78893  0.46673  Biso   1.000  O
  O24      1.0000 0.85977  0.77303  0.49843  Biso   1.000  O
  O25      1.0000 0.89267  0.95533  0.57853  Biso   1.000  O
  O26      1.0000 0.10337  0.04333  0.44913  Biso   1.000  O
  O27      1.0000 0.03827  0.83513  0.66053  Biso   1.000  O
  N2       1.0000 0.17167  0.84323  0.59063  Biso   1.000  N
  C8       1.0000 0.04597  0.69693  0.58033  Biso   1.000  C
  C9       1.0000 0.13087  0.76863  0.57453  Biso   1.000  C
  H4       1.0000 0.16247  0.76623  0.55913  Biso   1.000  H
  C10      1.0000 0.04597  0.77413  0.61963  Biso   1.000  C
  C11      1.0000 0.13327  0.84663  0.61363  Biso   1.000  C
  H5       1.0000 0.16567  0.89753  0.62543  Biso   1.000  H
  C12      1.0000 0.00277  0.69923  0.60333  Biso   1.000  C
  H6       1.0000 0.94247  0.64853  0.60763  Biso   1.000  H
  C13      1.0000 0.99697  0.77853  0.64343  Biso   1.000  C
  C14      1.0000 0.99957  0.61353  0.56283  Biso   1.000  C
  O28      1.0000 0.93127  0.54663  0.57053  Biso   1.000  O
  W9       1.0000 0.85149  0.29097  0.83987  Biso   1.000  W
  W10      1.0000 0.63878  0.11429  0.83577  Biso   1.000  W
  W11      1.0000 0.59168  0.19957  0.89631  Biso   1.000  W
  W12      1.0000 0.73131  0.25176  0.78552  Biso   1.000  W
  Tm3      1.0000 0.65562  0.88385  0.83535  Biso   1.000  Tm
  O29      1.0000 0.77323  0.16157  0.84507  Biso   1.000  O
  O30      1.0000 0.61113  0.99887  0.83847  Biso   1.000  O
  O31      1.0000 0.71113  0.26077  0.82817  Biso   1.000  O
  O32      1.0000 0.84133  0.27287  0.80207  Biso   1.000  O
  O33      1.0000 0.63183  0.14617  0.87237  Biso   1.000  O
  O34      1.0000 0.57873  0.05167  0.97857  Biso   1.000  O
  O35      1.0000 0.82983  0.32097  0.87407  Biso   1.000  O
  O36      1.0000 0.70793  0.95417  0.87457  Biso   1.000  O
  O37      1.0000 0.66773  0.12227  0.80007  Biso   1.000  O
  O38      1.0000 0.52643  0.10637  0.83177  Biso   1.000  O
  O39      1.0000 0.55933  0.28867  0.91187  Biso   1.000  O
  O40      1.0000 0.77003  0.37667  0.78247  Biso   1.000  O
  O41      1.0000 0.70493  0.16847  0.99387  Biso   1.000  O
  N3       1.0000 0.83833  0.17657  0.92397  Biso   1.000  N
  C15      1.0000 0.71263  0.03027  0.91367  Biso   1.000  C
  C16      1.0000 0.79753  0.10197  0.90787  Biso   1.000  C
  H7       1.0000 0.82913  0.09957  0.89247  Biso   1.000  H
  C17      1.0000 0.71263  0.10747  0.95297  Biso   1.000  C
  C18      1.0000 0.79993  0.17997  0.94697  Biso   1.000  C
  H8       1.0000 0.83233  0.23087  0.95877  Biso   1.000  H
  C19      1.0000 0.66943  0.03257  0.93667  Biso   1.000  C
  H9       1.0000 0.60913  0.98187  0.94097  Biso   1.000  H
  C20      1.0000 0.66363  0.11187  0.97677  Biso   1.000  C
  C21      1.0000 0.66623  0.94687  0.89617  Biso   1.000  C
  O42      1.0000 0.59793  0.87997  0.90387  Biso   1.000  O
  W13      1.0000 0.37570  0.89386  0.17320  Biso   1.000  W
  W14      1.0000 0.55238  0.85783  0.16910  Biso   1.000  W
  W15      1.0000 0.46710  0.72545  0.22964  Biso   1.000  W
  W16      1.0000 0.41491  0.81289  0.11885  Biso   1.000  W
  Tm4      1.0000 0.78282  0.10511  0.16869  Biso   1.000  Tm
  O43      1.0000 0.50510  0.94500  0.17840  Biso   1.000  O
  O44      1.0000 0.66780  0.94560  0.17180  Biso   1.000  O
  O45      1.0000 0.40590  0.78370  0.16150  Biso   1.000  O
  O46      1.0000 0.39380  0.90180  0.13540  Biso   1.000  O
  O47      1.0000 0.52050  0.81900  0.20570  Biso   1.000  O
  O48      1.0000 0.61500  0.86040  0.31190  Biso   1.000  O
  O49      1.0000 0.34570  0.84220  0.20740  Biso   1.000  O
  O50      1.0000 0.71250  0.08710  0.20790  Biso   1.000  O
  O51      1.0000 0.54440  0.87880  0.13340  Biso   1.000  O
  O52      1.0000 0.56030  0.75340  0.16510  Biso   1.000  O
  O53      1.0000 0.37800  0.60400  0.24520  Biso   1.000  O
  O54      1.0000 0.29000  0.72670  0.11580  Biso   1.000  O
  O55      1.0000 0.49820  0.86980  0.32720  Biso   1.000  O
  N4       1.0000 0.49010  0.99510  0.25730  Biso   1.000  N
  C22      1.0000 0.63640  0.01570  0.24700  Biso   1.000  C
  C23      1.0000 0.56470  0.02890  0.24120  Biso   1.000  C
  H10      1.0000 0.56710  0.06290  0.22580  Biso   1.000  H
  C24      1.0000 0.55920  0.93850  0.28630  Biso   1.000  C
  C25      1.0000 0.48670  0.95330  0.28030  Biso   1.000  C
  H11      1.0000 0.43580  0.93480  0.29210  Biso   1.000  H
  C26      1.0000 0.63410  0.97020  0.27000  Biso   1.000  C
  H12      1.0000 0.68480  0.96060  0.27430  Biso   1.000  H
  C27      1.0000 0.55480  0.88510  0.31010  Biso   1.000  C
  C28      1.0000 0.71980  0.05270  0.22950  Biso   1.000  C
  O56      1.0000 0.78670  0.05130  0.23720  Biso   1.000  O
  W17      1.0000 0.04237  0.22719  0.50653  Biso   1.000  W
  W18      1.0000 0.21905  0.19116  0.50243  Biso   1.000  W
  W19      1.0000 0.13377  0.05878  0.56298  Biso   1.000  W
  W20      1.0000 0.08158  0.14622  0.45219  Biso   1.000  W
  Tm5      1.0000 0.44949  0.43844  0.50202  Biso   1.000  Tm
  O57      1.0000 0.17177  0.27833  0.51173  Biso   1.000  O
  O58      1.0000 0.33447  0.27893  0.50513  Biso   1.000  O
  O59      1.0000 0.07257  0.11703  0.49483  Biso   1.000  O
  O60      1.0000 0.06047  0.23513  0.46873  Biso   1.000  O
  O61      1.0000 0.18717  0.15233  0.53903  Biso   1.000  O
  O62      1.0000 0.28167  0.19373  0.64523  Biso   1.000  O
  O63      1.0000 0.01237  0.17553  0.54073  Biso   1.000  O
  O64      1.0000 0.37917  0.42043  0.54123  Biso   1.000  O
  O65      1.0000 0.21107  0.21213  0.46673  Biso   1.000  O
  O66      1.0000 0.22697  0.08673  0.49843  Biso   1.000  O
  O67      1.0000 0.04467  0.93733  0.57853  Biso   1.000  O
  O68      1.0000 0.95667  0.06003  0.44913  Biso   1.000  O
  O69      1.0000 0.16487  0.20313  0.66053  Biso   1.000  O
  N5       1.0000 0.15677  0.32843  0.59063  Biso   1.000  N
  C29      1.0000 0.30307  0.34903  0.58033  Biso   1.000  C
  C30      1.0000 0.23137  0.36223  0.57453  Biso   1.000  C
  H13      1.0000 0.23377  0.39623  0.55913  Biso   1.000  H
  C31      1.0000 0.22587  0.27183  0.61963  Biso   1.000  C
  C32      1.0000 0.15337  0.28663  0.61363  Biso   1.000  C
  H14      1.0000 0.10247  0.26813  0.62543  Biso   1.000  H
  C33      1.0000 0.30077  0.30353  0.60333  Biso   1.000  C
  H15      1.0000 0.35147  0.29393  0.60763  Biso   1.000  H
  C34      1.0000 0.22147  0.21843  0.64343  Biso   1.000  C
  C35      1.0000 0.38647  0.38603  0.56283  Biso   1.000  C
  O70      1.0000 0.45337  0.38463  0.57053  Biso   1.000  O
  W21      1.0000 0.70903  0.56053  0.83987  Biso   1.000  W
  W22      1.0000 0.88571  0.52450  0.83577  Biso   1.000  W
  W23      1.0000 0.80043  0.39212  0.89631  Biso   1.000  W
  W24      1.0000 0.74824  0.47956  0.78552  Biso   1.000  W
  Tm6      1.0000 0.11615  0.77178  0.83535  Biso   1.000  Tm
  O71      1.0000 0.83843  0.61167  0.84507  Biso   1.000  O
  O72      1.0000 0.00113  0.61227  0.83847  Biso   1.000  O
  O73      1.0000 0.73923  0.45037  0.82817  Biso   1.000  O
  O74      1.0000 0.72713  0.56847  0.80207  Biso   1.000  O
  O75      1.0000 0.85383  0.48567  0.87237  Biso   1.000  O
  O76      1.0000 0.94833  0.52707  0.97857  Biso   1.000  O
  O77      1.0000 0.67903  0.50887  0.87407  Biso   1.000  O
  O78      1.0000 0.04583  0.75377  0.87457  Biso   1.000  O
  O79      1.0000 0.87773  0.54547  0.80007  Biso   1.000  O
  O80      1.0000 0.89363  0.42007  0.83177  Biso   1.000  O
  O81      1.0000 0.71133  0.27067  0.91187  Biso   1.000  O
  O82      1.0000 0.62333  0.39337  0.78247  Biso   1.000  O
  O83      1.0000 0.83153  0.53647  0.99387  Biso   1.000  O
  N6       1.0000 0.82343  0.66177  0.92397  Biso   1.000  N
  C36      1.0000 0.96973  0.68237  0.91367  Biso   1.000  C
  C37      1.0000 0.89803  0.69557  0.90787  Biso   1.000  C
  H16      1.0000 0.90043  0.72957  0.89247  Biso   1.000  H
  C38      1.0000 0.89253  0.60517  0.95297  Biso   1.000  C
  C39      1.0000 0.82003  0.61997  0.94697  Biso   1.000  C
  H17      1.0000 0.76913  0.60147  0.95877  Biso   1.000  H
  C40      1.0000 0.96743  0.63687  0.93667  Biso   1.000  C
  H18      1.0000 0.01813  0.62727  0.94097  Biso   1.000  H
  C41      1.0000 0.88813  0.55177  0.97677  Biso   1.000  C
  C42      1.0000 0.05313  0.71937  0.89617  Biso   1.000  C
  O84      1.0000 0.12003  0.71797  0.90387  Biso   1.000  O
  W25      1.0000 0.10614  0.48184  0.17320  Biso   1.000  W
  W26      1.0000 0.14217  0.69455  0.16910  Biso   1.000  W
  W27      1.0000 0.27455  0.74165  0.22964  Biso   1.000  W
  W28      1.0000 0.18711  0.60202  0.11885  Biso   1.000  W
  Tm7      1.0000 0.89489  0.67771  0.16869  Biso   1.000  Tm
  O85      1.0000 0.05500  0.56010  0.17840  Biso   1.000  O
  O86      1.0000 0.05440  0.72220  0.17180  Biso   1.000  O
  O87      1.0000 0.21630  0.62220  0.16150  Biso   1.000  O
  O88      1.0000 0.09820  0.49200  0.13540  Biso   1.000  O
  O89      1.0000 0.18100  0.70150  0.20570  Biso   1.000  O
  O90      1.0000 0.13960  0.75460  0.31190  Biso   1.000  O
  O91      1.0000 0.15780  0.50350  0.20740  Biso   1.000  O
  O92      1.0000 0.91290  0.62540  0.20790  Biso   1.000  O
  O93      1.0000 0.12120  0.66560  0.13340  Biso   1.000  O
  O94      1.0000 0.24660  0.80690  0.16510  Biso   1.000  O
  O95      1.0000 0.39600  0.77400  0.24520  Biso   1.000  O
  O96      1.0000 0.27330  0.56330  0.11580  Biso   1.000  O
  O97      1.0000 0.13020  0.62840  0.32720  Biso   1.000  O
  N7       1.0000 0.00490  0.49500  0.25730  Biso   1.000  N
  C43      1.0000 0.98430  0.62070  0.24700  Biso   1.000  C
  C44      1.0000 0.97110  0.53580  0.24120  Biso   1.000  C
  H19      1.0000 0.93710  0.50420  0.22580  Biso   1.000  H
  C45      1.0000 0.06150  0.62070  0.28630  Biso   1.000  C
  C46      1.0000 0.04670  0.53340  0.28030  Biso   1.000  C
  H20      1.0000 0.06520  0.50100  0.29210  Biso   1.000  H
  C47      1.0000 0.02980  0.66390  0.27000  Biso   1.000  C
  H21      1.0000 0.03940  0.72420  0.27430  Biso   1.000  H
  C48      1.0000 0.11490  0.66970  0.31010  Biso   1.000  C
  C49      1.0000 0.94730  0.66710  0.22950  Biso   1.000  C
  O98      1.0000 0.94870  0.73540  0.23720  Biso   1.000  O
  W29      1.0000 0.77281  0.81517  0.50653  Biso   1.000  W
  W30      1.0000 0.80884  0.02788  0.50243  Biso   1.000  W
  W31      1.0000 0.94122  0.07498  0.56298  Biso   1.000  W
  W32      1.0000 0.85378  0.93535  0.45219  Biso   1.000  W
  Tm8      1.0000 0.56156  0.01104  0.50202  Biso   1.000  Tm
  O99      1.0000 0.72167  0.89343  0.51173  Biso   1.000  O
  O100     1.0000 0.72107  0.05553  0.50513  Biso   1.000  O
  O101     1.0000 0.88297  0.95553  0.49483  Biso   1.000  O
  O102     1.0000 0.76487  0.82533  0.46873  Biso   1.000  O
  O103     1.0000 0.84767  0.03483  0.53903  Biso   1.000  O
  O104     1.0000 0.80627  0.08793  0.64523  Biso   1.000  O
  O105     1.0000 0.82447  0.83683  0.54073  Biso   1.000  O
  O106     1.0000 0.57957  0.95873  0.54123  Biso   1.000  O
  O107     1.0000 0.78787  0.99893  0.46673  Biso   1.000  O
  O108     1.0000 0.91327  0.14023  0.49843  Biso   1.000  O
  O109     1.0000 0.06267  0.10733  0.57853  Biso   1.000  O
  O110     1.0000 0.93997  0.89663  0.44913  Biso   1.000  O
  O111     1.0000 0.79687  0.96173  0.66053  Biso   1.000  O
  N8       1.0000 0.67157  0.82833  0.59063  Biso   1.000  N
  C50      1.0000 0.65097  0.95403  0.58033  Biso   1.000  C
  C51      1.0000 0.63777  0.86913  0.57453  Biso   1.000  C
  H22      1.0000 0.60377  0.83753  0.55913  Biso   1.000  H
  C52      1.0000 0.72817  0.95403  0.61963  Biso   1.000  C
  C53      1.0000 0.71337  0.86673  0.61363  Biso   1.000  C
  H23      1.0000 0.73187  0.83433  0.62543  Biso   1.000  H
  C54      1.0000 0.69647  0.99723  0.60333  Biso   1.000  C
  H24      1.0000 0.70607  0.05753  0.60763  Biso   1.000  H
  C55      1.0000 0.78157  0.00303  0.64343  Biso   1.000  C
  C56      1.0000 0.61397  0.00043  0.56283  Biso   1.000  C
  O112     1.0000 0.61537  0.06873  0.57053  Biso   1.000  O
  W33      1.0000 0.43947  0.14851  0.83987  Biso   1.000  W
  W34      1.0000 0.47550  0.36122  0.83577  Biso   1.000  W
  W35      1.0000 0.60788  0.40832  0.89631  Biso   1.000  W
  W36      1.0000 0.52044  0.26869  0.78552  Biso   1.000  W
  Tm9      1.0000 0.22822  0.34438  0.83535  Biso   1.000  Tm
  O113     1.0000 0.38833  0.22677  0.84507  Biso   1.000  O
  O114     1.0000 0.38773  0.38887  0.83847  Biso   1.000  O
  O115     1.0000 0.54963  0.28887  0.82817  Biso   1.000  O
  O116     1.0000 0.43153  0.15867  0.80207  Biso   1.000  O
  O117     1.0000 0.51433  0.36817  0.87237  Biso   1.000  O
  O118     1.0000 0.47293  0.42127  0.97857  Biso   1.000  O
  O119     1.0000 0.49113  0.17017  0.87407  Biso   1.000  O
  O120     1.0000 0.24623  0.29207  0.87457  Biso   1.000  O
  O121     1.0000 0.45453  0.33227  0.80007  Biso   1.000  O
  O122     1.0000 0.57993  0.47357  0.83177  Biso   1.000  O
  O123     1.0000 0.72933  0.44067  0.91187  Biso   1.000  O
  O124     1.0000 0.60663  0.22997  0.78247  Biso   1.000  O
  O125     1.0000 0.46353  0.29507  0.99387  Biso   1.000  O
  N9       1.0000 0.33823  0.16167  0.92397  Biso   1.000  N
  C57      1.0000 0.31763  0.28737  0.91367  Biso   1.000  C
  C58      1.0000 0.30443  0.20247  0.90787  Biso   1.000  C
  H25      1.0000 0.27043  0.17087  0.89247  Biso   1.000  H
  C59      1.0000 0.39483  0.28737  0.95297  Biso   1.000  C
  C60      1.0000 0.38003  0.20007  0.94697  Biso   1.000  C
  H26      1.0000 0.39853  0.16767  0.95877  Biso   1.000  H
  C61      1.0000 0.36313  0.33057  0.93667  Biso   1.000  C
  H27      1.0000 0.37273  0.39087  0.94097  Biso   1.000  H
  C62      1.0000 0.44823  0.33637  0.97677  Biso   1.000  C
  C63      1.0000 0.28063  0.33377  0.89617  Biso   1.000  C
  O126     1.0000 0.28203  0.40207  0.90387  Biso   1.000  O
  W37      1.0000 0.37570  0.48184  0.67320  Biso   1.000  W
  W38      1.0000 0.55238  0.69455  0.66910  Biso   1.000  W
  W39      1.0000 0.46710  0.74165  0.72964  Biso   1.000  W
  W40      1.0000 0.41491  0.60202  0.61885  Biso   1.000  W
  Tm10     1.0000 0.78282  0.67771  0.66869  Biso   1.000  Tm
  O127     1.0000 0.50510  0.56010  0.67840  Biso   1.000  O
  O128     1.0000 0.66780  0.72220  0.67180  Biso   1.000  O
  O129     1.0000 0.40590  0.62220  0.66150  Biso   1.000  O
  O130     1.0000 0.39380  0.49200  0.63540  Biso   1.000  O
  O131     1.0000 0.52050  0.70150  0.70570  Biso   1.000  O
  O132     1.0000 0.61500  0.75460  0.81190  Biso   1.000  O
  O133     1.0000 0.34570  0.50350  0.70740  Biso   1.000  O
  O134     1.0000 0.71250  0.62540  0.70790  Biso   1.000  O
  O135     1.0000 0.54440  0.66560  0.63340  Biso   1.000  O
  O136     1.0000 0.56030  0.80690  0.66510  Biso   1.000  O
  O137     1.0000 0.37800  0.77400  0.74520  Biso   1.000  O
  O138     1.0000 0.29000  0.56330  0.61580  Biso   1.000  O
  O139     1.0000 0.49820  0.62840  0.82720  Biso   1.000  O
  N10      1.0000 0.49010  0.49500  0.75730  Biso   1.000  N
  C64      1.0000 0.63640  0.62070  0.74700  Biso   1.000  C
  C65      1.0000 0.56470  0.53580  0.74120  Biso   1.000  C
  H28      1.0000 0.56710  0.50420  0.72580  Biso   1.000  H
  C66      1.0000 0.55920  0.62070  0.78630  Biso   1.000  C
  C67      1.0000 0.48670  0.53340  0.78030  Biso   1.000  C
  H29      1.0000 0.43580  0.50100  0.79210  Biso   1.000  H
  C68      1.0000 0.63410  0.66390  0.77000  Biso   1.000  C
  H30      1.0000 0.68480  0.72420  0.77430  Biso   1.000  H
  C69      1.0000 0.55480  0.66970  0.81010  Biso   1.000  C
  C70      1.0000 0.71980  0.66710  0.72950  Biso   1.000  C
  O140     1.0000 0.78670  0.73540  0.73720  Biso   1.000  O
  W41      1.0000 0.04237  0.81517  0.00653  Biso   1.000  W
  W42      1.0000 0.21905  0.02788  0.00243  Biso   1.000  W
  W43      1.0000 0.13377  0.07498  0.06298  Biso   1.000  W
  W44      1.0000 0.08158  0.93535  0.95219  Biso   1.000  W
  Tm11     1.0000 0.44949  0.01104  0.00202  Biso   1.000  Tm
  O141     1.0000 0.17177  0.89343  0.01173  Biso   1.000  O
  O142     1.0000 0.33447  0.05553  0.00513  Biso   1.000  O
  O143     1.0000 0.07257  0.95553  0.99483  Biso   1.000  O
  O144     1.0000 0.06047  0.82533  0.96873  Biso   1.000  O
  O145     1.0000 0.18717  0.03483  0.03903  Biso   1.000  O
  O146     1.0000 0.28167  0.08793  0.14523  Biso   1.000  O
  O147     1.0000 0.01237  0.83683  0.04073  Biso   1.000  O
  O148     1.0000 0.37917  0.95873  0.04123  Biso   1.000  O
  O149     1.0000 0.21107  0.99893  0.96673  Biso   1.000  O
  O150     1.0000 0.22697  0.14023  0.99843  Biso   1.000  O
  O151     1.0000 0.04467  0.10733  0.07853  Biso   1.000  O
  O152     1.0000 0.95667  0.89663  0.94913  Biso   1.000  O
  O153     1.0000 0.16487  0.96173  0.16053  Biso   1.000  O
  N11      1.0000 0.15677  0.82833  0.09063  Biso   1.000  N
  C71      1.0000 0.30307  0.95403  0.08033  Biso   1.000  C
  C72      1.0000 0.23137  0.86913  0.07453  Biso   1.000  C
  H31      1.0000 0.23377  0.83753  0.05913  Biso   1.000  H
  C73      1.0000 0.22587  0.95403  0.11963  Biso   1.000  C
  C74      1.0000 0.15337  0.86673  0.11363  Biso   1.000  C
  H32      1.0000 0.10247  0.83433  0.12543  Biso   1.000  H
  C75      1.0000 0.30077  0.99723  0.10333  Biso   1.000  C
  H33      1.0000 0.35147  0.05753  0.10763  Biso   1.000  H
  C76      1.0000 0.22147  0.00303  0.14343  Biso   1.000  C
  C77      1.0000 0.38647  0.00043  0.06283  Biso   1.000  C
  O154     1.0000 0.45337  0.06873  0.07053  Biso   1.000  O
  W45      1.0000 0.70903  0.14851  0.33987  Biso   1.000  W
  W46      1.0000 0.88571  0.36122  0.33577  Biso   1.000  W
  W47      1.0000 0.80043  0.40832  0.39631  Biso   1.000  W
  W48      1.0000 0.74824  0.26869  0.28552  Biso   1.000  W
  Tm12     1.0000 0.11615  0.34438  0.33535  Biso   1.000  Tm
  O155     1.0000 0.83843  0.22677  0.34507  Biso   1.000  O
  O156     1.0000 0.00113  0.38887  0.33847  Biso   1.000  O
  O157     1.0000 0.73923  0.28887  0.32817  Biso   1.000  O
  O158     1.0000 0.72713  0.15867  0.30207  Biso   1.000  O
  O159     1.0000 0.85383  0.36817  0.37237  Biso   1.000  O
  O160     1.0000 0.94833  0.42127  0.47857  Biso   1.000  O
  O161     1.0000 0.67903  0.17017  0.37407  Biso   1.000  O
  O162     1.0000 0.04583  0.29207  0.37457  Biso   1.000  O
  O163     1.0000 0.87773  0.33227  0.30007  Biso   1.000  O
  O164     1.0000 0.89363  0.47357  0.33177  Biso   1.000  O
  O165     1.0000 0.71133  0.44067  0.41187  Biso   1.000  O
  O166     1.0000 0.62333  0.22997  0.28247  Biso   1.000  O
  O167     1.0000 0.83153  0.29507  0.49387  Biso   1.000  O
  N12      1.0000 0.82343  0.16167  0.42397  Biso   1.000  N
  C78      1.0000 0.96973  0.28737  0.41367  Biso   1.000  C
  C79      1.0000 0.89803  0.20247  0.40787  Biso   1.000  C
  H34      1.0000 0.90043  0.17087  0.39247  Biso   1.000  H
  C80      1.0000 0.89253  0.28737  0.45297  Biso   1.000  C
  C81      1.0000 0.82003  0.20007  0.44697  Biso   1.000  C
  H35      1.0000 0.76913  0.16767  0.45877  Biso   1.000  H
  C82      1.0000 0.96743  0.33057  0.43667  Biso   1.000  C
  H36      1.0000 0.01813  0.39087  0.44097  Biso   1.000  H
  C83      1.0000 0.88813  0.33637  0.47677  Biso   1.000  C
  C84      1.0000 0.05313  0.33377  0.39617  Biso   1.000  C
  O168     1.0000 0.12003  0.40207  0.40387  Biso   1.000  O
  W49      1.0000 0.10614  0.62430  0.67320  Biso   1.000  W
  W50      1.0000 0.14217  0.44762  0.66910  Biso   1.000  W
  W51      1.0000 0.27455  0.53290  0.72964  Biso   1.000  W
  W52      1.0000 0.18711  0.58509  0.61885  Biso   1.000  W
  Tm13     1.0000 0.89489  0.21718  0.66869  Biso   1.000  Tm
  O169     1.0000 0.05500  0.49490  0.67840  Biso   1.000  O
  O170     1.0000 0.05440  0.33220  0.67180  Biso   1.000  O
  O171     1.0000 0.21630  0.59410  0.66150  Biso   1.000  O
  O172     1.0000 0.09820  0.60620  0.63540  Biso   1.000  O
  O173     1.0000 0.18100  0.47950  0.70570  Biso   1.000  O
  O174     1.0000 0.13960  0.38500  0.81190  Biso   1.000  O
  O175     1.0000 0.15780  0.65430  0.70740  Biso   1.000  O
  O176     1.0000 0.91290  0.28750  0.70790  Biso   1.000  O
  O177     1.0000 0.12120  0.45560  0.63340  Biso   1.000  O
  O178     1.0000 0.24660  0.43970  0.66510  Biso   1.000  O
  O179     1.0000 0.39600  0.62200  0.74520  Biso   1.000  O
  O180     1.0000 0.27330  0.71000  0.61580  Biso   1.000  O
  O181     1.0000 0.13020  0.50180  0.82720  Biso   1.000  O
  N13      1.0000 0.00490  0.50990  0.75730  Biso   1.000  N
  C85      1.0000 0.98430  0.36360  0.74700  Biso   1.000  C
  C86      1.0000 0.97110  0.43530  0.74120  Biso   1.000  C
  H37      1.0000 0.93710  0.43290  0.72580  Biso   1.000  H
  C87      1.0000 0.06150  0.44080  0.78630  Biso   1.000  C
  C88      1.0000 0.04670  0.51330  0.78030  Biso   1.000  C
  H38      1.0000 0.06520  0.56420  0.79210  Biso   1.000  H
  C89      1.0000 0.02980  0.36590  0.77000  Biso   1.000  C
  H39      1.0000 0.03940  0.31520  0.77430  Biso   1.000  H
  C90      1.0000 0.11490  0.44520  0.81010  Biso   1.000  C
  C91      1.0000 0.94730  0.28020  0.72950  Biso   1.000  C
  O182     1.0000 0.94870  0.21330  0.73720  Biso   1.000  O
  W53      1.0000 0.77281  0.95763  0.00653  Biso   1.000  W
  W54      1.0000 0.80884  0.78095  0.00243  Biso   1.000  W
  W55      1.0000 0.94122  0.86623  0.06298  Biso   1.000  W
  W56      1.0000 0.85378  0.91842  0.95219  Biso   1.000  W
  Tm14     1.0000 0.56156  0.55051  0.00202  Biso   1.000  Tm
  O183     1.0000 0.72167  0.82823  0.01173  Biso   1.000  O
  O184     1.0000 0.72107  0.66553  0.00513  Biso   1.000  O
  O185     1.0000 0.88297  0.92743  0.99483  Biso   1.000  O
  O186     1.0000 0.76487  0.93953  0.96873  Biso   1.000  O
  O187     1.0000 0.84767  0.81283  0.03903  Biso   1.000  O
  O188     1.0000 0.80627  0.71833  0.14523  Biso   1.000  O
  O189     1.0000 0.82447  0.98763  0.04073  Biso   1.000  O
  O190     1.0000 0.57957  0.62083  0.04123  Biso   1.000  O
  O191     1.0000 0.78787  0.78893  0.96673  Biso   1.000  O
  O192     1.0000 0.91327  0.77303  0.99843  Biso   1.000  O
  O193     1.0000 0.06267  0.95533  0.07853  Biso   1.000  O
  O194     1.0000 0.93997  0.04333  0.94913  Biso   1.000  O
  O195     1.0000 0.79687  0.83513  0.16053  Biso   1.000  O
  N14      1.0000 0.67157  0.84323  0.09063  Biso   1.000  N
  C92      1.0000 0.65097  0.69693  0.08033  Biso   1.000  C
  C93      1.0000 0.63777  0.76863  0.07453  Biso   1.000  C
  H40      1.0000 0.60377  0.76623  0.05913  Biso   1.000  H
  C94      1.0000 0.72817  0.77413  0.11963  Biso   1.000  C
  C95      1.0000 0.71337  0.84663  0.11363  Biso   1.000  C
  H41      1.0000 0.73187  0.89753  0.12543  Biso   1.000  H
  C96      1.0000 0.69647  0.69923  0.10333  Biso   1.000  C
  H42      1.0000 0.70607  0.64853  0.10763  Biso   1.000  H
  C97      1.0000 0.78157  0.77853  0.14343  Biso   1.000  C
  C98      1.0000 0.61397  0.61353  0.06283  Biso   1.000  C
  O196     1.0000 0.61537  0.54663  0.07053  Biso   1.000  O
  W57      1.0000 0.43947  0.29097  0.33987  Biso   1.000  W
  W58      1.0000 0.47550  0.11429  0.33577  Biso   1.000  W
  W59      1.0000 0.60788  0.19957  0.39631  Biso   1.000  W
  W60      1.0000 0.52044  0.25176  0.28552  Biso   1.000  W
  Tm15     1.0000 0.22822  0.88385  0.33535  Biso   1.000  Tm
  O197     1.0000 0.38833  0.16157  0.34507  Biso   1.000  O
  O198     1.0000 0.38773  0.99887  0.33847  Biso   1.000  O
  O199     1.0000 0.54963  0.26077  0.32817  Biso   1.000  O
  O200     1.0000 0.43153  0.27287  0.30207  Biso   1.000  O
  O201     1.0000 0.51433  0.14617  0.37237  Biso   1.000  O
  O202     1.0000 0.47293  0.05167  0.47857  Biso   1.000  O
  O203     1.0000 0.49113  0.32097  0.37407  Biso   1.000  O
  O204     1.0000 0.24623  0.95417  0.37457  Biso   1.000  O
  O205     1.0000 0.45453  0.12227  0.30007  Biso   1.000  O
  O206     1.0000 0.57993  0.10637  0.33177  Biso   1.000  O
  O207     1.0000 0.72933  0.28867  0.41187  Biso   1.000  O
  O208     1.0000 0.60663  0.37667  0.28247  Biso   1.000  O
  O209     1.0000 0.46353  0.16847  0.49387  Biso   1.000  O
  N15      1.0000 0.33823  0.17657  0.42397  Biso   1.000  N
  C99      1.0000 0.31763  0.03027  0.41367  Biso   1.000  C
  C100     1.0000 0.30443  0.10197  0.40787  Biso   1.000  C
  H43      1.0000 0.27043  0.09957  0.39247  Biso   1.000  H
  C101     1.0000 0.39483  0.10747  0.45297  Biso   1.000  C
  C102     1.0000 0.38003  0.17997  0.44697  Biso   1.000  C
  H44      1.0000 0.39853  0.23087  0.45877  Biso   1.000  H
  C103     1.0000 0.36313  0.03257  0.43667  Biso   1.000  C
  H45      1.0000 0.37273  0.98187  0.44097  Biso   1.000  H
  C104     1.0000 0.44823  0.11187  0.47677  Biso   1.000  C
  C105     1.0000 0.28063  0.94687  0.39617  Biso   1.000  C
  O210     1.0000 0.28203  0.87997  0.40387  Biso   1.000  O
  W61      1.0000 0.51816  0.89386  0.67320  Biso   1.000  W
  W62      1.0000 0.30545  0.85783  0.66910  Biso   1.000  W
  W63      1.0000 0.25835  0.72545  0.72964  Biso   1.000  W
  W64      1.0000 0.39798  0.81289  0.61885  Biso   1.000  W
  Tm16     1.0000 0.32229  0.10511  0.66869  Biso   1.000  Tm
  O211     1.0000 0.43990  0.94500  0.67840  Biso   1.000  O
  O212     1.0000 0.27780  0.94560  0.67180  Biso   1.000  O
  O213     1.0000 0.37780  0.78370  0.66150  Biso   1.000  O
  O214     1.0000 0.50800  0.90180  0.63540  Biso   1.000  O
  O215     1.0000 0.29850  0.81900  0.70570  Biso   1.000  O
  O216     1.0000 0.24540  0.86040  0.81190  Biso   1.000  O
  O217     1.0000 0.49650  0.84220  0.70740  Biso   1.000  O
  O218     1.0000 0.37460  0.08710  0.70790  Biso   1.000  O
  O219     1.0000 0.33440  0.87880  0.63340  Biso   1.000  O
  O220     1.0000 0.19310  0.75340  0.66510  Biso   1.000  O
  O221     1.0000 0.22600  0.60400  0.74520  Biso   1.000  O
  O222     1.0000 0.43670  0.72670  0.61580  Biso   1.000  O
  O223     1.0000 0.37160  0.86980  0.82720  Biso   1.000  O
  N16      1.0000 0.50500  0.99510  0.75730  Biso   1.000  N
  C106     1.0000 0.37930  0.01570  0.74700  Biso   1.000  C
  C107     1.0000 0.46420  0.02890  0.74120  Biso   1.000  C
  H46      1.0000 0.49580  0.06290  0.72580  Biso   1.000  H
  C108     1.0000 0.37930  0.93850  0.78630  Biso   1.000  C
  C109     1.0000 0.46660  0.95330  0.78030  Biso   1.000  C
  H47      1.0000 0.49900  0.93480  0.79210  Biso   1.000  H
  C110     1.0000 0.33610  0.97020  0.77000  Biso   1.000  C
  H48      1.0000 0.27580  0.96060  0.77430  Biso   1.000  H
  C111     1.0000 0.33030  0.88510  0.81010  Biso   1.000  C
  C112     1.0000 0.33290  0.05270  0.72950  Biso   1.000  C
  O224     1.0000 0.26460  0.05130  0.73720  Biso   1.000  O
  W65      1.0000 0.18483  0.22719  0.00653  Biso   1.000  W
  W66      1.0000 0.97212  0.19116  0.00243  Biso   1.000  W
  W67      1.0000 0.92502  0.05878  0.06298  Biso   1.000  W
  W68      1.0000 0.06465  0.14622  0.95219  Biso   1.000  W
  Tm17     1.0000 0.98896  0.43844  0.00202  Biso   1.000  Tm
  O225     1.0000 0.10657  0.27833  0.01173  Biso   1.000  O
  O226     1.0000 0.94447  0.27893  0.00513  Biso   1.000  O
  O227     1.0000 0.04447  0.11703  0.99483  Biso   1.000  O
  O228     1.0000 0.17467  0.23513  0.96873  Biso   1.000  O
  O229     1.0000 0.96517  0.15233  0.03903  Biso   1.000  O
  O230     1.0000 0.91207  0.19373  0.14523  Biso   1.000  O
  O231     1.0000 0.16317  0.17553  0.04073  Biso   1.000  O
  O232     1.0000 0.04127  0.42043  0.04123  Biso   1.000  O
  O233     1.0000 0.00107  0.21213  0.96673  Biso   1.000  O
  O234     1.0000 0.85977  0.08673  0.99843  Biso   1.000  O
  O235     1.0000 0.89267  0.93733  0.07853  Biso   1.000  O
  O236     1.0000 0.10337  0.06003  0.94913  Biso   1.000  O
  O237     1.0000 0.03827  0.20313  0.16053  Biso   1.000  O
  N17      1.0000 0.17167  0.32843  0.09063  Biso   1.000  N
  C113     1.0000 0.04597  0.34903  0.08033  Biso   1.000  C
  C114     1.0000 0.13087  0.36223  0.07453  Biso   1.000  C
  H49      1.0000 0.16247  0.39623  0.05913  Biso   1.000  H
  C115     1.0000 0.04597  0.27183  0.11963  Biso   1.000  C
  C116     1.0000 0.13327  0.28663  0.11363  Biso   1.000  C
  H50      1.0000 0.16567  0.26813  0.12543  Biso   1.000  H
  C117     1.0000 0.00277  0.30353  0.10333  Biso   1.000  C
  H51      1.0000 0.94247  0.29393  0.10763  Biso   1.000  H
  C118     1.0000 0.99697  0.21843  0.14343  Biso   1.000  C
  C119     1.0000 0.99957  0.38603  0.06283  Biso   1.000  C
  O238     1.0000 0.93127  0.38463  0.07053  Biso   1.000  O
  W69      1.0000 0.85149  0.56053  0.33987  Biso   1.000  W
  W70      1.0000 0.63878  0.52450  0.33577  Biso   1.000  W
  W71      1.0000 0.59168  0.39212  0.39631  Biso   1.000  W
  W72      1.0000 0.73131  0.47956  0.28552  Biso   1.000  W
  Tm18     1.0000 0.65562  0.77178  0.33535  Biso   1.000  Tm
  O239     1.0000 0.77323  0.61167  0.34507  Biso   1.000  O
  O240     1.0000 0.61113  0.61227  0.33847  Biso   1.000  O
  O241     1.0000 0.71113  0.45037  0.32817  Biso   1.000  O
  O242     1.0000 0.84133  0.56847  0.30207  Biso   1.000  O
  O243     1.0000 0.63183  0.48567  0.37237  Biso   1.000  O
  O244     1.0000 0.57873  0.52707  0.47857  Biso   1.000  O
  O245     1.0000 0.82983  0.50887  0.37407  Biso   1.000  O
  O246     1.0000 0.70793  0.75377  0.37457  Biso   1.000  O
  O247     1.0000 0.66773  0.54547  0.30007  Biso   1.000  O
  O248     1.0000 0.52643  0.42007  0.33177  Biso   1.000  O
  O249     1.0000 0.55933  0.27067  0.41187  Biso   1.000  O
  O250     1.0000 0.77003  0.39337  0.28247  Biso   1.000  O
  O251     1.0000 0.70493  0.53647  0.49387  Biso   1.000  O
  N18      1.0000 0.83833  0.66177  0.42397  Biso   1.000  N
  C120     1.0000 0.71263  0.68237  0.41367  Biso   1.000  C
  C121     1.0000 0.79753  0.69557  0.40787  Biso   1.000  C
  H52      1.0000 0.82913  0.72957  0.39247  Biso   1.000  H
  C122     1.0000 0.71263  0.60517  0.45297  Biso   1.000  C
  C123     1.0000 0.79993  0.61997  0.44697  Biso   1.000  C
  H53      1.0000 0.83233  0.60147  0.45877  Biso   1.000  H
  C124     1.0000 0.66943  0.63687  0.43667  Biso   1.000  C
  H54      1.0000 0.60913  0.62727  0.44097  Biso   1.000  H
  C125     1.0000 0.66363  0.55177  0.47677  Biso   1.000  C
  C126     1.0000 0.66623  0.71937  0.39617  Biso   1.000  C
  O252     1.0000 0.59793  0.71797  0.40387  Biso   1.000  O
  O253     1.0000 0.33333  0.66667  0.20680  Biso   1.000  O
  O254     1.0000 0.00000  0.00000  0.54013  Biso   1.000  O
  O255     1.0000 0.66667  0.33333  0.87347  Biso   1.000  O
  O256     1.0000 0.33333  0.66667  0.70680  Biso   1.000  O
  O257     1.0000 0.00000  0.00000  0.04013  Biso   1.000  O
  O258     1.0000 0.66667  0.33333  0.37347  Biso   1.000  O
