data_image0
_cell_length_a       15.873
_cell_length_b       16.9061
_cell_length_c       22.8297
_cell_angle_alpha    90
_cell_angle_beta     90
_cell_angle_gamma    90

_symmetry_space_group_name_H-M    "P 1"
_symmetry_int_tables_number       1

loop_
  _symmetry_equiv_pos_as_xyz
  'x, y, z'

loop_
  _atom_site_label
  _atom_site_occupancy
  _atom_site_fract_x
  _atom_site_fract_y
  _atom_site_fract_z
  _atom_site_thermal_displace_type
  _atom_site_B_iso_or_equiv
  _atom_site_type_symbol
  Ag1      1.0000 0.31211  0.79303  0.80175  Biso   1.000  Ag
  Ag2      1.0000 0.60041  0.80381  0.81186  Biso   1.000  Ag
  Ag3      1.0000 0.88722  0.84802  0.82244  Biso   1.000  Ag
  Cu1      1.0000 0.04281  0.88170  0.49996  Biso   1.000  Cu
  Cu2      1.0000 0.37574  0.87844  0.48875  Biso   1.000  Cu
  C1       1.0000 0.98470  0.76220  0.57148  Biso   1.000  C
  C2       1.0000 0.07380  0.77520  0.59604  Biso   1.000  C
  H1       1.0000 0.10600  0.72660  0.58920  Biso   1.000  H
  C3       1.0000 0.07370  0.79100  0.66174  Biso   1.000  C
  H2       1.0000 0.03720  0.75300  0.68100  Biso   1.000  H
  H3       1.0000 0.05150  0.84350  0.66920  Biso   1.000  H
  C4       1.0000 0.16250  0.78470  0.68726  Biso   1.000  C
  H4       1.0000 0.20180  0.81050  0.66090  Biso   1.000  H
  H5       1.0000 0.17820  0.72930  0.68980  Biso   1.000  H
  C5       1.0000 0.17460  0.93230  0.74040  Biso   1.000  C
  H6       1.0000 0.17950  0.96330  0.77550  Biso   1.000  H
  H7       1.0000 0.12380  0.94650  0.72010  Biso   1.000  H
  H8       1.0000 0.22220  0.94220  0.71560  Biso   1.000  H
  C6       1.0000 0.32310  0.75560  0.55869  Biso   1.000  C
  C7       1.0000 0.40690  0.77770  0.58855  Biso   1.000  C
  H9       1.0000 0.44340  0.73100  0.58850  Biso   1.000  H
  C8       1.0000 0.39080  0.80180  0.65241  Biso   1.000  C
  H10      1.0000 0.36880  0.85530  0.65350  Biso   1.000  H
  H11      1.0000 0.34880  0.76700  0.66930  Biso   1.000  H
  C9       1.0000 0.47100  0.79760  0.68850  Biso   1.000  C
  H12      1.0000 0.51470  0.82750  0.66860  Biso   1.000  H
  H13      1.0000 0.48930  0.74300  0.69050  Biso   1.000  H
  C10      1.0000 0.45600  0.94090  0.75060  Biso   1.000  C
  H14      1.0000 0.45010  0.96760  0.78750  Biso   1.000  H
  H15      1.0000 0.40870  0.95330  0.72610  Biso   1.000  H
  H16      1.0000 0.50700  0.95790  0.73180  Biso   1.000  H
  C11      1.0000 0.64930  0.75430  0.56152  Biso   1.000  C
  C12      1.0000 0.72880  0.77360  0.59654  Biso   1.000  C
  H17      1.0000 0.76370  0.72600  0.59970  Biso   1.000  H
  C13      1.0000 0.70140  0.79960  0.65801  Biso   1.000  C
  H18      1.0000 0.67560  0.85160  0.65560  Biso   1.000  H
  H19      1.0000 0.65930  0.76300  0.67260  Biso   1.000  H
  C14      1.0000 0.77410  0.80270  0.70048  Biso   1.000  C
  H20      1.0000 0.81980  0.83250  0.68290  Biso   1.000  H
  H21      1.0000 0.79410  0.74930  0.70750  Biso   1.000  H
  C15      1.0000 0.73230  0.94900  0.74790  Biso   1.000  C
  H22      1.0000 0.71670  0.98010  0.78140  Biso   1.000  H
  H23      1.0000 0.68860  0.95200  0.71890  Biso   1.000  H
  H24      1.0000 0.78400  0.96890  0.73180  Biso   1.000  H
  C16      1.0000 0.51330  0.00830  0.92067  Biso   1.000  C
  C17      1.0000 0.44350  0.96500  0.95364  Biso   1.000  C
  C18      1.0000 0.40100  0.90120  0.91728  Biso   1.000  C
  H25      1.0000 0.44320  0.86420  0.90340  Biso   1.000  H
  H26      1.0000 0.37470  0.92530  0.88330  Biso   1.000  H
  C19      1.0000 0.33450  0.85640  0.95232  Biso   1.000  C
  H27      1.0000 0.29070  0.89320  0.96400  Biso   1.000  H
  H28      1.0000 0.36030  0.83590  0.98770  Biso   1.000  H
  C20      1.0000 0.35870  0.69670  0.93040  Biso   1.000  C
  H29      1.0000 0.34040  0.64860  0.91190  Biso   1.000  H
  H30      1.0000 0.36030  0.68930  0.97210  Biso   1.000  H
  H31      1.0000 0.41400  0.71020  0.91660  Biso   1.000  H
  C21      1.0000 0.83630  0.01070  0.91704  Biso   1.000  C
  C22      1.0000 0.77050  0.96720  0.95439  Biso   1.000  C
  H32      1.0000 0.80110  0.94180  0.98650  Biso   1.000  H
  C23      1.0000 0.72490  0.90170  0.92125  Biso   1.000  C
  H33      1.0000 0.69540  0.92470  0.88820  Biso   1.000  H
  H34      1.0000 0.76630  0.86480  0.90600  Biso   1.000  H
  C24      1.0000 0.66200  0.85650  0.95889  Biso   1.000  C
  H35      1.0000 0.61980  0.89320  0.97310  Biso   1.000  H
  H36      1.0000 0.69140  0.83520  0.99270  Biso   1.000  H
  C25      1.0000 0.69040  0.70190  0.92400  Biso   1.000  C
  H37      1.0000 0.67070  0.65460  0.90530  Biso   1.000  H
  H38      1.0000 0.70420  0.69060  0.96410  Biso   1.000  H
  H39      1.0000 0.73970  0.72100  0.90410  Biso   1.000  H
  C26      1.0000 0.31610  0.98670  0.40960  Biso   1.000  C
  C27      1.0000 0.38990  0.02920  0.43950  Biso   1.000  C
  C28      1.0000 0.43220  0.09290  0.40330  Biso   1.000  C
  H40      1.0000 0.38950  0.12480  0.38410  Biso   1.000  H
  H41      1.0000 0.46660  0.06850  0.37320  Biso   1.000  H
  C29      1.0000 0.48690  0.14560  0.44160  Biso   1.000  C
  H42      1.0000 0.52600  0.11210  0.46280  Biso   1.000  H
  H43      1.0000 0.45090  0.17100  0.47030  Biso   1.000  H
  C30      1.0000 0.46620  0.28720  0.37680  Biso   1.000  C
  H44      1.0000 0.49190  0.33030  0.35600  Biso   1.000  H
  H45      1.0000 0.43390  0.30760  0.40900  Biso   1.000  H
  H46      1.0000 0.42980  0.25850  0.35080  Biso   1.000  H
  N1       1.0000 0.11620  0.83990  0.56366  Biso   1.000  N
  H47      1.0000 0.16460  0.82170  0.54810  Biso   1.000  H
  H48      1.0000 0.12900  0.87930  0.58860  Biso   1.000  H
  N2       1.0000 0.44900  0.84110  0.55473  Biso   1.000  N
  H49      1.0000 0.49800  0.82270  0.54020  Biso   1.000  H
  H50      1.0000 0.46080  0.88200  0.57860  Biso   1.000  H
  N3       1.0000 0.77720  0.83640  0.56662  Biso   1.000  N
  H51      1.0000 0.82690  0.81670  0.55440  Biso   1.000  H
  H52      1.0000 0.78790  0.87590  0.59200  Biso   1.000  H
  N4       1.0000 0.38600  0.02490  0.97934  Biso   1.000  N
  N5       1.0000 0.71533  0.02720  0.98101  Biso   1.000  N
  H53      1.0000 0.69240  0.00850  0.01430  Biso   1.000  H
  H54      1.0000 0.67350  0.04020  0.95620  Biso   1.000  H
  N6       1.0000 0.44800  0.96730  0.46170  Biso   1.000  N
  O1       1.0000 0.96079  0.80643  0.52979  Biso   1.000  O
  O2       1.0000 0.94058  0.70830  0.59144  Biso   1.000  O
  O3       1.0000 0.29707  0.79806  0.51657  Biso   1.000  O
  O4       1.0000 0.28373  0.69723  0.57678  Biso   1.000  O
  O5       1.0000 0.62838  0.80133  0.52035  Biso   1.000  O
  O6       1.0000 0.60698  0.69553  0.57534  Biso   1.000  O
  O7       1.0000 0.54801  0.97710  0.87851  Biso   1.000  O
  O8       1.0000 0.53477  0.07559  0.94149  Biso   1.000  O
  O9       1.0000 0.85756  0.07948  0.93515  Biso   1.000  O
  O10      1.0000 0.86696  0.98000  0.87331  Biso   1.000  O
  O11      1.0000 0.27380  0.02140  0.37276  Biso   1.000  O
  O12      1.0000 0.29883  0.91758  0.42833  Biso   1.000  O
  S1       1.0000 0.17124  0.82909  0.75914  Biso   1.000  S
  S2       1.0000 0.46011  0.83552  0.76276  Biso   1.000  S
  S3       1.0000 0.74652  0.84769  0.76985  Biso   1.000  S
  S4       1.0000 0.28654  0.77514  0.91285  Biso   1.000  S
  S5       1.0000 0.60927  0.77619  0.92145  Biso   1.000  S
  S6       1.0000 0.54716  0.22180  0.40428  Biso   1.000  S
  H55      1.0000 0.34600  0.04100  0.94780  Biso   1.000  H
  H56      1.0000 0.36400  0.00700  0.00800  Biso   1.000  H
  H57      1.0000 0.47600  0.98200  0.48600  Biso   1.000  H
  H58      1.0000 0.48000  0.94600  0.42800  Biso   1.000  H
  H59      1.0000 0.47400  0.94300  0.98800  Biso   1.000  H
  H60      1.0000 0.36700  0.05400  0.47300  Biso   1.000  H
  Ag4      1.0000 0.18789  0.20697  0.30175  Biso   1.000  Ag
  Ag5      1.0000 0.89959  0.19619  0.31186  Biso   1.000  Ag
  Ag6      1.0000 0.61278  0.15198  0.32244  Biso   1.000  Ag
  Cu3      1.0000 0.45719  0.11830  0.99996  Biso   1.000  Cu
  Cu4      1.0000 0.12426  0.12156  0.98875  Biso   1.000  Cu
  C31      1.0000 0.51530  0.23780  0.07148  Biso   1.000  C
  C32      1.0000 0.42620  0.22480  0.09604  Biso   1.000  C
  H61      1.0000 0.39400  0.27340  0.08920  Biso   1.000  H
  C33      1.0000 0.42630  0.20900  0.16174  Biso   1.000  C
  H62      1.0000 0.46280  0.24700  0.18100  Biso   1.000  H
  H63      1.0000 0.44850  0.15650  0.16920  Biso   1.000  H
  C34      1.0000 0.33750  0.21530  0.18726  Biso   1.000  C
  H64      1.0000 0.29820  0.18950  0.16090  Biso   1.000  H
  H65      1.0000 0.32180  0.27070  0.18980  Biso   1.000  H
  C35      1.0000 0.32540  0.06770  0.24040  Biso   1.000  C
  H66      1.0000 0.32050  0.03670  0.27550  Biso   1.000  H
  H67      1.0000 0.37620  0.05350  0.22010  Biso   1.000  H
  H68      1.0000 0.27780  0.05780  0.21560  Biso   1.000  H
  C36      1.0000 0.17690  0.24440  0.05869  Biso   1.000  C
  C37      1.0000 0.09310  0.22230  0.08855  Biso   1.000  C
  H69      1.0000 0.05660  0.26900  0.08850  Biso   1.000  H
  C38      1.0000 0.10920  0.19820  0.15241  Biso   1.000  C
  H70      1.0000 0.13120  0.14470  0.15350  Biso   1.000  H
  H71      1.0000 0.15120  0.23300  0.16930  Biso   1.000  H
  C39      1.0000 0.02900  0.20240  0.18850  Biso   1.000  C
  H72      1.0000 0.98530  0.17250  0.16860  Biso   1.000  H
  H73      1.0000 0.01070  0.25700  0.19050  Biso   1.000  H
  C40      1.0000 0.04400  0.05910  0.25060  Biso   1.000  C
  H74      1.0000 0.04990  0.03240  0.28750  Biso   1.000  H
  H75      1.0000 0.09130  0.04670  0.22610  Biso   1.000  H
  H76      1.0000 0.99300  0.04210  0.23180  Biso   1.000  H
  C41      1.0000 0.85070  0.24570  0.06152  Biso   1.000  C
  C42      1.0000 0.77120  0.22640  0.09654  Biso   1.000  C
  H77      1.0000 0.73630  0.27400  0.09970  Biso   1.000  H
  C43      1.0000 0.79860  0.20040  0.15801  Biso   1.000  C
  H78      1.0000 0.82440  0.14840  0.15560  Biso   1.000  H
  H79      1.0000 0.84070  0.23700  0.17260  Biso   1.000  H
  C44      1.0000 0.72590  0.19730  0.20048  Biso   1.000  C
  H80      1.0000 0.68020  0.16750  0.18290  Biso   1.000  H
  H81      1.0000 0.70590  0.25070  0.20750  Biso   1.000  H
  C45      1.0000 0.76770  0.05100  0.24790  Biso   1.000  C
  H82      1.0000 0.78330  0.01990  0.28140  Biso   1.000  H
  H83      1.0000 0.81140  0.04800  0.21890  Biso   1.000  H
  H84      1.0000 0.71600  0.03110  0.23180  Biso   1.000  H
  C46      1.0000 0.98670  0.99170  0.42067  Biso   1.000  C
  C47      1.0000 0.05650  0.03500  0.45364  Biso   1.000  C
  C48      1.0000 0.09900  0.09880  0.41728  Biso   1.000  C
  H85      1.0000 0.05680  0.13580  0.40340  Biso   1.000  H
  H86      1.0000 0.12530  0.07470  0.38330  Biso   1.000  H
  C49      1.0000 0.16550  0.14360  0.45232  Biso   1.000  C
  H87      1.0000 0.20930  0.10680  0.46400  Biso   1.000  H
  H88      1.0000 0.13970  0.16410  0.48770  Biso   1.000  H
  C50      1.0000 0.14130  0.30330  0.43040  Biso   1.000  C
  H89      1.0000 0.15960  0.35140  0.41190  Biso   1.000  H
  H90      1.0000 0.13970  0.31070  0.47210  Biso   1.000  H
  H91      1.0000 0.08600  0.28980  0.41660  Biso   1.000  H
  C51      1.0000 0.66370  0.98930  0.41704  Biso   1.000  C
  C52      1.0000 0.72950  0.03280  0.45439  Biso   1.000  C
  H92      1.0000 0.69890  0.05820  0.48650  Biso   1.000  H
  C53      1.0000 0.77510  0.09830  0.42125  Biso   1.000  C
  H93      1.0000 0.80460  0.07530  0.38820  Biso   1.000  H
  H94      1.0000 0.73370  0.13520  0.40600  Biso   1.000  H
  C54      1.0000 0.83800  0.14350  0.45889  Biso   1.000  C
  H95      1.0000 0.88020  0.10680  0.47310  Biso   1.000  H
  H96      1.0000 0.80860  0.16480  0.49270  Biso   1.000  H
  C55      1.0000 0.80960  0.29810  0.42400  Biso   1.000  C
  H97      1.0000 0.82930  0.34540  0.40530  Biso   1.000  H
  H98      1.0000 0.79580  0.30940  0.46410  Biso   1.000  H
  H99      1.0000 0.76030  0.27900  0.40410  Biso   1.000  H
  C56      1.0000 0.18390  0.01330  0.90960  Biso   1.000  C
  C57      1.0000 0.11010  0.97080  0.93950  Biso   1.000  C
  C58      1.0000 0.06780  0.90710  0.90330  Biso   1.000  C
  H100     1.0000 0.11050  0.87520  0.88410  Biso   1.000  H
  H101     1.0000 0.03340  0.93150  0.87320  Biso   1.000  H
  C59      1.0000 0.01310  0.85440  0.94160  Biso   1.000  C
  H102     1.0000 0.97400  0.88790  0.96280  Biso   1.000  H
  H103     1.0000 0.04910  0.82900  0.97030  Biso   1.000  H
  C60      1.0000 0.03380  0.71280  0.87680  Biso   1.000  C
  H104     1.0000 0.00810  0.66970  0.85600  Biso   1.000  H
  H105     1.0000 0.06610  0.69240  0.90900  Biso   1.000  H
  H106     1.0000 0.07020  0.74150  0.85080  Biso   1.000  H
  N7       1.0000 0.38380  0.16010  0.06366  Biso   1.000  N
  H107     1.0000 0.33540  0.17830  0.04810  Biso   1.000  H
  H108     1.0000 0.37100  0.12070  0.08860  Biso   1.000  H
  N8       1.0000 0.05100  0.15890  0.05473  Biso   1.000  N
  H109     1.0000 0.00200  0.17730  0.04020  Biso   1.000  H
  H110     1.0000 0.03920  0.11800  0.07860  Biso   1.000  H
  N9       1.0000 0.72280  0.16360  0.06662  Biso   1.000  N
  H111     1.0000 0.67310  0.18330  0.05440  Biso   1.000  H
  H112     1.0000 0.71210  0.12410  0.09200  Biso   1.000  H
  N10      1.0000 0.11400  0.97510  0.47934  Biso   1.000  N
  N11      1.0000 0.78467  0.97280  0.48101  Biso   1.000  N
  H113     1.0000 0.80760  0.99150  0.51430  Biso   1.000  H
  H114     1.0000 0.82650  0.95980  0.45620  Biso   1.000  H
  N12      1.0000 0.05200  0.03270  0.96170  Biso   1.000  N
  O13      1.0000 0.53921  0.19357  0.02979  Biso   1.000  O
  O14      1.0000 0.55942  0.29170  0.09144  Biso   1.000  O
  O15      1.0000 0.20293  0.20194  0.01657  Biso   1.000  O
  O16      1.0000 0.21627  0.30277  0.07678  Biso   1.000  O
  O17      1.0000 0.87162  0.19867  0.02035  Biso   1.000  O
  O18      1.0000 0.89302  0.30447  0.07534  Biso   1.000  O
  O19      1.0000 0.95199  0.02290  0.37851  Biso   1.000  O
  O20      1.0000 0.96523  0.92441  0.44149  Biso   1.000  O
  O21      1.0000 0.64244  0.92052  0.43515  Biso   1.000  O
  O22      1.0000 0.63304  0.02000  0.37331  Biso   1.000  O
  O23      1.0000 0.22620  0.97860  0.87276  Biso   1.000  O
  O24      1.0000 0.20117  0.08242  0.92833  Biso   1.000  O
  S7       1.0000 0.32876  0.17091  0.25914  Biso   1.000  S
  S8       1.0000 0.03989  0.16448  0.26276  Biso   1.000  S
  S9       1.0000 0.75348  0.15231  0.26985  Biso   1.000  S
  S10      1.0000 0.21346  0.22486  0.41285  Biso   1.000  S
  S11      1.0000 0.89073  0.22381  0.42145  Biso   1.000  S
  S12      1.0000 0.95284  0.77820  0.90428  Biso   1.000  S
  H115     1.0000 0.15400  0.95900  0.44780  Biso   1.000  H
  H116     1.0000 0.13600  0.99300  0.50800  Biso   1.000  H
  H117     1.0000 0.02400  0.01800  0.98600  Biso   1.000  H
  H118     1.0000 0.02000  0.05400  0.92800  Biso   1.000  H
  H119     1.0000 0.02600  0.05700  0.48800  Biso   1.000  H
  H120     1.0000 0.13300  0.94600  0.97300  Biso   1.000  H
  Cu5      1.0000 0.78698  0.12133  0.99792  Biso   1.000  Cu
  Cu6      1.0000 0.71302  0.87867  0.49792  Biso   1.000  Cu
  Cu7      1.0000 0.21302  0.62133  0.50208  Biso   1.000  Cu
  Cu8      1.0000 0.28698  0.37867  0.00208  Biso   1.000  Cu
  Ag7      1.0000 0.68789  0.29303  0.69825  Biso   1.000  Ag
  Ag8      1.0000 0.39959  0.30381  0.68814  Biso   1.000  Ag
  Ag9      1.0000 0.11278  0.34802  0.67756  Biso   1.000  Ag
  Cu9      1.0000 0.95719  0.38170  0.00004  Biso   1.000  Cu
  Cu10     1.0000 0.62426  0.37844  0.01125  Biso   1.000  Cu
  C61      1.0000 0.01530  0.26220  0.92852  Biso   1.000  C
  C62      1.0000 0.92620  0.27520  0.90396  Biso   1.000  C
  H121     1.0000 0.89400  0.22660  0.91080  Biso   1.000  H
  C63      1.0000 0.92630  0.29100  0.83826  Biso   1.000  C
  H122     1.0000 0.96280  0.25300  0.81900  Biso   1.000  H
  H123     1.0000 0.94850  0.34350  0.83080  Biso   1.000  H
  C64      1.0000 0.83750  0.28470  0.81274  Biso   1.000  C
  H124     1.0000 0.79820  0.31050  0.83910  Biso   1.000  H
  H125     1.0000 0.82180  0.22930  0.81020  Biso   1.000  H
  C65      1.0000 0.82540  0.43230  0.75960  Biso   1.000  C
  H126     1.0000 0.82050  0.46330  0.72450  Biso   1.000  H
  H127     1.0000 0.87620  0.44650  0.77990  Biso   1.000  H
  H128     1.0000 0.77780  0.44220  0.78440  Biso   1.000  H
  C66      1.0000 0.67690  0.25560  0.94131  Biso   1.000  C
  C67      1.0000 0.59310  0.27770  0.91145  Biso   1.000  C
  H129     1.0000 0.55660  0.23100  0.91150  Biso   1.000  H
  C68      1.0000 0.60920  0.30180  0.84759  Biso   1.000  C
  H130     1.0000 0.63120  0.35530  0.84650  Biso   1.000  H
  H131     1.0000 0.65120  0.26700  0.83070  Biso   1.000  H
  C69      1.0000 0.52900  0.29760  0.81150  Biso   1.000  C
  H132     1.0000 0.48530  0.32750  0.83140  Biso   1.000  H
  H133     1.0000 0.51070  0.24300  0.80950  Biso   1.000  H
  C70      1.0000 0.54400  0.44090  0.74940  Biso   1.000  C
  H134     1.0000 0.54990  0.46760  0.71250  Biso   1.000  H
  H135     1.0000 0.59130  0.45330  0.77390  Biso   1.000  H
  H136     1.0000 0.49300  0.45790  0.76820  Biso   1.000  H
  C71      1.0000 0.35070  0.25430  0.93848  Biso   1.000  C
  C72      1.0000 0.27120  0.27360  0.90346  Biso   1.000  C
  H137     1.0000 0.23630  0.22600  0.90030  Biso   1.000  H
  C73      1.0000 0.29860  0.29960  0.84199  Biso   1.000  C
  H138     1.0000 0.32440  0.35160  0.84440  Biso   1.000  H
  H139     1.0000 0.34070  0.26300  0.82740  Biso   1.000  H
  C74      1.0000 0.22590  0.30270  0.79952  Biso   1.000  C
  H140     1.0000 0.18020  0.33250  0.81710  Biso   1.000  H
  H141     1.0000 0.20590  0.24930  0.79250  Biso   1.000  H
  C75      1.0000 0.26770  0.44900  0.75210  Biso   1.000  C
  H142     1.0000 0.28330  0.48010  0.71860  Biso   1.000  H
  H143     1.0000 0.31140  0.45200  0.78110  Biso   1.000  H
  H144     1.0000 0.21600  0.46890  0.76820  Biso   1.000  H
  C76      1.0000 0.48670  0.50830  0.57933  Biso   1.000  C
  C77      1.0000 0.55650  0.46500  0.54636  Biso   1.000  C
  C78      1.0000 0.59900  0.40120  0.58272  Biso   1.000  C
  H145     1.0000 0.55680  0.36420  0.59660  Biso   1.000  H
  H146     1.0000 0.62530  0.42530  0.61670  Biso   1.000  H
  C79      1.0000 0.66550  0.35640  0.54768  Biso   1.000  C
  H147     1.0000 0.70930  0.39320  0.53600  Biso   1.000  H
  H148     1.0000 0.63970  0.33590  0.51230  Biso   1.000  H
  C80      1.0000 0.64130  0.19670  0.56960  Biso   1.000  C
  H149     1.0000 0.65960  0.14860  0.58810  Biso   1.000  H
  H150     1.0000 0.63970  0.18930  0.52790  Biso   1.000  H
  H151     1.0000 0.58600  0.21020  0.58340  Biso   1.000  H
  C81      1.0000 0.16370  0.51070  0.58296  Biso   1.000  C
  C82      1.0000 0.22950  0.46720  0.54561  Biso   1.000  C
  H152     1.0000 0.19890  0.44180  0.51350  Biso   1.000  H
  C83      1.0000 0.27510  0.40170  0.57875  Biso   1.000  C
  H153     1.0000 0.30460  0.42470  0.61180  Biso   1.000  H
  H154     1.0000 0.23370  0.36480  0.59400  Biso   1.000  H
  C84      1.0000 0.33800  0.35650  0.54111  Biso   1.000  C
  H155     1.0000 0.38020  0.39320  0.52690  Biso   1.000  H
  H156     1.0000 0.30860  0.33520  0.50730  Biso   1.000  H
  C85      1.0000 0.30960  0.20190  0.57600  Biso   1.000  C
  H157     1.0000 0.32930  0.15460  0.59470  Biso   1.000  H
  H158     1.0000 0.29580  0.19060  0.53590  Biso   1.000  H
  H159     1.0000 0.26030  0.22100  0.59590  Biso   1.000  H
  C86      1.0000 0.68390  0.48670  0.09040  Biso   1.000  C
  C87      1.0000 0.61010  0.52920  0.06050  Biso   1.000  C
  C88      1.0000 0.56780  0.59290  0.09670  Biso   1.000  C
  H160     1.0000 0.61050  0.62480  0.11590  Biso   1.000  H
  H161     1.0000 0.53340  0.56850  0.12680  Biso   1.000  H
  C89      1.0000 0.51310  0.64560  0.05840  Biso   1.000  C
  H162     1.0000 0.47400  0.61210  0.03720  Biso   1.000  H
  H163     1.0000 0.54910  0.67100  0.02970  Biso   1.000  H
  C90      1.0000 0.53380  0.78720  0.12320  Biso   1.000  C
  H164     1.0000 0.50810  0.83030  0.14400  Biso   1.000  H
  H165     1.0000 0.56610  0.80760  0.09100  Biso   1.000  H
  H166     1.0000 0.57020  0.75850  0.14920  Biso   1.000  H
  N13      1.0000 0.88380  0.33990  0.93634  Biso   1.000  N
  H167     1.0000 0.83540  0.32170  0.95190  Biso   1.000  H
  H168     1.0000 0.87100  0.37930  0.91140  Biso   1.000  H
  N14      1.0000 0.55100  0.34110  0.94527  Biso   1.000  N
  H169     1.0000 0.50200  0.32270  0.95980  Biso   1.000  H
  H170     1.0000 0.53920  0.38200  0.92140  Biso   1.000  H
  N15      1.0000 0.22280  0.33640  0.93338  Biso   1.000  N
  H171     1.0000 0.17310  0.31670  0.94560  Biso   1.000  H
  H172     1.0000 0.21210  0.37590  0.90800  Biso   1.000  H
  N16      1.0000 0.61400  0.52490  0.52066  Biso   1.000  N
  N17      1.0000 0.28467  0.52720  0.51899  Biso   1.000  N
  H173     1.0000 0.30760  0.50850  0.48570  Biso   1.000  H
  H174     1.0000 0.32650  0.54020  0.54380  Biso   1.000  H
  N18      1.0000 0.55200  0.46730  0.03830  Biso   1.000  N
  O25      1.0000 0.03921  0.30643  0.97021  Biso   1.000  O
  O26      1.0000 0.05942  0.20830  0.90856  Biso   1.000  O
  O27      1.0000 0.70293  0.29806  0.98343  Biso   1.000  O
  O28      1.0000 0.71627  0.19723  0.92322  Biso   1.000  O
  O29      1.0000 0.37162  0.30133  0.97965  Biso   1.000  O
  O30      1.0000 0.39302  0.19553  0.92466  Biso   1.000  O
  O31      1.0000 0.45199  0.47710  0.62149  Biso   1.000  O
  O32      1.0000 0.46523  0.57559  0.55851  Biso   1.000  O
  O33      1.0000 0.14244  0.57948  0.56485  Biso   1.000  O
  O34      1.0000 0.13304  0.48000  0.62669  Biso   1.000  O
  O35      1.0000 0.72620  0.52140  0.12724  Biso   1.000  O
  O36      1.0000 0.70117  0.41758  0.07167  Biso   1.000  O
  S13      1.0000 0.82876  0.32909  0.74086  Biso   1.000  S
  S14      1.0000 0.53989  0.33552  0.73724  Biso   1.000  S
  S15      1.0000 0.25348  0.34769  0.73015  Biso   1.000  S
  S16      1.0000 0.71346  0.27514  0.58715  Biso   1.000  S
  S17      1.0000 0.39073  0.27619  0.57855  Biso   1.000  S
  S18      1.0000 0.45284  0.72180  0.09572  Biso   1.000  S
  H175     1.0000 0.65400  0.54100  0.55220  Biso   1.000  H
  H176     1.0000 0.63600  0.50700  0.49200  Biso   1.000  H
  H177     1.0000 0.52400  0.48200  0.01400  Biso   1.000  H
  H178     1.0000 0.52000  0.44600  0.07200  Biso   1.000  H
  H179     1.0000 0.52600  0.44300  0.51200  Biso   1.000  H
  H180     1.0000 0.63300  0.55400  0.02700  Biso   1.000  H
  Ag10     1.0000 0.81211  0.70697  0.19825  Biso   1.000  Ag
  Ag11     1.0000 0.10041  0.69619  0.18814  Biso   1.000  Ag
  Ag12     1.0000 0.38722  0.65198  0.17756  Biso   1.000  Ag
  Cu11     1.0000 0.54281  0.61830  0.50004  Biso   1.000  Cu
  Cu12     1.0000 0.87574  0.62156  0.51125  Biso   1.000  Cu
  C91      1.0000 0.48470  0.73780  0.42852  Biso   1.000  C
  C92      1.0000 0.57380  0.72480  0.40396  Biso   1.000  C
  H181     1.0000 0.60600  0.77340  0.41080  Biso   1.000  H
  C93      1.0000 0.57370  0.70900  0.33826  Biso   1.000  C
  H182     1.0000 0.53720  0.74700  0.31900  Biso   1.000  H
  H183     1.0000 0.55150  0.65650  0.33080  Biso   1.000  H
  C94      1.0000 0.66250  0.71530  0.31274  Biso   1.000  C
  H184     1.0000 0.70180  0.68950  0.33910  Biso   1.000  H
  H185     1.0000 0.67820  0.77070  0.31020  Biso   1.000  H
  C95      1.0000 0.67460  0.56770  0.25960  Biso   1.000  C
  H186     1.0000 0.67950  0.53670  0.22450  Biso   1.000  H
  H187     1.0000 0.62380  0.55350  0.27990  Biso   1.000  H
  H188     1.0000 0.72220  0.55780  0.28440  Biso   1.000  H
  C96      1.0000 0.82310  0.74440  0.44131  Biso   1.000  C
  C97      1.0000 0.90690  0.72230  0.41145  Biso   1.000  C
  H189     1.0000 0.94340  0.76900  0.41150  Biso   1.000  H
  C98      1.0000 0.89080  0.69820  0.34759  Biso   1.000  C
  H190     1.0000 0.86880  0.64470  0.34650  Biso   1.000  H
  H191     1.0000 0.84880  0.73300  0.33070  Biso   1.000  H
  C99      1.0000 0.97100  0.70240  0.31150  Biso   1.000  C
  H192     1.0000 0.01470  0.67250  0.33140  Biso   1.000  H
  H193     1.0000 0.98930  0.75700  0.30950  Biso   1.000  H
  C100     1.0000 0.95600  0.55910  0.24940  Biso   1.000  C
  H194     1.0000 0.95010  0.53240  0.21250  Biso   1.000  H
  H195     1.0000 0.90870  0.54670  0.27390  Biso   1.000  H
  H196     1.0000 0.00700  0.54210  0.26820  Biso   1.000  H
  C101     1.0000 0.14930  0.74570  0.43848  Biso   1.000  C
  C102     1.0000 0.22880  0.72640  0.40346  Biso   1.000  C
  H197     1.0000 0.26370  0.77400  0.40030  Biso   1.000  H
  C103     1.0000 0.20140  0.70040  0.34199  Biso   1.000  C
  H198     1.0000 0.17560  0.64840  0.34440  Biso   1.000  H
  H199     1.0000 0.15930  0.73700  0.32740  Biso   1.000  H
  C104     1.0000 0.27410  0.69730  0.29952  Biso   1.000  C
  H200     1.0000 0.31980  0.66750  0.31710  Biso   1.000  H
  H201     1.0000 0.29410  0.75070  0.29250  Biso   1.000  H
  C105     1.0000 0.23230  0.55100  0.25210  Biso   1.000  C
  H202     1.0000 0.21670  0.51990  0.21860  Biso   1.000  H
  H203     1.0000 0.18860  0.54800  0.28110  Biso   1.000  H
  H204     1.0000 0.28400  0.53110  0.26820  Biso   1.000  H
  C106     1.0000 0.01330  0.49170  0.07933  Biso   1.000  C
  C107     1.0000 0.94350  0.53500  0.04636  Biso   1.000  C
  C108     1.0000 0.90100  0.59880  0.08272  Biso   1.000  C
  H205     1.0000 0.94320  0.63580  0.09660  Biso   1.000  H
  H206     1.0000 0.87470  0.57470  0.11670  Biso   1.000  H
  C109     1.0000 0.83450  0.64360  0.04768  Biso   1.000  C
  H207     1.0000 0.79070  0.60680  0.03600  Biso   1.000  H
  H208     1.0000 0.86030  0.66410  0.01230  Biso   1.000  H
  C110     1.0000 0.85870  0.80330  0.06960  Biso   1.000  C
  H209     1.0000 0.84040  0.85140  0.08810  Biso   1.000  H
  H210     1.0000 0.86030  0.81070  0.02790  Biso   1.000  H
  H211     1.0000 0.91400  0.78980  0.08340  Biso   1.000  H
  C111     1.0000 0.33630  0.48930  0.08296  Biso   1.000  C
  C112     1.0000 0.27050  0.53280  0.04561  Biso   1.000  C
  H212     1.0000 0.30110  0.55820  0.01350  Biso   1.000  H
  C113     1.0000 0.22490  0.59830  0.07875  Biso   1.000  C
  H213     1.0000 0.19540  0.57530  0.11180  Biso   1.000  H
  H214     1.0000 0.26630  0.63520  0.09400  Biso   1.000  H
  C114     1.0000 0.16200  0.64350  0.04111  Biso   1.000  C
  H215     1.0000 0.11980  0.60680  0.02690  Biso   1.000  H
  H216     1.0000 0.19140  0.66480  0.00730  Biso   1.000  H
  C115     1.0000 0.19040  0.79810  0.07600  Biso   1.000  C
  H217     1.0000 0.17070  0.84540  0.09470  Biso   1.000  H
  H218     1.0000 0.20420  0.80940  0.03590  Biso   1.000  H
  H219     1.0000 0.23970  0.77900  0.09590  Biso   1.000  H
  C116     1.0000 0.81610  0.51330  0.59040  Biso   1.000  C
  C117     1.0000 0.88990  0.47080  0.56050  Biso   1.000  C
  C118     1.0000 0.93220  0.40710  0.59670  Biso   1.000  C
  H220     1.0000 0.88950  0.37520  0.61590  Biso   1.000  H
  H221     1.0000 0.96660  0.43150  0.62680  Biso   1.000  H
  C119     1.0000 0.98690  0.35440  0.55840  Biso   1.000  C
  H222     1.0000 0.02600  0.38790  0.53720  Biso   1.000  H
  H223     1.0000 0.95090  0.32900  0.52970  Biso   1.000  H
  C120     1.0000 0.96620  0.21280  0.62320  Biso   1.000  C
  H224     1.0000 0.99190  0.16970  0.64400  Biso   1.000  H
  H225     1.0000 0.93390  0.19240  0.59100  Biso   1.000  H
  H226     1.0000 0.92980  0.24150  0.64920  Biso   1.000  H
  N19      1.0000 0.61620  0.66010  0.43634  Biso   1.000  N
  H227     1.0000 0.66460  0.67830  0.45190  Biso   1.000  H
  H228     1.0000 0.62900  0.62070  0.41140  Biso   1.000  H
  N20      1.0000 0.94900  0.65890  0.44527  Biso   1.000  N
  H229     1.0000 0.99800  0.67730  0.45980  Biso   1.000  H
  H230     1.0000 0.96080  0.61800  0.42140  Biso   1.000  H
  N21      1.0000 0.27720  0.66360  0.43338  Biso   1.000  N
  H231     1.0000 0.32690  0.68330  0.44560  Biso   1.000  H
  H232     1.0000 0.28790  0.62410  0.40800  Biso   1.000  H
  N22      1.0000 0.88600  0.47510  0.02066  Biso   1.000  N
  N23      1.0000 0.21533  0.47280  0.01899  Biso   1.000  N
  H233     1.0000 0.19240  0.49150  0.98570  Biso   1.000  H
  H234     1.0000 0.17350  0.45980  0.04380  Biso   1.000  H
  N24      1.0000 0.94800  0.53270  0.53830  Biso   1.000  N
  O37      1.0000 0.46079  0.69357  0.47021  Biso   1.000  O
  O38      1.0000 0.44058  0.79170  0.40856  Biso   1.000  O
  O39      1.0000 0.79707  0.70194  0.48343  Biso   1.000  O
  O40      1.0000 0.78373  0.80277  0.42322  Biso   1.000  O
  O41      1.0000 0.12838  0.69867  0.47965  Biso   1.000  O
  O42      1.0000 0.10698  0.80447  0.42466  Biso   1.000  O
  O43      1.0000 0.04801  0.52290  0.12149  Biso   1.000  O
  O44      1.0000 0.03477  0.42441  0.05851  Biso   1.000  O
  O45      1.0000 0.35756  0.42052  0.06485  Biso   1.000  O
  O46      1.0000 0.36696  0.52000  0.12669  Biso   1.000  O
  O47      1.0000 0.77380  0.47860  0.62724  Biso   1.000  O
  O48      1.0000 0.79883  0.58242  0.57167  Biso   1.000  O
  S19      1.0000 0.67124  0.67091  0.24086  Biso   1.000  S
  S20      1.0000 0.96011  0.66448  0.23724  Biso   1.000  S
  S21      1.0000 0.24652  0.65231  0.23015  Biso   1.000  S
  S22      1.0000 0.78654  0.72486  0.08715  Biso   1.000  S
  S23      1.0000 0.10927  0.72381  0.07855  Biso   1.000  S
  S24      1.0000 0.04716  0.27820  0.59572  Biso   1.000  S
  H235     1.0000 0.84600  0.45900  0.05220  Biso   1.000  H
  H236     1.0000 0.86400  0.49300  0.99200  Biso   1.000  H
  H237     1.0000 0.97600  0.51800  0.51400  Biso   1.000  H
  H238     1.0000 0.98000  0.55400  0.57200  Biso   1.000  H
  H239     1.0000 0.97400  0.55700  0.01200  Biso   1.000  H
  H240     1.0000 0.86700  0.44600  0.52700  Biso   1.000  H
