data_image0
_cell_length_a       10.444
_cell_length_b       17.261
_cell_length_c       14.598
_cell_angle_alpha    90
_cell_angle_beta     98.461
_cell_angle_gamma    90

_symmetry_space_group_name_H-M    "P 1"
_symmetry_int_tables_number       1

loop_
  _symmetry_equiv_pos_as_xyz
  'x, y, z'

loop_
  _atom_site_label
  _atom_site_occupancy
  _atom_site_fract_x
  _atom_site_fract_y
  _atom_site_fract_z
  _atom_site_thermal_displace_type
  _atom_site_B_iso_or_equiv
  _atom_site_type_symbol
  Eu1      1.0000 0.49692  0.12736  0.15665  Biso   1.000  Eu
  Eu2      1.0000 0.98010  0.33497  0.09083  Biso   1.000  Eu
  O1       1.0000 0.61040  0.00221  0.20200  Biso   1.000  O
  O2       1.0000 0.39000  0.05118  0.26260  Biso   1.000  O
  O3       1.0000 0.61650  0.98815  0.92670  Biso   1.000  O
  O4       1.0000 0.56920  0.09254  0.00800  Biso   1.000  O
  O5       1.0000 0.73670  0.13643  0.16310  Biso   1.000  O
  O6       1.0000 0.31850  0.18244  0.04560  Biso   1.000  O
  O7       1.0000 0.33920  0.20760  0.22850  Biso   1.000  O
  O8       1.0000 0.14120  0.25845  0.02340  Biso   1.000  O
  O9       1.0000 0.15190  0.27467  0.20610  Biso   1.000  O
  O10      1.0000 0.90140  0.20919  0.12940  Biso   1.000  O
  O11      1.0000 0.74100  0.32879  0.09060  Biso   1.000  O
  O12      1.0000 0.87690  0.46346  0.05740  Biso   1.000  O
  O13      1.0000 0.92120  0.58638  0.02250  Biso   1.000  O
  O14      1.0000 0.37330  0.93565  0.33030  Biso   1.000  O
  O15      1.0000 0.57870  0.88296  0.25880  Biso   1.000  O
  O16      1.0000 0.57340  0.25670  0.12360  Biso   1.000  O
  C1       1.0000 0.42610  0.98320  0.28090  Biso   1.000  C
  C2       1.0000 0.55390  0.02310  0.98100  Biso   1.000  C
  C3       1.0000 0.23300  0.22490  0.07340  Biso   1.000  C
  C4       1.0000 0.24290  0.23670  0.17920  Biso   1.000  C
  C5       1.0000 0.78490  0.19850  0.13780  Biso   1.000  C
  C6       1.0000 0.69070  0.26780  0.11510  Biso   1.000  C
  C7       1.0000 0.54970  0.95350  0.24300  Biso   1.000  C
  C8       1.0000 0.94140  0.51430  0.02300  Biso   1.000  C
  Eu3      1.0000 0.00308  0.62736  0.34335  Biso   1.000  Eu
  Eu4      1.0000 0.51990  0.83497  0.40917  Biso   1.000  Eu
  O17      1.0000 0.88960  0.50221  0.29800  Biso   1.000  O
  O18      1.0000 0.11000  0.55118  0.23740  Biso   1.000  O
  O19      1.0000 0.88350  0.48815  0.57330  Biso   1.000  O
  O20      1.0000 0.93080  0.59254  0.49200  Biso   1.000  O
  O21      1.0000 0.76330  0.63643  0.33690  Biso   1.000  O
  O22      1.0000 0.18150  0.68244  0.45440  Biso   1.000  O
  O23      1.0000 0.16080  0.70760  0.27150  Biso   1.000  O
  O24      1.0000 0.35880  0.75845  0.47660  Biso   1.000  O
  O25      1.0000 0.34810  0.77467  0.29390  Biso   1.000  O
  O26      1.0000 0.59860  0.70919  0.37060  Biso   1.000  O
  O27      1.0000 0.75900  0.82879  0.40940  Biso   1.000  O
  O28      1.0000 0.62310  0.96346  0.44260  Biso   1.000  O
  O29      1.0000 0.57880  0.08638  0.47750  Biso   1.000  O
  O30      1.0000 0.12670  0.43565  0.16970  Biso   1.000  O
  O31      1.0000 0.92130  0.38296  0.24120  Biso   1.000  O
  O32      1.0000 0.92660  0.75670  0.37640  Biso   1.000  O
  C9       1.0000 0.07390  0.48320  0.21910  Biso   1.000  C
  C10      1.0000 0.94610  0.52310  0.51900  Biso   1.000  C
  C11      1.0000 0.26700  0.72490  0.42660  Biso   1.000  C
  C12      1.0000 0.25710  0.73670  0.32080  Biso   1.000  C
  C13      1.0000 0.71510  0.69850  0.36220  Biso   1.000  C
  C14      1.0000 0.80930  0.76780  0.38490  Biso   1.000  C
  C15      1.0000 0.95030  0.45350  0.25700  Biso   1.000  C
  C16      1.0000 0.55860  0.01430  0.47700  Biso   1.000  C
  Eu5      1.0000 0.50308  0.87265  0.84335  Biso   1.000  Eu
  Eu6      1.0000 0.01990  0.66503  0.90917  Biso   1.000  Eu
  O33      1.0000 0.38960  0.99779  0.79800  Biso   1.000  O
  O34      1.0000 0.61000  0.94882  0.73740  Biso   1.000  O
  O35      1.0000 0.38350  0.01185  0.07330  Biso   1.000  O
  O36      1.0000 0.43080  0.90746  0.99200  Biso   1.000  O
  O37      1.0000 0.26330  0.86357  0.83690  Biso   1.000  O
  O38      1.0000 0.68150  0.81756  0.95440  Biso   1.000  O
  O39      1.0000 0.66080  0.79240  0.77150  Biso   1.000  O
  O40      1.0000 0.85880  0.74155  0.97660  Biso   1.000  O
  O41      1.0000 0.84810  0.72533  0.79390  Biso   1.000  O
  O42      1.0000 0.09860  0.79081  0.87060  Biso   1.000  O
  O43      1.0000 0.25900  0.67121  0.90940  Biso   1.000  O
  O44      1.0000 0.12310  0.53654  0.94260  Biso   1.000  O
  O45      1.0000 0.07880  0.41362  0.97750  Biso   1.000  O
  O46      1.0000 0.62670  0.06435  0.66970  Biso   1.000  O
  O47      1.0000 0.42130  0.11704  0.74120  Biso   1.000  O
  O48      1.0000 0.42660  0.74330  0.87640  Biso   1.000  O
  C17      1.0000 0.57390  0.01680  0.71910  Biso   1.000  C
  C18      1.0000 0.44610  0.97690  0.01900  Biso   1.000  C
  C19      1.0000 0.76700  0.77510  0.92660  Biso   1.000  C
  C20      1.0000 0.75710  0.76330  0.82080  Biso   1.000  C
  C21      1.0000 0.21510  0.80150  0.86220  Biso   1.000  C
  C22      1.0000 0.30930  0.73220  0.88490  Biso   1.000  C
  C23      1.0000 0.45030  0.04650  0.75700  Biso   1.000  C
  C24      1.0000 0.05860  0.48570  0.97700  Biso   1.000  C
  Eu7      1.0000 0.99692  0.37264  0.65665  Biso   1.000  Eu
  Eu8      1.0000 0.48010  0.16503  0.59083  Biso   1.000  Eu
  O49      1.0000 0.11040  0.49779  0.70200  Biso   1.000  O
  O50      1.0000 0.89000  0.44882  0.76260  Biso   1.000  O
  O51      1.0000 0.11650  0.51185  0.42670  Biso   1.000  O
  O52      1.0000 0.06920  0.40746  0.50800  Biso   1.000  O
  O53      1.0000 0.23670  0.36357  0.66310  Biso   1.000  O
  O54      1.0000 0.81850  0.31756  0.54560  Biso   1.000  O
  O55      1.0000 0.83920  0.29240  0.72850  Biso   1.000  O
  O56      1.0000 0.64120  0.24155  0.52340  Biso   1.000  O
  O57      1.0000 0.65190  0.22533  0.70610  Biso   1.000  O
  O58      1.0000 0.40140  0.29081  0.62940  Biso   1.000  O
  O59      1.0000 0.24100  0.17121  0.59060  Biso   1.000  O
  O60      1.0000 0.37690  0.03654  0.55740  Biso   1.000  O
  O61      1.0000 0.42120  0.91362  0.52250  Biso   1.000  O
  O62      1.0000 0.87330  0.56435  0.83030  Biso   1.000  O
  O63      1.0000 0.07870  0.61704  0.75880  Biso   1.000  O
  O64      1.0000 0.07340  0.24330  0.62360  Biso   1.000  O
  C25      1.0000 0.92610  0.51680  0.78090  Biso   1.000  C
  C26      1.0000 0.05390  0.47690  0.48100  Biso   1.000  C
  C27      1.0000 0.73300  0.27510  0.57340  Biso   1.000  C
  C28      1.0000 0.74290  0.26330  0.67920  Biso   1.000  C
  C29      1.0000 0.28490  0.30150  0.63780  Biso   1.000  C
  C30      1.0000 0.19070  0.23220  0.61510  Biso   1.000  C
  C31      1.0000 0.04970  0.54650  0.74300  Biso   1.000  C
  C32      1.0000 0.44140  0.98570  0.52300  Biso   1.000  C
