data_image0
_cell_length_a       30.5536
_cell_length_b       15.643
_cell_length_c       21.9701
_cell_angle_alpha    90
_cell_angle_beta     133.091
_cell_angle_gamma    90

_symmetry_space_group_name_H-M    "P 1"
_symmetry_int_tables_number       1

loop_
  _symmetry_equiv_pos_as_xyz
  'x, y, z'

loop_
  _atom_site_label
  _atom_site_occupancy
  _atom_site_fract_x
  _atom_site_fract_y
  _atom_site_fract_z
  _atom_site_thermal_displace_type
  _atom_site_B_iso_or_equiv
  _atom_site_type_symbol
  Nd1      1.0000 0.33129  0.87170  0.48589  Biso   1.000  Nd
  Nd2      1.0000 0.61055  0.86345  0.67363  Biso   1.000  Nd
  O1       1.0000 0.25281  0.76910  0.37230  Biso   1.000  O
  O2       1.0000 0.22330  0.65210  0.29520  Biso   1.000  O
  O3       1.0000 0.44050  0.85700  0.56960  Biso   1.000  O
  O4       1.0000 0.52050  0.78480  0.61390  Biso   1.000  O
  O5       1.0000 0.63390  0.97210  0.61740  Biso   1.000  O
  O6       1.0000 0.67330  0.09590  0.62560  Biso   1.000  O
  O7       1.0000 0.62230  0.88280  0.79510  Biso   1.000  O
  O8       1.0000 0.65730  0.95270  0.90910  Biso   1.000  O
  N1       1.0000 0.36650  0.73450  0.46420  Biso   1.000  N
  N2       1.0000 0.66170  0.00130  0.75790  Biso   1.000  N
  C1       1.0000 0.32760  0.67640  0.40690  Biso   1.000  C
  C2       1.0000 0.34590  0.60110  0.39570  Biso   1.000  C
  H1       1.0000 0.31730  0.56090  0.35410  Biso   1.000  H
  C3       1.0000 0.40650  0.58650  0.44690  Biso   1.000  C
  H2       1.0000 0.42040  0.53510  0.44190  Biso   1.000  H
  C4       1.0000 0.44660  0.64700  0.50490  Biso   1.000  C
  H3       1.0000 0.48850  0.63850  0.53970  Biso   1.000  H
  C5       1.0000 0.42530  0.72040  0.51220  Biso   1.000  C
  C6       1.0000 0.26230  0.70110  0.35340  Biso   1.000  C
  C7       1.0000 0.46520  0.79210  0.57030  Biso   1.000  C
  C8       1.0000 0.68470  0.05460  0.73850  Biso   1.000  C
  C9       1.0000 0.72600  0.11790  0.79300  Biso   1.000  C
  H4       1.0000 0.74450  0.15220  0.78020  Biso   1.000  H
  C10      1.0000 0.73900  0.12860  0.86640  Biso   1.000  C
  H5       1.0000 0.76640  0.17170  0.90480  Biso   1.000  H
  C11      1.0000 0.71220  0.07650  0.88380  Biso   1.000  C
  H6       1.0000 0.71960  0.08480  0.93300  Biso   1.000  H
  C12      1.0000 0.67440  0.01230  0.82830  Biso   1.000  C
  C13      1.0000 0.66270  0.04050  0.65390  Biso   1.000  C
  C14      1.0000 0.64950  0.94570  0.84650  Biso   1.000  C
  Nd3      1.0000 0.83129  0.37170  0.48589  Biso   1.000  Nd
  Nd4      1.0000 0.11055  0.36345  0.67363  Biso   1.000  Nd
  O9       1.0000 0.75281  0.26910  0.37230  Biso   1.000  O
  O10      1.0000 0.72330  0.15210  0.29520  Biso   1.000  O
  O11      1.0000 0.94050  0.35700  0.56960  Biso   1.000  O
  O12      1.0000 0.02050  0.28480  0.61390  Biso   1.000  O
  O13      1.0000 0.13390  0.47210  0.61740  Biso   1.000  O
  O14      1.0000 0.17330  0.59590  0.62560  Biso   1.000  O
  O15      1.0000 0.12230  0.38280  0.79510  Biso   1.000  O
  O16      1.0000 0.15730  0.45270  0.90910  Biso   1.000  O
  N3       1.0000 0.86650  0.23450  0.46420  Biso   1.000  N
  N4       1.0000 0.16170  0.50130  0.75790  Biso   1.000  N
  C15      1.0000 0.82760  0.17640  0.40690  Biso   1.000  C
  C16      1.0000 0.84590  0.10110  0.39570  Biso   1.000  C
  H7       1.0000 0.81730  0.06090  0.35410  Biso   1.000  H
  C17      1.0000 0.90650  0.08650  0.44690  Biso   1.000  C
  H8       1.0000 0.92040  0.03510  0.44190  Biso   1.000  H
  C18      1.0000 0.94660  0.14700  0.50490  Biso   1.000  C
  H9       1.0000 0.98850  0.13850  0.53970  Biso   1.000  H
  C19      1.0000 0.92530  0.22040  0.51220  Biso   1.000  C
  C20      1.0000 0.76230  0.20110  0.35340  Biso   1.000  C
  C21      1.0000 0.96520  0.29210  0.57030  Biso   1.000  C
  C22      1.0000 0.18470  0.55460  0.73850  Biso   1.000  C
  C23      1.0000 0.22600  0.61790  0.79300  Biso   1.000  C
  H10      1.0000 0.24450  0.65220  0.78020  Biso   1.000  H
  C24      1.0000 0.23900  0.62860  0.86640  Biso   1.000  C
  H11      1.0000 0.26640  0.67170  0.90480  Biso   1.000  H
  C25      1.0000 0.21220  0.57650  0.88380  Biso   1.000  C
  H12      1.0000 0.21960  0.58480  0.93300  Biso   1.000  H
  C26      1.0000 0.17440  0.51230  0.82830  Biso   1.000  C
  C27      1.0000 0.16270  0.54050  0.65390  Biso   1.000  C
  C28      1.0000 0.14950  0.44570  0.84650  Biso   1.000  C
  Nd5      1.0000 0.66871  0.87170  0.01411  Biso   1.000  Nd
  Nd6      1.0000 0.38946  0.86345  0.82637  Biso   1.000  Nd
  O17      1.0000 0.74719  0.76910  0.12770  Biso   1.000  O
  O18      1.0000 0.77670  0.65210  0.20480  Biso   1.000  O
  O19      1.0000 0.55950  0.85700  0.93040  Biso   1.000  O
  O20      1.0000 0.47950  0.78480  0.88610  Biso   1.000  O
  O21      1.0000 0.36610  0.97210  0.88260  Biso   1.000  O
  O22      1.0000 0.32670  0.09590  0.87440  Biso   1.000  O
  O23      1.0000 0.37770  0.88280  0.70490  Biso   1.000  O
  O24      1.0000 0.34270  0.95270  0.59090  Biso   1.000  O
  N5       1.0000 0.63350  0.73450  0.03580  Biso   1.000  N
  N6       1.0000 0.33830  0.00130  0.74210  Biso   1.000  N
  C29      1.0000 0.67240  0.67640  0.09310  Biso   1.000  C
  C30      1.0000 0.65410  0.60110  0.10430  Biso   1.000  C
  H13      1.0000 0.68270  0.56090  0.14590  Biso   1.000  H
  C31      1.0000 0.59350  0.58650  0.05310  Biso   1.000  C
  H14      1.0000 0.57960  0.53510  0.05810  Biso   1.000  H
  C32      1.0000 0.55340  0.64700  0.99510  Biso   1.000  C
  H15      1.0000 0.51150  0.63850  0.96030  Biso   1.000  H
  C33      1.0000 0.57470  0.72040  0.98780  Biso   1.000  C
  C34      1.0000 0.73770  0.70110  0.14660  Biso   1.000  C
  C35      1.0000 0.53480  0.79210  0.92970  Biso   1.000  C
  C36      1.0000 0.31530  0.05460  0.76150  Biso   1.000  C
  C37      1.0000 0.27400  0.11790  0.70700  Biso   1.000  C
  H16      1.0000 0.25550  0.15220  0.71980  Biso   1.000  H
  C38      1.0000 0.26100  0.12860  0.63360  Biso   1.000  C
  H17      1.0000 0.23360  0.17170  0.59520  Biso   1.000  H
  C39      1.0000 0.28780  0.07650  0.61620  Biso   1.000  C
  H18      1.0000 0.28040  0.08480  0.56700  Biso   1.000  H
  C40      1.0000 0.32560  0.01230  0.67170  Biso   1.000  C
  C41      1.0000 0.33730  0.04050  0.84610  Biso   1.000  C
  C42      1.0000 0.35050  0.94570  0.65350  Biso   1.000  C
  Nd7      1.0000 0.16871  0.37170  0.01411  Biso   1.000  Nd
  Nd8      1.0000 0.88946  0.36345  0.82637  Biso   1.000  Nd
  O25      1.0000 0.24719  0.26910  0.12770  Biso   1.000  O
  O26      1.0000 0.27670  0.15210  0.20480  Biso   1.000  O
  O27      1.0000 0.05950  0.35700  0.93040  Biso   1.000  O
  O28      1.0000 0.97950  0.28480  0.88610  Biso   1.000  O
  O29      1.0000 0.86610  0.47210  0.88260  Biso   1.000  O
  O30      1.0000 0.82670  0.59590  0.87440  Biso   1.000  O
  O31      1.0000 0.87770  0.38280  0.70490  Biso   1.000  O
  O32      1.0000 0.84270  0.45270  0.59090  Biso   1.000  O
  N7       1.0000 0.13350  0.23450  0.03580  Biso   1.000  N
  N8       1.0000 0.83830  0.50130  0.74210  Biso   1.000  N
  C43      1.0000 0.17240  0.17640  0.09310  Biso   1.000  C
  C44      1.0000 0.15410  0.10110  0.10430  Biso   1.000  C
  H19      1.0000 0.18270  0.06090  0.14590  Biso   1.000  H
  C45      1.0000 0.09350  0.08650  0.05310  Biso   1.000  C
  H20      1.0000 0.07960  0.03510  0.05810  Biso   1.000  H
  C46      1.0000 0.05340  0.14700  0.99510  Biso   1.000  C
  H21      1.0000 0.01150  0.13850  0.96030  Biso   1.000  H
  C47      1.0000 0.07470  0.22040  0.98780  Biso   1.000  C
  C48      1.0000 0.23770  0.20110  0.14660  Biso   1.000  C
  C49      1.0000 0.03480  0.29210  0.92970  Biso   1.000  C
  C50      1.0000 0.81530  0.55460  0.76150  Biso   1.000  C
  C51      1.0000 0.77400  0.61790  0.70700  Biso   1.000  C
  H22      1.0000 0.75550  0.65220  0.71980  Biso   1.000  H
  C52      1.0000 0.76100  0.62860  0.63360  Biso   1.000  C
  H23      1.0000 0.73360  0.67170  0.59520  Biso   1.000  H
  C53      1.0000 0.78780  0.57650  0.61620  Biso   1.000  C
  H24      1.0000 0.78040  0.58480  0.56700  Biso   1.000  H
  C54      1.0000 0.82560  0.51230  0.67170  Biso   1.000  C
  C55      1.0000 0.83730  0.54050  0.84610  Biso   1.000  C
  C56      1.0000 0.85050  0.44570  0.65350  Biso   1.000  C
  Nd9      1.0000 0.66871  0.12830  0.51411  Biso   1.000  Nd
  Nd10     1.0000 0.38946  0.13655  0.32637  Biso   1.000  Nd
  O33      1.0000 0.74719  0.23090  0.62770  Biso   1.000  O
  O34      1.0000 0.77670  0.34790  0.70480  Biso   1.000  O
  O35      1.0000 0.55950  0.14300  0.43040  Biso   1.000  O
  O36      1.0000 0.47950  0.21520  0.38610  Biso   1.000  O
  O37      1.0000 0.36610  0.02790  0.38260  Biso   1.000  O
  O38      1.0000 0.32670  0.90410  0.37440  Biso   1.000  O
  O39      1.0000 0.37770  0.11720  0.20490  Biso   1.000  O
  O40      1.0000 0.34270  0.04730  0.09090  Biso   1.000  O
  N9       1.0000 0.63350  0.26550  0.53580  Biso   1.000  N
  N10      1.0000 0.33830  0.99870  0.24210  Biso   1.000  N
  C57      1.0000 0.67240  0.32360  0.59310  Biso   1.000  C
  C58      1.0000 0.65410  0.39890  0.60430  Biso   1.000  C
  H25      1.0000 0.68270  0.43910  0.64590  Biso   1.000  H
  C59      1.0000 0.59350  0.41350  0.55310  Biso   1.000  C
  H26      1.0000 0.57960  0.46490  0.55810  Biso   1.000  H
  C60      1.0000 0.55340  0.35300  0.49510  Biso   1.000  C
  H27      1.0000 0.51150  0.36150  0.46030  Biso   1.000  H
  C61      1.0000 0.57470  0.27960  0.48780  Biso   1.000  C
  C62      1.0000 0.73770  0.29890  0.64660  Biso   1.000  C
  C63      1.0000 0.53480  0.20790  0.42970  Biso   1.000  C
  C64      1.0000 0.31530  0.94540  0.26150  Biso   1.000  C
  C65      1.0000 0.27400  0.88210  0.20700  Biso   1.000  C
  H28      1.0000 0.25550  0.84780  0.21980  Biso   1.000  H
  C66      1.0000 0.26100  0.87140  0.13360  Biso   1.000  C
  H29      1.0000 0.23360  0.82830  0.09520  Biso   1.000  H
  C67      1.0000 0.28780  0.92350  0.11620  Biso   1.000  C
  H30      1.0000 0.28040  0.91520  0.06700  Biso   1.000  H
  C68      1.0000 0.32560  0.98770  0.17170  Biso   1.000  C
  C69      1.0000 0.33730  0.95950  0.34610  Biso   1.000  C
  C70      1.0000 0.35050  0.05430  0.15350  Biso   1.000  C
  Nd11     1.0000 0.16871  0.62830  0.51411  Biso   1.000  Nd
  Nd12     1.0000 0.88946  0.63655  0.32637  Biso   1.000  Nd
  O41      1.0000 0.24719  0.73090  0.62770  Biso   1.000  O
  O42      1.0000 0.27670  0.84790  0.70480  Biso   1.000  O
  O43      1.0000 0.05950  0.64300  0.43040  Biso   1.000  O
  O44      1.0000 0.97950  0.71520  0.38610  Biso   1.000  O
  O45      1.0000 0.86610  0.52790  0.38260  Biso   1.000  O
  O46      1.0000 0.82670  0.40410  0.37440  Biso   1.000  O
  O47      1.0000 0.87770  0.61720  0.20490  Biso   1.000  O
  O48      1.0000 0.84270  0.54730  0.09090  Biso   1.000  O
  N11      1.0000 0.13350  0.76550  0.53580  Biso   1.000  N
  N12      1.0000 0.83830  0.49870  0.24210  Biso   1.000  N
  C71      1.0000 0.17240  0.82360  0.59310  Biso   1.000  C
  C72      1.0000 0.15410  0.89890  0.60430  Biso   1.000  C
  H31      1.0000 0.18270  0.93910  0.64590  Biso   1.000  H
  C73      1.0000 0.09350  0.91350  0.55310  Biso   1.000  C
  H32      1.0000 0.07960  0.96490  0.55810  Biso   1.000  H
  C74      1.0000 0.05340  0.85300  0.49510  Biso   1.000  C
  H33      1.0000 0.01150  0.86150  0.46030  Biso   1.000  H
  C75      1.0000 0.07470  0.77960  0.48780  Biso   1.000  C
  C76      1.0000 0.23770  0.79890  0.64660  Biso   1.000  C
  C77      1.0000 0.03480  0.70790  0.42970  Biso   1.000  C
  C78      1.0000 0.81530  0.44540  0.26150  Biso   1.000  C
  C79      1.0000 0.77400  0.38210  0.20700  Biso   1.000  C
  H34      1.0000 0.75550  0.34780  0.21980  Biso   1.000  H
  C80      1.0000 0.76100  0.37140  0.13360  Biso   1.000  C
  H35      1.0000 0.73360  0.32830  0.09520  Biso   1.000  H
  C81      1.0000 0.78780  0.42350  0.11620  Biso   1.000  C
  H36      1.0000 0.78040  0.41520  0.06700  Biso   1.000  H
  C82      1.0000 0.82560  0.48770  0.17170  Biso   1.000  C
  C83      1.0000 0.83730  0.45950  0.34610  Biso   1.000  C
  C84      1.0000 0.85050  0.55430  0.15350  Biso   1.000  C
  Nd13     1.0000 0.33129  0.12830  0.98589  Biso   1.000  Nd
  Nd14     1.0000 0.61055  0.13655  0.17363  Biso   1.000  Nd
  O49      1.0000 0.25281  0.23090  0.87230  Biso   1.000  O
  O50      1.0000 0.22330  0.34790  0.79520  Biso   1.000  O
  O51      1.0000 0.44050  0.14300  0.06960  Biso   1.000  O
  O52      1.0000 0.52050  0.21520  0.11390  Biso   1.000  O
  O53      1.0000 0.63390  0.02790  0.11740  Biso   1.000  O
  O54      1.0000 0.67330  0.90410  0.12560  Biso   1.000  O
  O55      1.0000 0.62230  0.11720  0.29510  Biso   1.000  O
  O56      1.0000 0.65730  0.04730  0.40910  Biso   1.000  O
  N13      1.0000 0.36650  0.26550  0.96420  Biso   1.000  N
  N14      1.0000 0.66170  0.99870  0.25790  Biso   1.000  N
  C85      1.0000 0.32760  0.32360  0.90690  Biso   1.000  C
  C86      1.0000 0.34590  0.39890  0.89570  Biso   1.000  C
  H37      1.0000 0.31730  0.43910  0.85410  Biso   1.000  H
  C87      1.0000 0.40650  0.41350  0.94690  Biso   1.000  C
  H38      1.0000 0.42040  0.46490  0.94190  Biso   1.000  H
  C88      1.0000 0.44660  0.35300  0.00490  Biso   1.000  C
  H39      1.0000 0.48850  0.36150  0.03970  Biso   1.000  H
  C89      1.0000 0.42530  0.27960  0.01220  Biso   1.000  C
  C90      1.0000 0.26230  0.29890  0.85340  Biso   1.000  C
  C91      1.0000 0.46520  0.20790  0.07030  Biso   1.000  C
  C92      1.0000 0.68470  0.94540  0.23850  Biso   1.000  C
  C93      1.0000 0.72600  0.88210  0.29300  Biso   1.000  C
  H40      1.0000 0.74450  0.84780  0.28020  Biso   1.000  H
  C94      1.0000 0.73900  0.87140  0.36640  Biso   1.000  C
  H41      1.0000 0.76640  0.82830  0.40480  Biso   1.000  H
  C95      1.0000 0.71220  0.92350  0.38380  Biso   1.000  C
  H42      1.0000 0.71960  0.91520  0.43300  Biso   1.000  H
  C96      1.0000 0.67440  0.98770  0.32830  Biso   1.000  C
  C97      1.0000 0.66270  0.95950  0.15390  Biso   1.000  C
  C98      1.0000 0.64950  0.05430  0.34650  Biso   1.000  C
  Nd15     1.0000 0.83129  0.62830  0.98589  Biso   1.000  Nd
  Nd16     1.0000 0.11055  0.63655  0.17363  Biso   1.000  Nd
  O57      1.0000 0.75281  0.73090  0.87230  Biso   1.000  O
  O58      1.0000 0.72330  0.84790  0.79520  Biso   1.000  O
  O59      1.0000 0.94050  0.64300  0.06960  Biso   1.000  O
  O60      1.0000 0.02050  0.71520  0.11390  Biso   1.000  O
  O61      1.0000 0.13390  0.52790  0.11740  Biso   1.000  O
  O62      1.0000 0.17330  0.40410  0.12560  Biso   1.000  O
  O63      1.0000 0.12230  0.61720  0.29510  Biso   1.000  O
  O64      1.0000 0.15730  0.54730  0.40910  Biso   1.000  O
  N15      1.0000 0.86650  0.76550  0.96420  Biso   1.000  N
  N16      1.0000 0.16170  0.49870  0.25790  Biso   1.000  N
  C99      1.0000 0.82760  0.82360  0.90690  Biso   1.000  C
  C100     1.0000 0.84590  0.89890  0.89570  Biso   1.000  C
  H43      1.0000 0.81730  0.93910  0.85410  Biso   1.000  H
  C101     1.0000 0.90650  0.91350  0.94690  Biso   1.000  C
  H44      1.0000 0.92040  0.96490  0.94190  Biso   1.000  H
  C102     1.0000 0.94660  0.85300  0.00490  Biso   1.000  C
  H45      1.0000 0.98850  0.86150  0.03970  Biso   1.000  H
  C103     1.0000 0.92530  0.77960  0.01220  Biso   1.000  C
  C104     1.0000 0.76230  0.79890  0.85340  Biso   1.000  C
  C105     1.0000 0.96520  0.70790  0.07030  Biso   1.000  C
  C106     1.0000 0.18470  0.44540  0.23850  Biso   1.000  C
  C107     1.0000 0.22600  0.38210  0.29300  Biso   1.000  C
  H46      1.0000 0.24450  0.34780  0.28020  Biso   1.000  H
  C108     1.0000 0.23900  0.37140  0.36640  Biso   1.000  C
  H47      1.0000 0.26640  0.32830  0.40480  Biso   1.000  H
  C109     1.0000 0.21220  0.42350  0.38380  Biso   1.000  C
  H48      1.0000 0.21960  0.41520  0.43300  Biso   1.000  H
  C110     1.0000 0.17440  0.48770  0.32830  Biso   1.000  C
  C111     1.0000 0.16270  0.45950  0.15390  Biso   1.000  C
  C112     1.0000 0.14950  0.55430  0.34650  Biso   1.000  C
