data_image0
_cell_length_a       30.7464
_cell_length_b       15.6855
_cell_length_c       22.0714
_cell_angle_alpha    90
_cell_angle_beta     133.21
_cell_angle_gamma    90

_symmetry_space_group_name_H-M    "P 1"
_symmetry_int_tables_number       1

loop_
  _symmetry_equiv_pos_as_xyz
  'x, y, z'

loop_
  _atom_site_label
  _atom_site_occupancy
  _atom_site_fract_x
  _atom_site_fract_y
  _atom_site_fract_z
  _atom_site_thermal_displace_type
  _atom_site_B_iso_or_equiv
  _atom_site_type_symbol
  Ce1      1.0000 0.33122  0.87107  0.48629  Biso   1.000  Ce
  Ce2      1.0000 0.61060  0.86283  0.67213  Biso   1.000  Ce
  O1       1.0000 0.25331  0.76580  0.37340  Biso   1.000  O
  O2       1.0000 0.22420  0.65100  0.29440  Biso   1.000  O
  O3       1.0000 0.44090  0.85490  0.56950  Biso   1.000  O
  O4       1.0000 0.52017  0.78310  0.61250  Biso   1.000  O
  O5       1.0000 0.63410  0.97400  0.61750  Biso   1.000  O
  O6       1.0000 0.67460  0.09740  0.62710  Biso   1.000  O
  O7       1.0000 0.62280  0.88350  0.79510  Biso   1.000  O
  O8       1.0000 0.65760  0.95360  0.90840  Biso   1.000  O
  N1       1.0000 0.36670  0.73260  0.46410  Biso   1.000  N
  N2       1.0000 0.66200  0.00240  0.75760  Biso   1.000  N
  C1       1.0000 0.32820  0.67450  0.40720  Biso   1.000  C
  C2       1.0000 0.34610  0.59980  0.39590  Biso   1.000  C
  H1       1.0000 0.31740  0.56010  0.35420  Biso   1.000  H
  C3       1.0000 0.40650  0.58420  0.44680  Biso   1.000  C
  H2       1.0000 0.42010  0.53270  0.44190  Biso   1.000  H
  C4       1.0000 0.44680  0.64490  0.50470  Biso   1.000  C
  H3       1.0000 0.48840  0.63640  0.53910  Biso   1.000  H
  C5       1.0000 0.42550  0.71840  0.51200  Biso   1.000  C
  C6       1.0000 0.26320  0.69890  0.35350  Biso   1.000  C
  C7       1.0000 0.46540  0.79020  0.57000  Biso   1.000  C
  C8       1.0000 0.68460  0.05550  0.73860  Biso   1.000  C
  C9       1.0000 0.72550  0.11850  0.79280  Biso   1.000  C
  H4       1.0000 0.74350  0.15310  0.77960  Biso   1.000  H
  C10      1.0000 0.73940  0.12950  0.86720  Biso   1.000  C
  H5       1.0000 0.76670  0.17230  0.90580  Biso   1.000  H
  C11      1.0000 0.71230  0.07650  0.88330  Biso   1.000  C
  H6       1.0000 0.71960  0.08440  0.93230  Biso   1.000  H
  C12      1.0000 0.67520  0.01290  0.82910  Biso   1.000  C
  C13      1.0000 0.66340  0.04160  0.65470  Biso   1.000  C
  C14      1.0000 0.64950  0.94600  0.84550  Biso   1.000  C
  Ce3      1.0000 0.83122  0.37107  0.48629  Biso   1.000  Ce
  Ce4      1.0000 0.11060  0.36283  0.67213  Biso   1.000  Ce
  O9       1.0000 0.75331  0.26580  0.37340  Biso   1.000  O
  O10      1.0000 0.72420  0.15100  0.29440  Biso   1.000  O
  O11      1.0000 0.94090  0.35490  0.56950  Biso   1.000  O
  O12      1.0000 0.02017  0.28310  0.61250  Biso   1.000  O
  O13      1.0000 0.13410  0.47400  0.61750  Biso   1.000  O
  O14      1.0000 0.17460  0.59740  0.62710  Biso   1.000  O
  O15      1.0000 0.12280  0.38350  0.79510  Biso   1.000  O
  O16      1.0000 0.15760  0.45360  0.90840  Biso   1.000  O
  N3       1.0000 0.86670  0.23260  0.46410  Biso   1.000  N
  N4       1.0000 0.16200  0.50240  0.75760  Biso   1.000  N
  C15      1.0000 0.82820  0.17450  0.40720  Biso   1.000  C
  C16      1.0000 0.84610  0.09980  0.39590  Biso   1.000  C
  H7       1.0000 0.81740  0.06010  0.35420  Biso   1.000  H
  C17      1.0000 0.90650  0.08420  0.44680  Biso   1.000  C
  H8       1.0000 0.92010  0.03270  0.44190  Biso   1.000  H
  C18      1.0000 0.94680  0.14490  0.50470  Biso   1.000  C
  H9       1.0000 0.98840  0.13640  0.53910  Biso   1.000  H
  C19      1.0000 0.92550  0.21840  0.51200  Biso   1.000  C
  C20      1.0000 0.76320  0.19890  0.35350  Biso   1.000  C
  C21      1.0000 0.96540  0.29020  0.57000  Biso   1.000  C
  C22      1.0000 0.18460  0.55550  0.73860  Biso   1.000  C
  C23      1.0000 0.22550  0.61850  0.79280  Biso   1.000  C
  H10      1.0000 0.24350  0.65310  0.77960  Biso   1.000  H
  C24      1.0000 0.23940  0.62950  0.86720  Biso   1.000  C
  H11      1.0000 0.26670  0.67230  0.90580  Biso   1.000  H
  C25      1.0000 0.21230  0.57650  0.88330  Biso   1.000  C
  H12      1.0000 0.21960  0.58440  0.93230  Biso   1.000  H
  C26      1.0000 0.17520  0.51290  0.82910  Biso   1.000  C
  C27      1.0000 0.16340  0.54160  0.65470  Biso   1.000  C
  C28      1.0000 0.14950  0.44600  0.84550  Biso   1.000  C
  Ce5      1.0000 0.66878  0.87107  0.01371  Biso   1.000  Ce
  Ce6      1.0000 0.38940  0.86283  0.82787  Biso   1.000  Ce
  O17      1.0000 0.74669  0.76580  0.12660  Biso   1.000  O
  O18      1.0000 0.77580  0.65100  0.20560  Biso   1.000  O
  O19      1.0000 0.55910  0.85490  0.93050  Biso   1.000  O
  O20      1.0000 0.47983  0.78310  0.88750  Biso   1.000  O
  O21      1.0000 0.36590  0.97400  0.88250  Biso   1.000  O
  O22      1.0000 0.32540  0.09740  0.87290  Biso   1.000  O
  O23      1.0000 0.37720  0.88350  0.70490  Biso   1.000  O
  O24      1.0000 0.34240  0.95360  0.59160  Biso   1.000  O
  N5       1.0000 0.63330  0.73260  0.03590  Biso   1.000  N
  N6       1.0000 0.33800  0.00240  0.74240  Biso   1.000  N
  C29      1.0000 0.67180  0.67450  0.09280  Biso   1.000  C
  C30      1.0000 0.65390  0.59980  0.10410  Biso   1.000  C
  H13      1.0000 0.68260  0.56010  0.14580  Biso   1.000  H
  C31      1.0000 0.59350  0.58420  0.05320  Biso   1.000  C
  H14      1.0000 0.57990  0.53270  0.05810  Biso   1.000  H
  C32      1.0000 0.55320  0.64490  0.99530  Biso   1.000  C
  H15      1.0000 0.51160  0.63640  0.96090  Biso   1.000  H
  C33      1.0000 0.57450  0.71840  0.98800  Biso   1.000  C
  C34      1.0000 0.73680  0.69890  0.14650  Biso   1.000  C
  C35      1.0000 0.53460  0.79020  0.93000  Biso   1.000  C
  C36      1.0000 0.31540  0.05550  0.76140  Biso   1.000  C
  C37      1.0000 0.27450  0.11850  0.70720  Biso   1.000  C
  H16      1.0000 0.25650  0.15310  0.72040  Biso   1.000  H
  C38      1.0000 0.26060  0.12950  0.63280  Biso   1.000  C
  H17      1.0000 0.23330  0.17230  0.59420  Biso   1.000  H
  C39      1.0000 0.28770  0.07650  0.61670  Biso   1.000  C
  H18      1.0000 0.28040  0.08440  0.56770  Biso   1.000  H
  C40      1.0000 0.32480  0.01290  0.67090  Biso   1.000  C
  C41      1.0000 0.33660  0.04160  0.84530  Biso   1.000  C
  C42      1.0000 0.35050  0.94600  0.65450  Biso   1.000  C
  Ce7      1.0000 0.16878  0.37107  0.01371  Biso   1.000  Ce
  Ce8      1.0000 0.88940  0.36283  0.82787  Biso   1.000  Ce
  O25      1.0000 0.24669  0.26580  0.12660  Biso   1.000  O
  O26      1.0000 0.27580  0.15100  0.20560  Biso   1.000  O
  O27      1.0000 0.05910  0.35490  0.93050  Biso   1.000  O
  O28      1.0000 0.97983  0.28310  0.88750  Biso   1.000  O
  O29      1.0000 0.86590  0.47400  0.88250  Biso   1.000  O
  O30      1.0000 0.82540  0.59740  0.87290  Biso   1.000  O
  O31      1.0000 0.87720  0.38350  0.70490  Biso   1.000  O
  O32      1.0000 0.84240  0.45360  0.59160  Biso   1.000  O
  N7       1.0000 0.13330  0.23260  0.03590  Biso   1.000  N
  N8       1.0000 0.83800  0.50240  0.74240  Biso   1.000  N
  C43      1.0000 0.17180  0.17450  0.09280  Biso   1.000  C
  C44      1.0000 0.15390  0.09980  0.10410  Biso   1.000  C
  H19      1.0000 0.18260  0.06010  0.14580  Biso   1.000  H
  C45      1.0000 0.09350  0.08420  0.05320  Biso   1.000  C
  H20      1.0000 0.07990  0.03270  0.05810  Biso   1.000  H
  C46      1.0000 0.05320  0.14490  0.99530  Biso   1.000  C
  H21      1.0000 0.01160  0.13640  0.96090  Biso   1.000  H
  C47      1.0000 0.07450  0.21840  0.98800  Biso   1.000  C
  C48      1.0000 0.23680  0.19890  0.14650  Biso   1.000  C
  C49      1.0000 0.03460  0.29020  0.93000  Biso   1.000  C
  C50      1.0000 0.81540  0.55550  0.76140  Biso   1.000  C
  C51      1.0000 0.77450  0.61850  0.70720  Biso   1.000  C
  H22      1.0000 0.75650  0.65310  0.72040  Biso   1.000  H
  C52      1.0000 0.76060  0.62950  0.63280  Biso   1.000  C
  H23      1.0000 0.73330  0.67230  0.59420  Biso   1.000  H
  C53      1.0000 0.78770  0.57650  0.61670  Biso   1.000  C
  H24      1.0000 0.78040  0.58440  0.56770  Biso   1.000  H
  C54      1.0000 0.82480  0.51290  0.67090  Biso   1.000  C
  C55      1.0000 0.83660  0.54160  0.84530  Biso   1.000  C
  C56      1.0000 0.85050  0.44600  0.65450  Biso   1.000  C
  Ce9      1.0000 0.66878  0.12893  0.51371  Biso   1.000  Ce
  Ce10     1.0000 0.38940  0.13717  0.32787  Biso   1.000  Ce
  O33      1.0000 0.74669  0.23420  0.62660  Biso   1.000  O
  O34      1.0000 0.77580  0.34900  0.70560  Biso   1.000  O
  O35      1.0000 0.55910  0.14510  0.43050  Biso   1.000  O
  O36      1.0000 0.47983  0.21690  0.38750  Biso   1.000  O
  O37      1.0000 0.36590  0.02600  0.38250  Biso   1.000  O
  O38      1.0000 0.32540  0.90260  0.37290  Biso   1.000  O
  O39      1.0000 0.37720  0.11650  0.20490  Biso   1.000  O
  O40      1.0000 0.34240  0.04640  0.09160  Biso   1.000  O
  N9       1.0000 0.63330  0.26740  0.53590  Biso   1.000  N
  N10      1.0000 0.33800  0.99760  0.24240  Biso   1.000  N
  C57      1.0000 0.67180  0.32550  0.59280  Biso   1.000  C
  C58      1.0000 0.65390  0.40020  0.60410  Biso   1.000  C
  H25      1.0000 0.68260  0.43990  0.64580  Biso   1.000  H
  C59      1.0000 0.59350  0.41580  0.55320  Biso   1.000  C
  H26      1.0000 0.57990  0.46730  0.55810  Biso   1.000  H
  C60      1.0000 0.55320  0.35510  0.49530  Biso   1.000  C
  H27      1.0000 0.51160  0.36360  0.46090  Biso   1.000  H
  C61      1.0000 0.57450  0.28160  0.48800  Biso   1.000  C
  C62      1.0000 0.73680  0.30110  0.64650  Biso   1.000  C
  C63      1.0000 0.53460  0.20980  0.43000  Biso   1.000  C
  C64      1.0000 0.31540  0.94450  0.26140  Biso   1.000  C
  C65      1.0000 0.27450  0.88150  0.20720  Biso   1.000  C
  H28      1.0000 0.25650  0.84690  0.22040  Biso   1.000  H
  C66      1.0000 0.26060  0.87050  0.13280  Biso   1.000  C
  H29      1.0000 0.23330  0.82770  0.09420  Biso   1.000  H
  C67      1.0000 0.28770  0.92350  0.11670  Biso   1.000  C
  H30      1.0000 0.28040  0.91560  0.06770  Biso   1.000  H
  C68      1.0000 0.32480  0.98710  0.17090  Biso   1.000  C
  C69      1.0000 0.33660  0.95840  0.34530  Biso   1.000  C
  C70      1.0000 0.35050  0.05400  0.15450  Biso   1.000  C
  Ce11     1.0000 0.16878  0.62893  0.51371  Biso   1.000  Ce
  Ce12     1.0000 0.88940  0.63717  0.32787  Biso   1.000  Ce
  O41      1.0000 0.24669  0.73420  0.62660  Biso   1.000  O
  O42      1.0000 0.27580  0.84900  0.70560  Biso   1.000  O
  O43      1.0000 0.05910  0.64510  0.43050  Biso   1.000  O
  O44      1.0000 0.97983  0.71690  0.38750  Biso   1.000  O
  O45      1.0000 0.86590  0.52600  0.38250  Biso   1.000  O
  O46      1.0000 0.82540  0.40260  0.37290  Biso   1.000  O
  O47      1.0000 0.87720  0.61650  0.20490  Biso   1.000  O
  O48      1.0000 0.84240  0.54640  0.09160  Biso   1.000  O
  N11      1.0000 0.13330  0.76740  0.53590  Biso   1.000  N
  N12      1.0000 0.83800  0.49760  0.24240  Biso   1.000  N
  C71      1.0000 0.17180  0.82550  0.59280  Biso   1.000  C
  C72      1.0000 0.15390  0.90020  0.60410  Biso   1.000  C
  H31      1.0000 0.18260  0.93990  0.64580  Biso   1.000  H
  C73      1.0000 0.09350  0.91580  0.55320  Biso   1.000  C
  H32      1.0000 0.07990  0.96730  0.55810  Biso   1.000  H
  C74      1.0000 0.05320  0.85510  0.49530  Biso   1.000  C
  H33      1.0000 0.01160  0.86360  0.46090  Biso   1.000  H
  C75      1.0000 0.07450  0.78160  0.48800  Biso   1.000  C
  C76      1.0000 0.23680  0.80110  0.64650  Biso   1.000  C
  C77      1.0000 0.03460  0.70980  0.43000  Biso   1.000  C
  C78      1.0000 0.81540  0.44450  0.26140  Biso   1.000  C
  C79      1.0000 0.77450  0.38150  0.20720  Biso   1.000  C
  H34      1.0000 0.75650  0.34690  0.22040  Biso   1.000  H
  C80      1.0000 0.76060  0.37050  0.13280  Biso   1.000  C
  H35      1.0000 0.73330  0.32770  0.09420  Biso   1.000  H
  C81      1.0000 0.78770  0.42350  0.11670  Biso   1.000  C
  H36      1.0000 0.78040  0.41560  0.06770  Biso   1.000  H
  C82      1.0000 0.82480  0.48710  0.17090  Biso   1.000  C
  C83      1.0000 0.83660  0.45840  0.34530  Biso   1.000  C
  C84      1.0000 0.85050  0.55400  0.15450  Biso   1.000  C
  Ce13     1.0000 0.33122  0.12893  0.98629  Biso   1.000  Ce
  Ce14     1.0000 0.61060  0.13717  0.17213  Biso   1.000  Ce
  O49      1.0000 0.25331  0.23420  0.87340  Biso   1.000  O
  O50      1.0000 0.22420  0.34900  0.79440  Biso   1.000  O
  O51      1.0000 0.44090  0.14510  0.06950  Biso   1.000  O
  O52      1.0000 0.52017  0.21690  0.11250  Biso   1.000  O
  O53      1.0000 0.63410  0.02600  0.11750  Biso   1.000  O
  O54      1.0000 0.67460  0.90260  0.12710  Biso   1.000  O
  O55      1.0000 0.62280  0.11650  0.29510  Biso   1.000  O
  O56      1.0000 0.65760  0.04640  0.40840  Biso   1.000  O
  N13      1.0000 0.36670  0.26740  0.96410  Biso   1.000  N
  N14      1.0000 0.66200  0.99760  0.25760  Biso   1.000  N
  C85      1.0000 0.32820  0.32550  0.90720  Biso   1.000  C
  C86      1.0000 0.34610  0.40020  0.89590  Biso   1.000  C
  H37      1.0000 0.31740  0.43990  0.85420  Biso   1.000  H
  C87      1.0000 0.40650  0.41580  0.94680  Biso   1.000  C
  H38      1.0000 0.42010  0.46730  0.94190  Biso   1.000  H
  C88      1.0000 0.44680  0.35510  0.00470  Biso   1.000  C
  H39      1.0000 0.48840  0.36360  0.03910  Biso   1.000  H
  C89      1.0000 0.42550  0.28160  0.01200  Biso   1.000  C
  C90      1.0000 0.26320  0.30110  0.85350  Biso   1.000  C
  C91      1.0000 0.46540  0.20980  0.07000  Biso   1.000  C
  C92      1.0000 0.68460  0.94450  0.23860  Biso   1.000  C
  C93      1.0000 0.72550  0.88150  0.29280  Biso   1.000  C
  H40      1.0000 0.74350  0.84690  0.27960  Biso   1.000  H
  C94      1.0000 0.73940  0.87050  0.36720  Biso   1.000  C
  H41      1.0000 0.76670  0.82770  0.40580  Biso   1.000  H
  C95      1.0000 0.71230  0.92350  0.38330  Biso   1.000  C
  H42      1.0000 0.71960  0.91560  0.43230  Biso   1.000  H
  C96      1.0000 0.67520  0.98710  0.32910  Biso   1.000  C
  C97      1.0000 0.66340  0.95840  0.15470  Biso   1.000  C
  C98      1.0000 0.64950  0.05400  0.34550  Biso   1.000  C
  Ce15     1.0000 0.83122  0.62893  0.98629  Biso   1.000  Ce
  Ce16     1.0000 0.11060  0.63717  0.17213  Biso   1.000  Ce
  O57      1.0000 0.75331  0.73420  0.87340  Biso   1.000  O
  O58      1.0000 0.72420  0.84900  0.79440  Biso   1.000  O
  O59      1.0000 0.94090  0.64510  0.06950  Biso   1.000  O
  O60      1.0000 0.02017  0.71690  0.11250  Biso   1.000  O
  O61      1.0000 0.13410  0.52600  0.11750  Biso   1.000  O
  O62      1.0000 0.17460  0.40260  0.12710  Biso   1.000  O
  O63      1.0000 0.12280  0.61650  0.29510  Biso   1.000  O
  O64      1.0000 0.15760  0.54640  0.40840  Biso   1.000  O
  N15      1.0000 0.86670  0.76740  0.96410  Biso   1.000  N
  N16      1.0000 0.16200  0.49760  0.25760  Biso   1.000  N
  C99      1.0000 0.82820  0.82550  0.90720  Biso   1.000  C
  C100     1.0000 0.84610  0.90020  0.89590  Biso   1.000  C
  H43      1.0000 0.81740  0.93990  0.85420  Biso   1.000  H
  C101     1.0000 0.90650  0.91580  0.94680  Biso   1.000  C
  H44      1.0000 0.92010  0.96730  0.94190  Biso   1.000  H
  C102     1.0000 0.94680  0.85510  0.00470  Biso   1.000  C
  H45      1.0000 0.98840  0.86360  0.03910  Biso   1.000  H
  C103     1.0000 0.92550  0.78160  0.01200  Biso   1.000  C
  C104     1.0000 0.76320  0.80110  0.85350  Biso   1.000  C
  C105     1.0000 0.96540  0.70980  0.07000  Biso   1.000  C
  C106     1.0000 0.18460  0.44450  0.23860  Biso   1.000  C
  C107     1.0000 0.22550  0.38150  0.29280  Biso   1.000  C
  H46      1.0000 0.24350  0.34690  0.27960  Biso   1.000  H
  C108     1.0000 0.23940  0.37050  0.36720  Biso   1.000  C
  H47      1.0000 0.26670  0.32770  0.40580  Biso   1.000  H
  C109     1.0000 0.21230  0.42350  0.38330  Biso   1.000  C
  H48      1.0000 0.21960  0.41560  0.43230  Biso   1.000  H
  C110     1.0000 0.17520  0.48710  0.32910  Biso   1.000  C
  C111     1.0000 0.16340  0.45840  0.15470  Biso   1.000  C
  C112     1.0000 0.14950  0.55400  0.34550  Biso   1.000  C
