data_image0
_cell_length_a       10.281
_cell_length_b       13.844
_cell_length_c       17.064
_cell_angle_alpha    90
_cell_angle_beta     90
_cell_angle_gamma    90

_symmetry_space_group_name_H-M    "P 1"
_symmetry_int_tables_number       1

loop_
  _symmetry_equiv_pos_as_xyz
  'x, y, z'

loop_
  _atom_site_label
  _atom_site_occupancy
  _atom_site_fract_x
  _atom_site_fract_y
  _atom_site_fract_z
  _atom_site_thermal_displace_type
  _atom_site_B_iso_or_equiv
  _atom_site_type_symbol
  P1       1.0000 0.36760  0.25328  0.20387  Biso   1.000  P
  P2       1.0000 0.12630  0.46013  0.33711  Biso   1.000  P
  P3       1.0000 0.37070  0.56668  0.58027  Biso   1.000  P
  Al1      1.0000 0.32980  0.47890  0.19812  Biso   1.000  Al
  Al2      1.0000 0.37490  0.56170  0.39344  Biso   1.000  Al
  Al3      1.0000 0.12190  0.24140  0.30632  Biso   1.000  Al
  O1       1.0000 0.32700  0.35310  0.17740  Biso   1.000  O
  O2       1.0000 0.11820  0.35120  0.35550  Biso   1.000  O
  O3       1.0000 0.40360  0.51820  0.28920  Biso   1.000  O
  O4       1.0000 0.35870  0.18570  0.13500  Biso   1.000  O
  O5       1.0000 0.22040  0.50240  0.39590  Biso   1.000  O
  O6       1.0000 0.16850  0.47630  0.25300  Biso   1.000  O
  O7       1.0000 0.46670  0.48330  0.58450  Biso   1.000  O
  O8       1.0000 0.42290  0.65290  0.62740  Biso   1.000  O
  O9       1.0000 0.35020  0.59910  0.49670  Biso   1.000  O
  O10      1.0000 0.23940  0.53750  0.61490  Biso   1.000  O
  O11      1.0000 0.27790  0.21930  0.27030  Biso   1.000  O
  O12      1.0000 0.99460  0.50470  0.35130  Biso   1.000  O
  O13      1.0000 0.50760  0.25500  0.23250  Biso   1.000  O
  H1       1.0000 0.50190  0.52960  0.28620  Biso   1.000  H
  P4       1.0000 0.63240  0.24672  0.70387  Biso   1.000  P
  P5       1.0000 0.87370  0.03987  0.83711  Biso   1.000  P
  P6       1.0000 0.62930  0.93332  0.08027  Biso   1.000  P
  Al4      1.0000 0.67020  0.02110  0.69812  Biso   1.000  Al
  Al5      1.0000 0.62510  0.93830  0.89344  Biso   1.000  Al
  Al6      1.0000 0.87810  0.25860  0.80632  Biso   1.000  Al
  O14      1.0000 0.67300  0.14690  0.67740  Biso   1.000  O
  O15      1.0000 0.88180  0.14880  0.85550  Biso   1.000  O
  O16      1.0000 0.59640  0.98180  0.78920  Biso   1.000  O
  O17      1.0000 0.64130  0.31430  0.63500  Biso   1.000  O
  O18      1.0000 0.77960  0.99760  0.89590  Biso   1.000  O
  O19      1.0000 0.83150  0.02370  0.75300  Biso   1.000  O
  O20      1.0000 0.53330  0.01670  0.08450  Biso   1.000  O
  O21      1.0000 0.57710  0.84710  0.12740  Biso   1.000  O
  O22      1.0000 0.64980  0.90090  0.99670  Biso   1.000  O
  O23      1.0000 0.76060  0.96250  0.11490  Biso   1.000  O
  O24      1.0000 0.72210  0.28070  0.77030  Biso   1.000  O
  O25      1.0000 0.00540  0.99530  0.85130  Biso   1.000  O
  O26      1.0000 0.49240  0.24500  0.73250  Biso   1.000  O
  H2       1.0000 0.49810  0.97040  0.78620  Biso   1.000  H
  P7       1.0000 0.86760  0.74672  0.29613  Biso   1.000  P
  P8       1.0000 0.62630  0.53987  0.16289  Biso   1.000  P
  P9       1.0000 0.87070  0.43332  0.91973  Biso   1.000  P
  Al7      1.0000 0.82980  0.52110  0.30188  Biso   1.000  Al
  Al8      1.0000 0.87490  0.43830  0.10656  Biso   1.000  Al
  Al9      1.0000 0.62190  0.75860  0.19368  Biso   1.000  Al
  O27      1.0000 0.82700  0.64690  0.32260  Biso   1.000  O
  O28      1.0000 0.61820  0.64880  0.14450  Biso   1.000  O
  O29      1.0000 0.90360  0.48180  0.21080  Biso   1.000  O
  O30      1.0000 0.85870  0.81430  0.36500  Biso   1.000  O
  O31      1.0000 0.72040  0.49760  0.10410  Biso   1.000  O
  O32      1.0000 0.66850  0.52370  0.24700  Biso   1.000  O
  O33      1.0000 0.96670  0.51670  0.91550  Biso   1.000  O
  O34      1.0000 0.92290  0.34710  0.87260  Biso   1.000  O
  O35      1.0000 0.85020  0.40090  0.00330  Biso   1.000  O
  O36      1.0000 0.73940  0.46250  0.88510  Biso   1.000  O
  O37      1.0000 0.77790  0.78070  0.22970  Biso   1.000  O
  O38      1.0000 0.49460  0.49530  0.14870  Biso   1.000  O
  O39      1.0000 0.00760  0.74500  0.26750  Biso   1.000  O
  H3       1.0000 0.00190  0.47040  0.21380  Biso   1.000  H
  P10      1.0000 0.13240  0.75328  0.79613  Biso   1.000  P
  P11      1.0000 0.37370  0.96013  0.66289  Biso   1.000  P
  P12      1.0000 0.12930  0.06668  0.41973  Biso   1.000  P
  Al10     1.0000 0.17020  0.97890  0.80188  Biso   1.000  Al
  Al11     1.0000 0.12510  0.06170  0.60656  Biso   1.000  Al
  Al12     1.0000 0.37810  0.74140  0.69368  Biso   1.000  Al
  O40      1.0000 0.17300  0.85310  0.82260  Biso   1.000  O
  O41      1.0000 0.38180  0.85120  0.64450  Biso   1.000  O
  O42      1.0000 0.09640  0.01820  0.71080  Biso   1.000  O
  O43      1.0000 0.14130  0.68570  0.86500  Biso   1.000  O
  O44      1.0000 0.27960  0.00240  0.60410  Biso   1.000  O
  O45      1.0000 0.33150  0.97630  0.74700  Biso   1.000  O
  O46      1.0000 0.03330  0.98330  0.41550  Biso   1.000  O
  O47      1.0000 0.07710  0.15290  0.37260  Biso   1.000  O
  O48      1.0000 0.14980  0.09910  0.50330  Biso   1.000  O
  O49      1.0000 0.26060  0.03750  0.38510  Biso   1.000  O
  O50      1.0000 0.22210  0.71930  0.72970  Biso   1.000  O
  O51      1.0000 0.50540  0.00470  0.64870  Biso   1.000  O
  O52      1.0000 0.99240  0.75500  0.76750  Biso   1.000  O
  H4       1.0000 0.99810  0.02960  0.71380  Biso   1.000  H
  P13      1.0000 0.63240  0.74672  0.79613  Biso   1.000  P
  P14      1.0000 0.87370  0.53987  0.66289  Biso   1.000  P
  P15      1.0000 0.62930  0.43332  0.41973  Biso   1.000  P
  Al13     1.0000 0.67020  0.52110  0.80188  Biso   1.000  Al
  Al14     1.0000 0.62510  0.43830  0.60656  Biso   1.000  Al
  Al15     1.0000 0.87810  0.75860  0.69368  Biso   1.000  Al
  O53      1.0000 0.67300  0.64690  0.82260  Biso   1.000  O
  O54      1.0000 0.88180  0.64880  0.64450  Biso   1.000  O
  O55      1.0000 0.59640  0.48180  0.71080  Biso   1.000  O
  O56      1.0000 0.64130  0.81430  0.86500  Biso   1.000  O
  O57      1.0000 0.77960  0.49760  0.60410  Biso   1.000  O
  O58      1.0000 0.83150  0.52370  0.74700  Biso   1.000  O
  O59      1.0000 0.53330  0.51670  0.41550  Biso   1.000  O
  O60      1.0000 0.57710  0.34710  0.37260  Biso   1.000  O
  O61      1.0000 0.64980  0.40090  0.50330  Biso   1.000  O
  O62      1.0000 0.76060  0.46250  0.38510  Biso   1.000  O
  O63      1.0000 0.72210  0.78070  0.72970  Biso   1.000  O
  O64      1.0000 0.00540  0.49530  0.64870  Biso   1.000  O
  O65      1.0000 0.49240  0.74500  0.76750  Biso   1.000  O
  H5       1.0000 0.49810  0.47040  0.71380  Biso   1.000  H
  P16      1.0000 0.36760  0.75328  0.29613  Biso   1.000  P
  P17      1.0000 0.12630  0.96013  0.16289  Biso   1.000  P
  P18      1.0000 0.37070  0.06668  0.91973  Biso   1.000  P
  Al16     1.0000 0.32980  0.97890  0.30188  Biso   1.000  Al
  Al17     1.0000 0.37490  0.06170  0.10656  Biso   1.000  Al
  Al18     1.0000 0.12190  0.74140  0.19368  Biso   1.000  Al
  O66      1.0000 0.32700  0.85310  0.32260  Biso   1.000  O
  O67      1.0000 0.11820  0.85120  0.14450  Biso   1.000  O
  O68      1.0000 0.40360  0.01820  0.21080  Biso   1.000  O
  O69      1.0000 0.35870  0.68570  0.36500  Biso   1.000  O
  O70      1.0000 0.22040  0.00240  0.10410  Biso   1.000  O
  O71      1.0000 0.16850  0.97630  0.24700  Biso   1.000  O
  O72      1.0000 0.46670  0.98330  0.91550  Biso   1.000  O
  O73      1.0000 0.42290  0.15290  0.87260  Biso   1.000  O
  O74      1.0000 0.35020  0.09910  0.00330  Biso   1.000  O
  O75      1.0000 0.23940  0.03750  0.88510  Biso   1.000  O
  O76      1.0000 0.27790  0.71930  0.22970  Biso   1.000  O
  O77      1.0000 0.99460  0.00470  0.14870  Biso   1.000  O
  O78      1.0000 0.50760  0.75500  0.26750  Biso   1.000  O
  H6       1.0000 0.50190  0.02960  0.21380  Biso   1.000  H
  P19      1.0000 0.13240  0.25328  0.70387  Biso   1.000  P
  P20      1.0000 0.37370  0.46013  0.83711  Biso   1.000  P
  P21      1.0000 0.12930  0.56668  0.08027  Biso   1.000  P
  Al19     1.0000 0.17020  0.47890  0.69812  Biso   1.000  Al
  Al20     1.0000 0.12510  0.56170  0.89344  Biso   1.000  Al
  Al21     1.0000 0.37810  0.24140  0.80632  Biso   1.000  Al
  O79      1.0000 0.17300  0.35310  0.67740  Biso   1.000  O
  O80      1.0000 0.38180  0.35120  0.85550  Biso   1.000  O
  O81      1.0000 0.09640  0.51820  0.78920  Biso   1.000  O
  O82      1.0000 0.14130  0.18570  0.63500  Biso   1.000  O
  O83      1.0000 0.27960  0.50240  0.89590  Biso   1.000  O
  O84      1.0000 0.33150  0.47630  0.75300  Biso   1.000  O
  O85      1.0000 0.03330  0.48330  0.08450  Biso   1.000  O
  O86      1.0000 0.07710  0.65290  0.12740  Biso   1.000  O
  O87      1.0000 0.14980  0.59910  0.99670  Biso   1.000  O
  O88      1.0000 0.26060  0.53750  0.11490  Biso   1.000  O
  O89      1.0000 0.22210  0.21930  0.77030  Biso   1.000  O
  O90      1.0000 0.50540  0.50470  0.85130  Biso   1.000  O
  O91      1.0000 0.99240  0.25500  0.73250  Biso   1.000  O
  H7       1.0000 0.99810  0.52960  0.78620  Biso   1.000  H
  P22      1.0000 0.86760  0.24672  0.20387  Biso   1.000  P
  P23      1.0000 0.62630  0.03987  0.33711  Biso   1.000  P
  P24      1.0000 0.87070  0.93332  0.58027  Biso   1.000  P
  Al22     1.0000 0.82980  0.02110  0.19812  Biso   1.000  Al
  Al23     1.0000 0.87490  0.93830  0.39344  Biso   1.000  Al
  Al24     1.0000 0.62190  0.25860  0.30632  Biso   1.000  Al
  O92      1.0000 0.82700  0.14690  0.17740  Biso   1.000  O
  O93      1.0000 0.61820  0.14880  0.35550  Biso   1.000  O
  O94      1.0000 0.90360  0.98180  0.28920  Biso   1.000  O
  O95      1.0000 0.85870  0.31430  0.13500  Biso   1.000  O
  O96      1.0000 0.72040  0.99760  0.39590  Biso   1.000  O
  O97      1.0000 0.66850  0.02370  0.25300  Biso   1.000  O
  O98      1.0000 0.96670  0.01670  0.58450  Biso   1.000  O
  O99      1.0000 0.92290  0.84710  0.62740  Biso   1.000  O
  O100     1.0000 0.85020  0.90090  0.49670  Biso   1.000  O
  O101     1.0000 0.73940  0.96250  0.61490  Biso   1.000  O
  O102     1.0000 0.77790  0.28070  0.27030  Biso   1.000  O
  O103     1.0000 0.49460  0.99530  0.35130  Biso   1.000  O
  O104     1.0000 0.00760  0.24500  0.23250  Biso   1.000  O
  H8       1.0000 0.00190  0.97040  0.28620  Biso   1.000  H
