data_LEZLAF_clean
_audit_creation_date              2014-07-02
_audit_creation_method            'Materials Studio'
_symmetry_space_group_name_H-M    'P1'
_symmetry_Int_Tables_number       1
_symmetry_cell_setting            triclinic
loop_
_symmetry_equiv_pos_as_xyz
  x,y,z
_cell_length_a                    11.7271
_cell_length_b                    11.7707
_cell_length_c                    18.2633
_cell_angle_alpha                 90.0000
_cell_angle_beta                  98.7040
_cell_angle_gamma                 90.0000
loop_
_atom_site_label
_atom_site_type_symbol
_atom_site_fract_x
_atom_site_fract_y
_atom_site_fract_z
_atom_site_U_iso_or_equiv
_atom_site_adp_type
_atom_site_occupancy
Ag1    Ag    0.35570   0.60152   0.01521   0.01267  Uiso   1.00
Ag2    Ag    0.35991   0.13228   0.50423   0.01267  Uiso   1.00
Ag3    Ag    0.87883   0.60307   0.92201   0.01267  Uiso   1.00
Ag4    Ag    0.64430   0.10152   0.98479   0.01267  Uiso   1.00
Ag5    Ag    0.64009   0.63228   0.49577   0.01267  Uiso   1.00
Ag6    Ag    0.12117   0.10307   0.07799   0.01267  Uiso   1.00
P1     P     0.14456   0.91204   0.11485   0.01267  Uiso   1.00
P2     P     0.59597   0.80869   0.44037   0.01267  Uiso   1.00
P3     P     0.48655   0.71465   0.95908   0.01267  Uiso   1.00
P4     P     0.85544   0.41204   0.88515   0.01267  Uiso   1.00
P5     P     0.40403   0.30869   0.55963   0.01267  Uiso   1.00
P6     P     0.51345   0.21465   0.04092   0.01267  Uiso   1.00
H1     H     0.89980   0.77220   0.76030   0.01267  Uiso   1.00
H2     H     0.12020   0.44940   0.74220   0.01267  Uiso   1.00
H3     H     0.31380   0.85300   0.06800   0.01267  Uiso   1.00
H4     H     0.20190   0.81550   0.01180   0.01267  Uiso   1.00
H5     H     0.16860   0.91240   0.24690   0.01267  Uiso   1.00
H6     H     0.29240   0.91230   0.22010   0.01267  Uiso   1.00
H7     H     0.97780   0.81220   0.05910   0.01267  Uiso   1.00
H8     H     0.96460   0.84560   0.14240   0.01267  Uiso   1.00
H9     H     0.13890   0.56650   0.10290   0.01267  Uiso   1.00
H10    H     0.09210   0.65130   0.03680   0.01267  Uiso   1.00
H11    H     0.37130   0.74740   0.18160   0.01267  Uiso   1.00
H12    H     0.31630   0.62570   0.19310   0.01267  Uiso   1.00
H13    H     0.11770   0.62230   0.23130   0.01267  Uiso   1.00
H14    H     0.05900   0.74220   0.24300   0.01267  Uiso   1.00
H15    H     0.63340   0.07530   0.50850   0.01267  Uiso   1.00
H16    H     0.59220   0.15440   0.43840   0.01267  Uiso   1.00
H17    H     0.77980   0.87450   0.42110   0.01267  Uiso   1.00
H18    H     0.75330   0.91670   0.50010   0.01267  Uiso   1.00
H19    H     0.69250   0.96990   0.30910   0.01267  Uiso   1.00
H20    H     0.62580   0.08740   0.31350   0.01267  Uiso   1.00
H21    H     0.37160   0.96290   0.35690   0.01267  Uiso   1.00
H22    H     0.42630   0.08410   0.34370   0.01267  Uiso   1.00
H23    H     0.51850   0.91350   0.53250   0.01267  Uiso   1.00
H24    H     0.41610   0.86970   0.47120   0.01267  Uiso   1.00
H25    H     0.46160   0.79290   0.32920   0.01267  Uiso   1.00
H26    H     0.59040   0.79170   0.30990   0.01267  Uiso   1.00
H27    H     0.75130   0.83140   0.00230   0.01267  Uiso   1.00
H28    H     0.78120   0.87840   0.92520   0.01267  Uiso   1.00
H29    H     0.62590   0.57630   0.93880   0.01267  Uiso   1.00
H30    H     0.67240   0.64840   0.01160   0.01267  Uiso   1.00
H31    H     0.70540   0.76560   0.81030   0.01267  Uiso   1.00
H32    H     0.63360   0.65280   0.82080   0.01267  Uiso   1.00
H33    H     0.61900   0.94990   0.83240   0.01267  Uiso   1.00
H34    H     0.49190   0.95520   0.85360   0.01267  Uiso   1.00
H35    H     0.56460   0.86170   0.03650   0.01267  Uiso   1.00
H36    H     0.46000   0.90830   0.97790   0.01267  Uiso   1.00
H37    H     0.37390   0.78720   0.85070   0.01267  Uiso   1.00
H38    H     0.42680   0.66640   0.83330   0.01267  Uiso   1.00
H39    H     0.10020   0.27220   0.23970   0.01267  Uiso   1.00
H40    H     0.87980   0.94940   0.25780   0.01267  Uiso   1.00
H41    H     0.68620   0.35300   0.93200   0.01267  Uiso   1.00
H42    H     0.79810   0.31550   0.98820   0.01267  Uiso   1.00
H43    H     0.83140   0.41240   0.75310   0.01267  Uiso   1.00
H44    H     0.70760   0.41230   0.77990   0.01267  Uiso   1.00
H45    H     0.02220   0.31220   0.94090   0.01267  Uiso   1.00
H46    H     0.03540   0.34560   0.85760   0.01267  Uiso   1.00
H47    H     0.86110   0.06650   0.89710   0.01267  Uiso   1.00
H48    H     0.90790   0.15130   0.96320   0.01267  Uiso   1.00
H49    H     0.62870   0.24740   0.81840   0.01267  Uiso   1.00
H50    H     0.68370   0.12570   0.80690   0.01267  Uiso   1.00
H51    H     0.88230   0.12230   0.76870   0.01267  Uiso   1.00
H52    H     0.94100   0.24220   0.75700   0.01267  Uiso   1.00
H53    H     0.36660   0.57530   0.49150   0.01267  Uiso   1.00
H54    H     0.40780   0.65440   0.56160   0.01267  Uiso   1.00
H55    H     0.22020   0.37450   0.57890   0.01267  Uiso   1.00
H56    H     0.24670   0.41670   0.49990   0.01267  Uiso   1.00
H57    H     0.30750   0.46990   0.69090   0.01267  Uiso   1.00
H58    H     0.37420   0.58740   0.68650   0.01267  Uiso   1.00
H59    H     0.62840   0.46290   0.64310   0.01267  Uiso   1.00
H60    H     0.57370   0.58410   0.65630   0.01267  Uiso   1.00
H61    H     0.48150   0.41350   0.46750   0.01267  Uiso   1.00
H62    H     0.58390   0.36970   0.52880   0.01267  Uiso   1.00
H63    H     0.53840   0.29290   0.67080   0.01267  Uiso   1.00
H64    H     0.40960   0.29170   0.69010   0.01267  Uiso   1.00
H65    H     0.24870   0.33140   0.99770   0.01267  Uiso   1.00
H66    H     0.21880   0.37840   0.07480   0.01267  Uiso   1.00
H67    H     0.37410   0.07630   0.06120   0.01267  Uiso   1.00
H68    H     0.32760   0.14840   0.98840   0.01267  Uiso   1.00
H69    H     0.29460   0.26560   0.18970   0.01267  Uiso   1.00
H70    H     0.36640   0.15280   0.17920   0.01267  Uiso   1.00
H71    H     0.38100   0.44990   0.16760   0.01267  Uiso   1.00
H72    H     0.50810   0.45520   0.14640   0.01267  Uiso   1.00
H73    H     0.43540   0.36170   0.96350   0.01267  Uiso   1.00
H74    H     0.54000   0.40830   0.02210   0.01267  Uiso   1.00
H75    H     0.62610   0.28720   0.14930   0.01267  Uiso   1.00
H76    H     0.57320   0.16640   0.16670   0.01267  Uiso   1.00
C1     C     0.09990   0.58220   0.80870   0.01267  Uiso   1.00
C2     C     0.03310   0.67980   0.81370   0.01267  Uiso   1.00
C3     C     0.94350   0.70490   0.75700   0.01267  Uiso   1.00
C4     C     0.91530   0.63330   0.69460   0.01267  Uiso   1.00
C5     C     0.98410   0.53600   0.68850   0.01267  Uiso   1.00
C6     C     0.07380   0.51460   0.74610   0.01267  Uiso   1.00
C7     C     0.19360   0.54940   0.87070   0.01267  Uiso   1.00
C8     C     0.05510   0.76550   0.87790   0.01267  Uiso   1.00
C9     C     0.96770   0.45320   0.62510   0.01267  Uiso   1.00
C10    C     0.81570   0.66060   0.63640   0.01267  Uiso   1.00
C11    C     0.23590   0.81900   0.06480   0.01267  Uiso   1.00
C12    C     0.21430   0.87830   0.21120   0.01267  Uiso   1.00
C13    C     0.01880   0.81520   0.11060   0.01267  Uiso   1.00
C14    C     0.12940   0.64770   0.08910   0.01267  Uiso   1.00
C15    C     0.29800   0.70440   0.17610   0.01267  Uiso   1.00
C16    C     0.10950   0.70140   0.21290   0.01267  Uiso   1.00
C17    C     0.60220   0.07440   0.45500   0.01267  Uiso   1.00
C18    C     0.71970   0.90760   0.44740   0.01267  Uiso   1.00
C19    C     0.63630   0.01020   0.33510   0.01267  Uiso   1.00
C20    C     0.44420   0.00720   0.36420   0.01267  Uiso   1.00
C21    C     0.49350   0.90520   0.47850   0.01267  Uiso   1.00
C22    C     0.53840   0.82910   0.34050   0.01267  Uiso   1.00
C23    C     0.72180   0.83870   0.94880   0.01267  Uiso   1.00
C24    C     0.63290   0.65400   0.95980   0.01267  Uiso   1.00
C25    C     0.65010   0.73090   0.83960   0.01267  Uiso   1.00
C26    C     0.56420   0.91060   0.86000   0.01267  Uiso   1.00
C27    C     0.52980   0.85990   0.98360   0.01267  Uiso   1.00
C28    C     0.44440   0.73980   0.85900   0.01267  Uiso   1.00
C29    C     0.90010   0.08220   0.19130   0.01267  Uiso   1.00
C30    C     0.96690   0.17980   0.18630   0.01267  Uiso   1.00
C31    C     0.05650   0.20490   0.24300   0.01267  Uiso   1.00
C32    C     0.08470   0.13330   0.30540   0.01267  Uiso   1.00
C33    C     0.01590   0.03600   0.31150   0.01267  Uiso   1.00
C34    C     0.92620   0.01460   0.25390   0.01267  Uiso   1.00
C35    C     0.80640   0.04940   0.12930   0.01267  Uiso   1.00
C36    C     0.94490   0.26550   0.12210   0.01267  Uiso   1.00
C37    C     0.03230   0.95320   0.37490   0.01267  Uiso   1.00
C38    C     0.18430   0.16060   0.36360   0.01267  Uiso   1.00
C39    C     0.76410   0.31900   0.93520   0.01267  Uiso   1.00
C40    C     0.78570   0.37830   0.78880   0.01267  Uiso   1.00
C41    C     0.98120   0.31520   0.88940   0.01267  Uiso   1.00
C42    C     0.87060   0.14770   0.91090   0.01267  Uiso   1.00
C43    C     0.70200   0.20440   0.82390   0.01267  Uiso   1.00
C44    C     0.89050   0.20140   0.78710   0.01267  Uiso   1.00
C45    C     0.39780   0.57440   0.54500   0.01267  Uiso   1.00
C46    C     0.28030   0.40760   0.55260   0.01267  Uiso   1.00
C47    C     0.36370   0.51020   0.66490   0.01267  Uiso   1.00
C48    C     0.55580   0.50720   0.63580   0.01267  Uiso   1.00
C49    C     0.50650   0.40520   0.52150   0.01267  Uiso   1.00
C50    C     0.46160   0.32910   0.65950   0.01267  Uiso   1.00
C51    C     0.27820   0.33870   0.05120   0.01267  Uiso   1.00
C52    C     0.36710   0.15400   0.04020   0.01267  Uiso   1.00
C53    C     0.34990   0.23090   0.16040   0.01267  Uiso   1.00
C54    C     0.43580   0.41060   0.14000   0.01267  Uiso   1.00
C55    C     0.47020   0.35990   0.01640   0.01267  Uiso   1.00
C56    C     0.55560   0.23980   0.14100   0.01267  Uiso   1.00
N1     N     0.24680   0.70160   0.09540   0.01267  Uiso   1.00
N2     N     0.22310   0.75560   0.22350   0.01267  Uiso   1.00
N3     N     0.05390   0.70030   0.13510   0.01267  Uiso   1.00
N4     N     0.48480   0.01770   0.44480   0.01267  Uiso   1.00
N5     N     0.68640   0.02100   0.41540   0.01267  Uiso   1.00
N6     N     0.52830   0.95150   0.32110   0.01267  Uiso   1.00
N7     N     0.61290   0.90940   0.93910   0.01267  Uiso   1.00
N8     N     0.70350   0.72460   0.91640   0.01267  Uiso   1.00
N9     N     0.53980   0.79860   0.82780   0.01267  Uiso   1.00
N10    N     0.75320   0.20160   0.90460   0.01267  Uiso   1.00
N11    N     0.77690   0.25560   0.77650   0.01267  Uiso   1.00
N12    N     0.94610   0.20030   0.86490   0.01267  Uiso   1.00
N13    N     0.51520   0.51770   0.55520   0.01267  Uiso   1.00
N14    N     0.31360   0.52100   0.58460   0.01267  Uiso   1.00
N15    N     0.47170   0.45150   0.67890   0.01267  Uiso   1.00
N16    N     0.38710   0.40940   0.06090   0.01267  Uiso   1.00
N17    N     0.29650   0.22460   0.08360   0.01267  Uiso   1.00
N18    N     0.46020   0.29860   0.17220   0.01267  Uiso   1.00
O1     O     0.18530   0.58180   0.93360   0.01267  Uiso   1.00
O2     O     0.27400   0.48400   0.85560   0.01267  Uiso   1.00
O3     O     0.98620   0.76200   0.92420   0.01267  Uiso   1.00
O4     O     0.12890   0.83870   0.87470   0.01267  Uiso   1.00
O5     O     0.02410   0.46910   0.57300   0.01267  Uiso   1.00
O6     O     0.90550   0.36920   0.63110   0.01267  Uiso   1.00
O7     O     0.75470   0.74780   0.64510   0.01267  Uiso   1.00
O8     O     0.79380   0.59460   0.58350   0.01267  Uiso   1.00
O9     O     0.81470   0.08180   0.06640   0.01267  Uiso   1.00
O10    O     0.72600   0.98400   0.14440   0.01267  Uiso   1.00
O11    O     0.01380   0.26200   0.07580   0.01267  Uiso   1.00
O12    O     0.87110   0.33870   0.12530   0.01267  Uiso   1.00
O13    O     0.97590   0.96910   0.42700   0.01267  Uiso   1.00
O14    O     0.09450   0.86920   0.36890   0.01267  Uiso   1.00
O15    O     0.24530   0.24780   0.35490   0.01267  Uiso   1.00
O16    O     0.20620   0.09460   0.41650   0.01267  Uiso   1.00
