data_image0
_cell_length_a       16.6308
_cell_length_b       16.6308
_cell_length_c       51.164
_cell_angle_alpha    90
_cell_angle_beta     90
_cell_angle_gamma    120

_symmetry_space_group_name_H-M    "P 1"
_symmetry_int_tables_number       1

loop_
  _symmetry_equiv_pos_as_xyz
  'x, y, z'

loop_
  _atom_site_label
  _atom_site_occupancy
  _atom_site_fract_x
  _atom_site_fract_y
  _atom_site_fract_z
  _atom_site_thermal_displace_type
  _atom_site_B_iso_or_equiv
  _atom_site_type_symbol
  W1       1.0000 0.52541  0.63951  0.17242  Biso   1.000  W
  W2       1.0000 0.29141  0.43915  0.16837  Biso   1.000  W
  W3       1.0000 0.39246  0.59167  0.11161  Biso   1.000  W
  W4       1.0000 0.48007  0.73175  0.22288  Biso   1.000  W
  Lu1      1.0000 0.77256  0.65682  0.17278  Biso   1.000  Lu
  C1       1.0000 0.68350  0.71440  0.09430  Biso   1.000  C
  O1       1.0000 0.42230  0.52760  0.17650  Biso   1.000  O
  O2       1.0000 0.61320  0.61110  0.16890  Biso   1.000  O
  O3       1.0000 0.61230  0.77350  0.16340  Biso   1.000  O
  C2       1.0000 0.60420  0.71250  0.05430  Biso   1.000  C
  O4       1.0000 0.26270  0.55060  0.17920  Biso   1.000  O
  O5       1.0000 0.48760  0.63360  0.13480  Biso   1.000  O
  N1       1.0000 0.66260  0.83850  0.08480  Biso   1.000  N
  O6       1.0000 0.52810  0.58020  0.02950  Biso   1.000  O
  O7       1.0000 0.75410  0.70770  0.13370  Biso   1.000  O
  O8       1.0000 0.27500  0.42970  0.20600  Biso   1.000  O
  O9       1.0000 0.31900  0.48760  0.13370  Biso   1.000  O
  O10      1.0000 0.39380  0.77070  0.22560  Biso   1.000  O
  O11      1.0000 0.44000  0.71010  0.09550  Biso   1.000  O
  O12      1.0000 0.53340  0.70390  0.01450  Biso   1.000  O
  C3       1.0000 0.71900  0.66520  0.11150  Biso   1.000  C
  O13      1.0000 0.71770  0.59420  0.10440  Biso   1.000  O
  C4       1.0000 0.55070  0.66150  0.03090  Biso   1.000  C
  O14      1.0000 0.54790  0.66910  0.20810  Biso   1.000  O
  C5       1.0000 0.61780  0.79940  0.06230  Biso   1.000  C
  H1       1.0000 0.59560  0.83160  0.05170  Biso   1.000  H
  C6       1.0000 0.69320  0.79780  0.09930  Biso   1.000  C
  H2       1.0000 0.72330  0.83650  0.11410  Biso   1.000  H
  C7       1.0000 0.63900  0.67050  0.07180  Biso   1.000  C
  H3       1.0000 0.63120  0.61250  0.06770  Biso   1.000  H
  W5       1.0000 0.19208  0.97284  0.50575  Biso   1.000  W
  W6       1.0000 0.95808  0.77248  0.50170  Biso   1.000  W
  W7       1.0000 0.05913  0.92500  0.44494  Biso   1.000  W
  W8       1.0000 0.14674  0.06508  0.55621  Biso   1.000  W
  Lu2      1.0000 0.43923  0.99015  0.50612  Biso   1.000  Lu
  C8       1.0000 0.35017  0.04773  0.42763  Biso   1.000  C
  O15      1.0000 0.08897  0.86093  0.50983  Biso   1.000  O
  O16      1.0000 0.27987  0.94443  0.50223  Biso   1.000  O
  O17      1.0000 0.27897  0.10683  0.49673  Biso   1.000  O
  C9       1.0000 0.27087  0.04583  0.38763  Biso   1.000  C
  O18      1.0000 0.92937  0.88393  0.51253  Biso   1.000  O
  O19      1.0000 0.15427  0.96693  0.46813  Biso   1.000  O
  N2       1.0000 0.32927  0.17183  0.41813  Biso   1.000  N
  O20      1.0000 0.19477  0.91353  0.36283  Biso   1.000  O
  O21      1.0000 0.42077  0.04103  0.46703  Biso   1.000  O
  O22      1.0000 0.94167  0.76303  0.53933  Biso   1.000  O
  O23      1.0000 0.98567  0.82093  0.46703  Biso   1.000  O
  O24      1.0000 0.06047  0.10403  0.55893  Biso   1.000  O
  O25      1.0000 0.10667  0.04343  0.42883  Biso   1.000  O
  O26      1.0000 0.20007  0.03723  0.34783  Biso   1.000  O
  C10      1.0000 0.38567  0.99853  0.44483  Biso   1.000  C
  O27      1.0000 0.38437  0.92753  0.43773  Biso   1.000  O
  C11      1.0000 0.21737  0.99483  0.36423  Biso   1.000  C
  O28      1.0000 0.21457  0.00243  0.54143  Biso   1.000  O
  C12      1.0000 0.28447  0.13273  0.39563  Biso   1.000  C
  H4       1.0000 0.26227  0.16493  0.38503  Biso   1.000  H
  C13      1.0000 0.35987  0.13113  0.43263  Biso   1.000  C
  H5       1.0000 0.38997  0.16983  0.44743  Biso   1.000  H
  C14      1.0000 0.30567  0.00383  0.40513  Biso   1.000  C
  H6       1.0000 0.29787  0.94583  0.40103  Biso   1.000  H
  W9       1.0000 0.85874  0.30618  0.83909  Biso   1.000  W
  W10      1.0000 0.62474  0.10582  0.83504  Biso   1.000  W
  W11      1.0000 0.72579  0.25834  0.77828  Biso   1.000  W
  W12      1.0000 0.81340  0.39842  0.88955  Biso   1.000  W
  Lu3      1.0000 0.10589  0.32349  0.83945  Biso   1.000  Lu
  C15      1.0000 0.01683  0.38107  0.76097  Biso   1.000  C
  O29      1.0000 0.75563  0.19427  0.84317  Biso   1.000  O
  O30      1.0000 0.94653  0.27777  0.83557  Biso   1.000  O
  O31      1.0000 0.94563  0.44017  0.83007  Biso   1.000  O
  C16      1.0000 0.93753  0.37917  0.72097  Biso   1.000  C
  O32      1.0000 0.59603  0.21727  0.84587  Biso   1.000  O
  O33      1.0000 0.82093  0.30027  0.80147  Biso   1.000  O
  N3       1.0000 0.99593  0.50517  0.75147  Biso   1.000  N
  O34      1.0000 0.86143  0.24687  0.69617  Biso   1.000  O
  O35      1.0000 0.08743  0.37437  0.80037  Biso   1.000  O
  O36      1.0000 0.60833  0.09637  0.87267  Biso   1.000  O
  O37      1.0000 0.65233  0.15427  0.80037  Biso   1.000  O
  O38      1.0000 0.72713  0.43737  0.89227  Biso   1.000  O
  O39      1.0000 0.77333  0.37677  0.76217  Biso   1.000  O
  O40      1.0000 0.86673  0.37057  0.68117  Biso   1.000  O
  C17      1.0000 0.05233  0.33187  0.77817  Biso   1.000  C
  O41      1.0000 0.05103  0.26087  0.77107  Biso   1.000  O
  C18      1.0000 0.88403  0.32817  0.69757  Biso   1.000  C
  O42      1.0000 0.88123  0.33577  0.87477  Biso   1.000  O
  C19      1.0000 0.95113  0.46607  0.72897  Biso   1.000  C
  H7       1.0000 0.92893  0.49827  0.71837  Biso   1.000  H
  C20      1.0000 0.02653  0.46447  0.76597  Biso   1.000  C
  H8       1.0000 0.05663  0.50317  0.78077  Biso   1.000  H
  C21      1.0000 0.97233  0.33717  0.73847  Biso   1.000  C
  H9       1.0000 0.96453  0.27917  0.73437  Biso   1.000  H
  W13      1.0000 0.36049  0.88590  0.17242  Biso   1.000  W
  W14      1.0000 0.56085  0.85226  0.16837  Biso   1.000  W
  W15      1.0000 0.40833  0.80079  0.11161  Biso   1.000  W
  W16      1.0000 0.26825  0.74832  0.22288  Biso   1.000  W
  Lu4      1.0000 0.34318  0.11574  0.17278  Biso   1.000  Lu
  C22      1.0000 0.28560  0.96910  0.09430  Biso   1.000  C
  O43      1.0000 0.47240  0.89470  0.17650  Biso   1.000  O
  O44      1.0000 0.38890  0.00210  0.16890  Biso   1.000  O
  O45      1.0000 0.22650  0.83880  0.16340  Biso   1.000  O
  C23      1.0000 0.28750  0.89170  0.05430  Biso   1.000  C
  O46      1.0000 0.44940  0.71210  0.17920  Biso   1.000  O
  O47      1.0000 0.36640  0.85400  0.13480  Biso   1.000  O
  N4       1.0000 0.16150  0.82410  0.08480  Biso   1.000  N
  O48      1.0000 0.41980  0.94790  0.02950  Biso   1.000  O
  O49      1.0000 0.29230  0.04640  0.13370  Biso   1.000  O
  O50      1.0000 0.57030  0.84530  0.20600  Biso   1.000  O
  O51      1.0000 0.51240  0.83140  0.13370  Biso   1.000  O
  O52      1.0000 0.22930  0.62310  0.22560  Biso   1.000  O
  O53      1.0000 0.28990  0.72990  0.09550  Biso   1.000  O
  O54      1.0000 0.29610  0.82950  0.01450  Biso   1.000  O
  C24      1.0000 0.33480  0.05380  0.11150  Biso   1.000  C
  O55      1.0000 0.40580  0.12350  0.10440  Biso   1.000  O
  C25      1.0000 0.33850  0.88920  0.03090  Biso   1.000  C
  O56      1.0000 0.33090  0.87880  0.20810  Biso   1.000  O
  C26      1.0000 0.20060  0.81840  0.06230  Biso   1.000  C
  H10      1.0000 0.16840  0.76400  0.05170  Biso   1.000  H
  C27      1.0000 0.20220  0.89540  0.09930  Biso   1.000  C
  H11      1.0000 0.16350  0.88680  0.11410  Biso   1.000  H
  C28      1.0000 0.32950  0.96850  0.07180  Biso   1.000  C
  H12      1.0000 0.38750  0.01870  0.06770  Biso   1.000  H
  W17      1.0000 0.02716  0.21923  0.50575  Biso   1.000  W
  W18      1.0000 0.22752  0.18559  0.50170  Biso   1.000  W
  W19      1.0000 0.07500  0.13412  0.44494  Biso   1.000  W
  W20      1.0000 0.93492  0.08165  0.55621  Biso   1.000  W
  Lu5      1.0000 0.00985  0.44907  0.50612  Biso   1.000  Lu
  C29      1.0000 0.95227  0.30243  0.42763  Biso   1.000  C
  O57      1.0000 0.13907  0.22803  0.50983  Biso   1.000  O
  O58      1.0000 0.05557  0.33543  0.50223  Biso   1.000  O
  O59      1.0000 0.89317  0.17213  0.49673  Biso   1.000  O
  C30      1.0000 0.95417  0.22503  0.38763  Biso   1.000  C
  O60      1.0000 0.11607  0.04543  0.51253  Biso   1.000  O
  O61      1.0000 0.03307  0.18733  0.46813  Biso   1.000  O
  N5       1.0000 0.82817  0.15743  0.41813  Biso   1.000  N
  O62      1.0000 0.08647  0.28123  0.36283  Biso   1.000  O
  O63      1.0000 0.95897  0.37973  0.46703  Biso   1.000  O
  O64      1.0000 0.23697  0.17863  0.53933  Biso   1.000  O
  O65      1.0000 0.17907  0.16473  0.46703  Biso   1.000  O
  O66      1.0000 0.89597  0.95643  0.55893  Biso   1.000  O
  O67      1.0000 0.95657  0.06323  0.42883  Biso   1.000  O
  O68      1.0000 0.96277  0.16283  0.34783  Biso   1.000  O
  C31      1.0000 0.00147  0.38713  0.44483  Biso   1.000  C
  O69      1.0000 0.07247  0.45683  0.43773  Biso   1.000  O
  C32      1.0000 0.00517  0.22253  0.36423  Biso   1.000  C
  O70      1.0000 0.99757  0.21213  0.54143  Biso   1.000  O
  C33      1.0000 0.86727  0.15173  0.39563  Biso   1.000  C
  H13      1.0000 0.83507  0.09733  0.38503  Biso   1.000  H
  C34      1.0000 0.86887  0.22873  0.43263  Biso   1.000  C
  H14      1.0000 0.83017  0.22013  0.44743  Biso   1.000  H
  C35      1.0000 0.99617  0.30183  0.40513  Biso   1.000  C
  H15      1.0000 0.05417  0.35203  0.40103  Biso   1.000  H
  W21      1.0000 0.69382  0.55257  0.83909  Biso   1.000  W
  W22      1.0000 0.89418  0.51893  0.83504  Biso   1.000  W
  W23      1.0000 0.74166  0.46746  0.77828  Biso   1.000  W
  W24      1.0000 0.60158  0.41499  0.88955  Biso   1.000  W
  Lu6      1.0000 0.67651  0.78241  0.83945  Biso   1.000  Lu
  C36      1.0000 0.61893  0.63577  0.76097  Biso   1.000  C
  O71      1.0000 0.80573  0.56137  0.84317  Biso   1.000  O
  O72      1.0000 0.72223  0.66877  0.83557  Biso   1.000  O
  O73      1.0000 0.55983  0.50547  0.83007  Biso   1.000  O
  C37      1.0000 0.62083  0.55837  0.72097  Biso   1.000  C
  O74      1.0000 0.78273  0.37877  0.84587  Biso   1.000  O
  O75      1.0000 0.69973  0.52067  0.80147  Biso   1.000  O
  N6       1.0000 0.49483  0.49077  0.75147  Biso   1.000  N
  O76      1.0000 0.75313  0.61457  0.69617  Biso   1.000  O
  O77      1.0000 0.62563  0.71307  0.80037  Biso   1.000  O
  O78      1.0000 0.90363  0.51197  0.87267  Biso   1.000  O
  O79      1.0000 0.84573  0.49807  0.80037  Biso   1.000  O
  O80      1.0000 0.56263  0.28977  0.89227  Biso   1.000  O
  O81      1.0000 0.62323  0.39657  0.76217  Biso   1.000  O
  O82      1.0000 0.62943  0.49617  0.68117  Biso   1.000  O
  C38      1.0000 0.66813  0.72047  0.77817  Biso   1.000  C
  O83      1.0000 0.73913  0.79017  0.77107  Biso   1.000  O
  C39      1.0000 0.67183  0.55587  0.69757  Biso   1.000  C
  O84      1.0000 0.66423  0.54547  0.87477  Biso   1.000  O
  C40      1.0000 0.53393  0.48507  0.72897  Biso   1.000  C
  H16      1.0000 0.50173  0.43067  0.71837  Biso   1.000  H
  C41      1.0000 0.53553  0.56207  0.76597  Biso   1.000  C
  H17      1.0000 0.49683  0.55347  0.78077  Biso   1.000  H
  C42      1.0000 0.66283  0.63517  0.73847  Biso   1.000  C
  H18      1.0000 0.72083  0.68537  0.73437  Biso   1.000  H
  W25      1.0000 0.11410  0.47459  0.17242  Biso   1.000  W
  W26      1.0000 0.14774  0.70859  0.16837  Biso   1.000  W
  W27      1.0000 0.19921  0.60754  0.11161  Biso   1.000  W
  W28      1.0000 0.25168  0.51993  0.22288  Biso   1.000  W
  Lu7      1.0000 0.88426  0.22744  0.17278  Biso   1.000  Lu
  C43      1.0000 0.03090  0.31650  0.09430  Biso   1.000  C
  O85      1.0000 0.10530  0.57770  0.17650  Biso   1.000  O
  O86      1.0000 0.99790  0.38680  0.16890  Biso   1.000  O
  O87      1.0000 0.16120  0.38770  0.16340  Biso   1.000  O
  C44      1.0000 0.10830  0.39580  0.05430  Biso   1.000  C
  O88      1.0000 0.28790  0.73730  0.17920  Biso   1.000  O
  O89      1.0000 0.14600  0.51240  0.13480  Biso   1.000  O
  N7       1.0000 0.17590  0.33740  0.08480  Biso   1.000  N
  O90      1.0000 0.05210  0.47190  0.02950  Biso   1.000  O
  O91      1.0000 0.95360  0.24590  0.13370  Biso   1.000  O
  O92      1.0000 0.15470  0.72500  0.20600  Biso   1.000  O
  O93      1.0000 0.16860  0.68100  0.13370  Biso   1.000  O
  O94      1.0000 0.37690  0.60620  0.22560  Biso   1.000  O
  O95      1.0000 0.27010  0.56000  0.09550  Biso   1.000  O
  O96      1.0000 0.17050  0.46660  0.01450  Biso   1.000  O
  C45      1.0000 0.94620  0.28100  0.11150  Biso   1.000  C
  O97      1.0000 0.87650  0.28230  0.10440  Biso   1.000  O
  C46      1.0000 0.11080  0.44930  0.03090  Biso   1.000  C
  O98      1.0000 0.12120  0.45210  0.20810  Biso   1.000  O
  C47      1.0000 0.18160  0.38220  0.06230  Biso   1.000  C
  H19      1.0000 0.23600  0.40440  0.05170  Biso   1.000  H
  C48      1.0000 0.10460  0.30680  0.09930  Biso   1.000  C
  H20      1.0000 0.11320  0.27670  0.11410  Biso   1.000  H
  C49      1.0000 0.03150  0.36100  0.07180  Biso   1.000  C
  H21      1.0000 0.98130  0.36880  0.06770  Biso   1.000  H
  W29      1.0000 0.78077  0.80792  0.50575  Biso   1.000  W
  W30      1.0000 0.81441  0.04192  0.50170  Biso   1.000  W
  W31      1.0000 0.86588  0.94087  0.44494  Biso   1.000  W
  W32      1.0000 0.91835  0.85326  0.55621  Biso   1.000  W
  Lu8      1.0000 0.55093  0.56077  0.50612  Biso   1.000  Lu
  C50      1.0000 0.69757  0.64983  0.42763  Biso   1.000  C
  O99      1.0000 0.77197  0.91103  0.50983  Biso   1.000  O
  O100     1.0000 0.66457  0.72013  0.50223  Biso   1.000  O
  O101     1.0000 0.82787  0.72103  0.49673  Biso   1.000  O
  C51      1.0000 0.77497  0.72913  0.38763  Biso   1.000  C
  O102     1.0000 0.95457  0.07063  0.51253  Biso   1.000  O
  O103     1.0000 0.81267  0.84573  0.46813  Biso   1.000  O
  N8       1.0000 0.84257  0.67073  0.41813  Biso   1.000  N
  O104     1.0000 0.71877  0.80523  0.36283  Biso   1.000  O
  O105     1.0000 0.62027  0.57923  0.46703  Biso   1.000  O
  O106     1.0000 0.82137  0.05833  0.53933  Biso   1.000  O
  O107     1.0000 0.83527  0.01433  0.46703  Biso   1.000  O
  O108     1.0000 0.04357  0.93953  0.55893  Biso   1.000  O
  O109     1.0000 0.93677  0.89333  0.42883  Biso   1.000  O
  O110     1.0000 0.83717  0.79993  0.34783  Biso   1.000  O
  C52      1.0000 0.61287  0.61433  0.44483  Biso   1.000  C
  O111     1.0000 0.54317  0.61563  0.43773  Biso   1.000  O
  C53      1.0000 0.77747  0.78263  0.36423  Biso   1.000  C
  O112     1.0000 0.78787  0.78543  0.54143  Biso   1.000  O
  C54      1.0000 0.84827  0.71553  0.39563  Biso   1.000  C
  H22      1.0000 0.90267  0.73773  0.38503  Biso   1.000  H
  C55      1.0000 0.77127  0.64013  0.43263  Biso   1.000  C
  H23      1.0000 0.77987  0.61003  0.44743  Biso   1.000  H
  C56      1.0000 0.69817  0.69433  0.40513  Biso   1.000  C
  H24      1.0000 0.64797  0.70213  0.40103  Biso   1.000  H
  W33      1.0000 0.44743  0.14126  0.83909  Biso   1.000  W
  W34      1.0000 0.48107  0.37526  0.83504  Biso   1.000  W
  W35      1.0000 0.53254  0.27421  0.77828  Biso   1.000  W
  W36      1.0000 0.58501  0.18660  0.88955  Biso   1.000  W
  Lu9      1.0000 0.21759  0.89411  0.83945  Biso   1.000  Lu
  C57      1.0000 0.36423  0.98317  0.76097  Biso   1.000  C
  O113     1.0000 0.43863  0.24437  0.84317  Biso   1.000  O
  O114     1.0000 0.33123  0.05347  0.83557  Biso   1.000  O
  O115     1.0000 0.49453  0.05437  0.83007  Biso   1.000  O
  C58      1.0000 0.44163  0.06247  0.72097  Biso   1.000  C
  O116     1.0000 0.62123  0.40397  0.84587  Biso   1.000  O
  O117     1.0000 0.47933  0.17907  0.80147  Biso   1.000  O
  N9       1.0000 0.50923  0.00407  0.75147  Biso   1.000  N
  O118     1.0000 0.38543  0.13857  0.69617  Biso   1.000  O
  O119     1.0000 0.28693  0.91257  0.80037  Biso   1.000  O
  O120     1.0000 0.48803  0.39167  0.87267  Biso   1.000  O
  O121     1.0000 0.50193  0.34767  0.80037  Biso   1.000  O
  O122     1.0000 0.71023  0.27287  0.89227  Biso   1.000  O
  O123     1.0000 0.60343  0.22667  0.76217  Biso   1.000  O
  O124     1.0000 0.50383  0.13327  0.68117  Biso   1.000  O
  C59      1.0000 0.27953  0.94767  0.77817  Biso   1.000  C
  O125     1.0000 0.20983  0.94897  0.77107  Biso   1.000  O
  C60      1.0000 0.44413  0.11597  0.69757  Biso   1.000  C
  O126     1.0000 0.45453  0.11877  0.87477  Biso   1.000  O
  C61      1.0000 0.51493  0.04887  0.72897  Biso   1.000  C
  H25      1.0000 0.56933  0.07107  0.71837  Biso   1.000  H
  C62      1.0000 0.43793  0.97347  0.76597  Biso   1.000  C
  H26      1.0000 0.44653  0.94337  0.78077  Biso   1.000  H
  C63      1.0000 0.36483  0.02767  0.73847  Biso   1.000  C
  H27      1.0000 0.31463  0.03547  0.73437  Biso   1.000  H
  W37      1.0000 0.36049  0.47459  0.67242  Biso   1.000  W
  W38      1.0000 0.56085  0.70859  0.66837  Biso   1.000  W
  W39      1.0000 0.40833  0.60754  0.61161  Biso   1.000  W
  W40      1.0000 0.26825  0.51993  0.72288  Biso   1.000  W
  Lu10     1.0000 0.34318  0.22744  0.67278  Biso   1.000  Lu
  C64      1.0000 0.28560  0.31650  0.59430  Biso   1.000  C
  O127     1.0000 0.47240  0.57770  0.67650  Biso   1.000  O
  O128     1.0000 0.38890  0.38680  0.66890  Biso   1.000  O
  O129     1.0000 0.22650  0.38770  0.66340  Biso   1.000  O
  C65      1.0000 0.28750  0.39580  0.55430  Biso   1.000  C
  O130     1.0000 0.44940  0.73730  0.67920  Biso   1.000  O
  O131     1.0000 0.36640  0.51240  0.63480  Biso   1.000  O
  N10      1.0000 0.16150  0.33740  0.58480  Biso   1.000  N
  O132     1.0000 0.41980  0.47190  0.52950  Biso   1.000  O
  O133     1.0000 0.29230  0.24590  0.63370  Biso   1.000  O
  O134     1.0000 0.57030  0.72500  0.70600  Biso   1.000  O
  O135     1.0000 0.51240  0.68100  0.63370  Biso   1.000  O
  O136     1.0000 0.22930  0.60620  0.72560  Biso   1.000  O
  O137     1.0000 0.28990  0.56000  0.59550  Biso   1.000  O
  O138     1.0000 0.29610  0.46660  0.51450  Biso   1.000  O
  C66      1.0000 0.33480  0.28100  0.61150  Biso   1.000  C
  O139     1.0000 0.40580  0.28230  0.60440  Biso   1.000  O
  C67      1.0000 0.33850  0.44930  0.53090  Biso   1.000  C
  O140     1.0000 0.33090  0.45210  0.70810  Biso   1.000  O
  C68      1.0000 0.20060  0.38220  0.56230  Biso   1.000  C
  H28      1.0000 0.16840  0.40440  0.55170  Biso   1.000  H
  C69      1.0000 0.20220  0.30680  0.59930  Biso   1.000  C
  H29      1.0000 0.16350  0.27670  0.61410  Biso   1.000  H
  C70      1.0000 0.32950  0.36100  0.57180  Biso   1.000  C
  H30      1.0000 0.38750  0.36880  0.56770  Biso   1.000  H
  W41      1.0000 0.02716  0.80792  0.00575  Biso   1.000  W
  W42      1.0000 0.22752  0.04192  0.00170  Biso   1.000  W
  W43      1.0000 0.07500  0.94087  0.94494  Biso   1.000  W
  W44      1.0000 0.93492  0.85326  0.05621  Biso   1.000  W
  Lu11     1.0000 0.00985  0.56077  0.00612  Biso   1.000  Lu
  C71      1.0000 0.95227  0.64983  0.92763  Biso   1.000  C
  O141     1.0000 0.13907  0.91103  0.00983  Biso   1.000  O
  O142     1.0000 0.05557  0.72013  0.00223  Biso   1.000  O
  O143     1.0000 0.89317  0.72103  0.99673  Biso   1.000  O
  C72      1.0000 0.95417  0.72913  0.88763  Biso   1.000  C
  O144     1.0000 0.11607  0.07063  0.01253  Biso   1.000  O
  O145     1.0000 0.03307  0.84573  0.96813  Biso   1.000  O
  N11      1.0000 0.82817  0.67073  0.91813  Biso   1.000  N
  O146     1.0000 0.08647  0.80523  0.86283  Biso   1.000  O
  O147     1.0000 0.95897  0.57923  0.96703  Biso   1.000  O
  O148     1.0000 0.23697  0.05833  0.03933  Biso   1.000  O
  O149     1.0000 0.17907  0.01433  0.96703  Biso   1.000  O
  O150     1.0000 0.89597  0.93953  0.05893  Biso   1.000  O
  O151     1.0000 0.95657  0.89333  0.92883  Biso   1.000  O
  O152     1.0000 0.96277  0.79993  0.84783  Biso   1.000  O
  C73      1.0000 0.00147  0.61433  0.94483  Biso   1.000  C
  O153     1.0000 0.07247  0.61563  0.93773  Biso   1.000  O
  C74      1.0000 0.00517  0.78263  0.86423  Biso   1.000  C
  O154     1.0000 0.99757  0.78543  0.04143  Biso   1.000  O
  C75      1.0000 0.86727  0.71553  0.89563  Biso   1.000  C
  H31      1.0000 0.83507  0.73773  0.88503  Biso   1.000  H
  C76      1.0000 0.86887  0.64013  0.93263  Biso   1.000  C
  H32      1.0000 0.83017  0.61003  0.94743  Biso   1.000  H
  C77      1.0000 0.99617  0.69433  0.90513  Biso   1.000  C
  H33      1.0000 0.05417  0.70213  0.90103  Biso   1.000  H
  W45      1.0000 0.69382  0.14126  0.33909  Biso   1.000  W
  W46      1.0000 0.89418  0.37526  0.33504  Biso   1.000  W
  W47      1.0000 0.74166  0.27421  0.27828  Biso   1.000  W
  W48      1.0000 0.60158  0.18660  0.38955  Biso   1.000  W
  Lu12     1.0000 0.67651  0.89411  0.33945  Biso   1.000  Lu
  C78      1.0000 0.61893  0.98317  0.26097  Biso   1.000  C
  O155     1.0000 0.80573  0.24437  0.34317  Biso   1.000  O
  O156     1.0000 0.72223  0.05347  0.33557  Biso   1.000  O
  O157     1.0000 0.55983  0.05437  0.33007  Biso   1.000  O
  C79      1.0000 0.62083  0.06247  0.22097  Biso   1.000  C
  O158     1.0000 0.78273  0.40397  0.34587  Biso   1.000  O
  O159     1.0000 0.69973  0.17907  0.30147  Biso   1.000  O
  N12      1.0000 0.49483  0.00407  0.25147  Biso   1.000  N
  O160     1.0000 0.75313  0.13857  0.19617  Biso   1.000  O
  O161     1.0000 0.62563  0.91257  0.30037  Biso   1.000  O
  O162     1.0000 0.90363  0.39167  0.37267  Biso   1.000  O
  O163     1.0000 0.84573  0.34767  0.30037  Biso   1.000  O
  O164     1.0000 0.56263  0.27287  0.39227  Biso   1.000  O
  O165     1.0000 0.62323  0.22667  0.26217  Biso   1.000  O
  O166     1.0000 0.62943  0.13327  0.18117  Biso   1.000  O
  C80      1.0000 0.66813  0.94767  0.27817  Biso   1.000  C
  O167     1.0000 0.73913  0.94897  0.27107  Biso   1.000  O
  C81      1.0000 0.67183  0.11597  0.19757  Biso   1.000  C
  O168     1.0000 0.66423  0.11877  0.37477  Biso   1.000  O
  C82      1.0000 0.53393  0.04887  0.22897  Biso   1.000  C
  H34      1.0000 0.50173  0.07107  0.21837  Biso   1.000  H
  C83      1.0000 0.53553  0.97347  0.26597  Biso   1.000  C
  H35      1.0000 0.49683  0.94337  0.28077  Biso   1.000  H
  C84      1.0000 0.66283  0.02767  0.23847  Biso   1.000  C
  H36      1.0000 0.72083  0.03547  0.23437  Biso   1.000  H
  W49      1.0000 0.11410  0.63951  0.67242  Biso   1.000  W
  W50      1.0000 0.14774  0.43915  0.66837  Biso   1.000  W
  W51      1.0000 0.19921  0.59167  0.61161  Biso   1.000  W
  W52      1.0000 0.25168  0.73175  0.72288  Biso   1.000  W
  Lu13     1.0000 0.88426  0.65682  0.67278  Biso   1.000  Lu
  C85      1.0000 0.03090  0.71440  0.59430  Biso   1.000  C
  O169     1.0000 0.10530  0.52760  0.67650  Biso   1.000  O
  O170     1.0000 0.99790  0.61110  0.66890  Biso   1.000  O
  O171     1.0000 0.16120  0.77350  0.66340  Biso   1.000  O
  C86      1.0000 0.10830  0.71250  0.55430  Biso   1.000  C
  O172     1.0000 0.28790  0.55060  0.67920  Biso   1.000  O
  O173     1.0000 0.14600  0.63360  0.63480  Biso   1.000  O
  N13      1.0000 0.17590  0.83850  0.58480  Biso   1.000  N
  O174     1.0000 0.05210  0.58020  0.52950  Biso   1.000  O
  O175     1.0000 0.95360  0.70770  0.63370  Biso   1.000  O
  O176     1.0000 0.15470  0.42970  0.70600  Biso   1.000  O
  O177     1.0000 0.16860  0.48760  0.63370  Biso   1.000  O
  O178     1.0000 0.37690  0.77070  0.72560  Biso   1.000  O
  O179     1.0000 0.27010  0.71010  0.59550  Biso   1.000  O
  O180     1.0000 0.17050  0.70390  0.51450  Biso   1.000  O
  C87      1.0000 0.94620  0.66520  0.61150  Biso   1.000  C
  O181     1.0000 0.87650  0.59420  0.60440  Biso   1.000  O
  C88      1.0000 0.11080  0.66150  0.53090  Biso   1.000  C
  O182     1.0000 0.12120  0.66910  0.70810  Biso   1.000  O
  C89      1.0000 0.18160  0.79940  0.56230  Biso   1.000  C
  H37      1.0000 0.23600  0.83160  0.55170  Biso   1.000  H
  C90      1.0000 0.10460  0.79780  0.59930  Biso   1.000  C
  H38      1.0000 0.11320  0.83650  0.61410  Biso   1.000  H
  C91      1.0000 0.03150  0.67050  0.57180  Biso   1.000  C
  H39      1.0000 0.98130  0.61250  0.56770  Biso   1.000  H
  W53      1.0000 0.78077  0.97284  0.00575  Biso   1.000  W
  W54      1.0000 0.81441  0.77248  0.00170  Biso   1.000  W
  W55      1.0000 0.86588  0.92500  0.94494  Biso   1.000  W
  W56      1.0000 0.91835  0.06508  0.05621  Biso   1.000  W
  Lu14     1.0000 0.55093  0.99015  0.00612  Biso   1.000  Lu
  C92      1.0000 0.69757  0.04773  0.92763  Biso   1.000  C
  O183     1.0000 0.77197  0.86093  0.00983  Biso   1.000  O
  O184     1.0000 0.66457  0.94443  0.00223  Biso   1.000  O
  O185     1.0000 0.82787  0.10683  0.99673  Biso   1.000  O
  C93      1.0000 0.77497  0.04583  0.88763  Biso   1.000  C
  O186     1.0000 0.95457  0.88393  0.01253  Biso   1.000  O
  O187     1.0000 0.81267  0.96693  0.96813  Biso   1.000  O
  N14      1.0000 0.84257  0.17183  0.91813  Biso   1.000  N
  O188     1.0000 0.71877  0.91353  0.86283  Biso   1.000  O
  O189     1.0000 0.62027  0.04103  0.96703  Biso   1.000  O
  O190     1.0000 0.82137  0.76303  0.03933  Biso   1.000  O
  O191     1.0000 0.83527  0.82093  0.96703  Biso   1.000  O
  O192     1.0000 0.04357  0.10403  0.05893  Biso   1.000  O
  O193     1.0000 0.93677  0.04343  0.92883  Biso   1.000  O
  O194     1.0000 0.83717  0.03723  0.84783  Biso   1.000  O
  C94      1.0000 0.61287  0.99853  0.94483  Biso   1.000  C
  O195     1.0000 0.54317  0.92753  0.93773  Biso   1.000  O
  C95      1.0000 0.77747  0.99483  0.86423  Biso   1.000  C
  O196     1.0000 0.78787  0.00243  0.04143  Biso   1.000  O
  C96      1.0000 0.84827  0.13273  0.89563  Biso   1.000  C
  H40      1.0000 0.90267  0.16493  0.88503  Biso   1.000  H
  C97      1.0000 0.77127  0.13113  0.93263  Biso   1.000  C
  H41      1.0000 0.77987  0.16983  0.94743  Biso   1.000  H
  C98      1.0000 0.69817  0.00383  0.90513  Biso   1.000  C
  H42      1.0000 0.64797  0.94583  0.90103  Biso   1.000  H
  W57      1.0000 0.44743  0.30618  0.33909  Biso   1.000  W
  W58      1.0000 0.48107  0.10582  0.33504  Biso   1.000  W
  W59      1.0000 0.53254  0.25834  0.27828  Biso   1.000  W
  W60      1.0000 0.58501  0.39842  0.38955  Biso   1.000  W
  Lu15     1.0000 0.21759  0.32349  0.33945  Biso   1.000  Lu
  C99      1.0000 0.36423  0.38107  0.26097  Biso   1.000  C
  O197     1.0000 0.43863  0.19427  0.34317  Biso   1.000  O
  O198     1.0000 0.33123  0.27777  0.33557  Biso   1.000  O
  O199     1.0000 0.49453  0.44017  0.33007  Biso   1.000  O
  C100     1.0000 0.44163  0.37917  0.22097  Biso   1.000  C
  O200     1.0000 0.62123  0.21727  0.34587  Biso   1.000  O
  O201     1.0000 0.47933  0.30027  0.30147  Biso   1.000  O
  N15      1.0000 0.50923  0.50517  0.25147  Biso   1.000  N
  O202     1.0000 0.38543  0.24687  0.19617  Biso   1.000  O
  O203     1.0000 0.28693  0.37437  0.30037  Biso   1.000  O
  O204     1.0000 0.48803  0.09637  0.37267  Biso   1.000  O
  O205     1.0000 0.50193  0.15427  0.30037  Biso   1.000  O
  O206     1.0000 0.71023  0.43737  0.39227  Biso   1.000  O
  O207     1.0000 0.60343  0.37677  0.26217  Biso   1.000  O
  O208     1.0000 0.50383  0.37057  0.18117  Biso   1.000  O
  C101     1.0000 0.27953  0.33187  0.27817  Biso   1.000  C
  O209     1.0000 0.20983  0.26087  0.27107  Biso   1.000  O
  C102     1.0000 0.44413  0.32817  0.19757  Biso   1.000  C
  O210     1.0000 0.45453  0.33577  0.37477  Biso   1.000  O
  C103     1.0000 0.51493  0.46607  0.22897  Biso   1.000  C
  H43      1.0000 0.56933  0.49827  0.21837  Biso   1.000  H
  C104     1.0000 0.43793  0.46447  0.26597  Biso   1.000  C
  H44      1.0000 0.44653  0.50317  0.28077  Biso   1.000  H
  C105     1.0000 0.36483  0.33717  0.23847  Biso   1.000  C
  H45      1.0000 0.31463  0.27917  0.23437  Biso   1.000  H
  W61      1.0000 0.52541  0.88590  0.67242  Biso   1.000  W
  W62      1.0000 0.29141  0.85226  0.66837  Biso   1.000  W
  W63      1.0000 0.39246  0.80079  0.61161  Biso   1.000  W
  W64      1.0000 0.48007  0.74832  0.72288  Biso   1.000  W
  Lu16     1.0000 0.77256  0.11574  0.67278  Biso   1.000  Lu
  C106     1.0000 0.68350  0.96910  0.59430  Biso   1.000  C
  O211     1.0000 0.42230  0.89470  0.67650  Biso   1.000  O
  O212     1.0000 0.61320  0.00210  0.66890  Biso   1.000  O
  O213     1.0000 0.61230  0.83880  0.66340  Biso   1.000  O
  C107     1.0000 0.60420  0.89170  0.55430  Biso   1.000  C
  O214     1.0000 0.26270  0.71210  0.67920  Biso   1.000  O
  O215     1.0000 0.48760  0.85400  0.63480  Biso   1.000  O
  N16      1.0000 0.66260  0.82410  0.58480  Biso   1.000  N
  O216     1.0000 0.52810  0.94790  0.52950  Biso   1.000  O
  O217     1.0000 0.75410  0.04640  0.63370  Biso   1.000  O
  O218     1.0000 0.27500  0.84530  0.70600  Biso   1.000  O
  O219     1.0000 0.31900  0.83140  0.63370  Biso   1.000  O
  O220     1.0000 0.39380  0.62310  0.72560  Biso   1.000  O
  O221     1.0000 0.44000  0.72990  0.59550  Biso   1.000  O
  O222     1.0000 0.53340  0.82950  0.51450  Biso   1.000  O
  C108     1.0000 0.71900  0.05380  0.61150  Biso   1.000  C
  O223     1.0000 0.71770  0.12350  0.60440  Biso   1.000  O
  C109     1.0000 0.55070  0.88920  0.53090  Biso   1.000  C
  O224     1.0000 0.54790  0.87880  0.70810  Biso   1.000  O
  C110     1.0000 0.61780  0.81840  0.56230  Biso   1.000  C
  H46      1.0000 0.59560  0.76400  0.55170  Biso   1.000  H
  C111     1.0000 0.69320  0.89540  0.59930  Biso   1.000  C
  H47      1.0000 0.72330  0.88680  0.61410  Biso   1.000  H
  C112     1.0000 0.63900  0.96850  0.57180  Biso   1.000  C
  H48      1.0000 0.63120  0.01870  0.56770  Biso   1.000  H
  W65      1.0000 0.19208  0.21923  0.00575  Biso   1.000  W
  W66      1.0000 0.95808  0.18559  0.00170  Biso   1.000  W
  W67      1.0000 0.05913  0.13412  0.94494  Biso   1.000  W
  W68      1.0000 0.14674  0.08165  0.05621  Biso   1.000  W
  Lu17     1.0000 0.43923  0.44907  0.00612  Biso   1.000  Lu
  C113     1.0000 0.35017  0.30243  0.92763  Biso   1.000  C
  O225     1.0000 0.08897  0.22803  0.00983  Biso   1.000  O
  O226     1.0000 0.27987  0.33543  0.00223  Biso   1.000  O
  O227     1.0000 0.27897  0.17213  0.99673  Biso   1.000  O
  C114     1.0000 0.27087  0.22503  0.88763  Biso   1.000  C
  O228     1.0000 0.92937  0.04543  0.01253  Biso   1.000  O
  O229     1.0000 0.15427  0.18733  0.96813  Biso   1.000  O
  N17      1.0000 0.32927  0.15743  0.91813  Biso   1.000  N
  O230     1.0000 0.19477  0.28123  0.86283  Biso   1.000  O
  O231     1.0000 0.42077  0.37973  0.96703  Biso   1.000  O
  O232     1.0000 0.94167  0.17863  0.03933  Biso   1.000  O
  O233     1.0000 0.98567  0.16473  0.96703  Biso   1.000  O
  O234     1.0000 0.06047  0.95643  0.05893  Biso   1.000  O
  O235     1.0000 0.10667  0.06323  0.92883  Biso   1.000  O
  O236     1.0000 0.20007  0.16283  0.84783  Biso   1.000  O
  C115     1.0000 0.38567  0.38713  0.94483  Biso   1.000  C
  O237     1.0000 0.38437  0.45683  0.93773  Biso   1.000  O
  C116     1.0000 0.21737  0.22253  0.86423  Biso   1.000  C
  O238     1.0000 0.21457  0.21213  0.04143  Biso   1.000  O
  C117     1.0000 0.28447  0.15173  0.89563  Biso   1.000  C
  H49      1.0000 0.26227  0.09733  0.88503  Biso   1.000  H
  C118     1.0000 0.35987  0.22873  0.93263  Biso   1.000  C
  H50      1.0000 0.38997  0.22013  0.94743  Biso   1.000  H
  C119     1.0000 0.30567  0.30183  0.90513  Biso   1.000  C
  H51      1.0000 0.29787  0.35203  0.90103  Biso   1.000  H
  W69      1.0000 0.85874  0.55257  0.33909  Biso   1.000  W
  W70      1.0000 0.62474  0.51893  0.33504  Biso   1.000  W
  W71      1.0000 0.72579  0.46746  0.27828  Biso   1.000  W
  W72      1.0000 0.81340  0.41499  0.38955  Biso   1.000  W
  Lu18     1.0000 0.10589  0.78241  0.33945  Biso   1.000  Lu
  C120     1.0000 0.01683  0.63577  0.26097  Biso   1.000  C
  O239     1.0000 0.75563  0.56137  0.34317  Biso   1.000  O
  O240     1.0000 0.94653  0.66877  0.33557  Biso   1.000  O
  O241     1.0000 0.94563  0.50547  0.33007  Biso   1.000  O
  C121     1.0000 0.93753  0.55837  0.22097  Biso   1.000  C
  O242     1.0000 0.59603  0.37877  0.34587  Biso   1.000  O
  O243     1.0000 0.82093  0.52067  0.30147  Biso   1.000  O
  N18      1.0000 0.99593  0.49077  0.25147  Biso   1.000  N
  O244     1.0000 0.86143  0.61457  0.19617  Biso   1.000  O
  O245     1.0000 0.08743  0.71307  0.30037  Biso   1.000  O
  O246     1.0000 0.60833  0.51197  0.37267  Biso   1.000  O
  O247     1.0000 0.65233  0.49807  0.30037  Biso   1.000  O
  O248     1.0000 0.72713  0.28977  0.39227  Biso   1.000  O
  O249     1.0000 0.77333  0.39657  0.26217  Biso   1.000  O
  O250     1.0000 0.86673  0.49617  0.18117  Biso   1.000  O
  C122     1.0000 0.05233  0.72047  0.27817  Biso   1.000  C
  O251     1.0000 0.05103  0.79017  0.27107  Biso   1.000  O
  C123     1.0000 0.88403  0.55587  0.19757  Biso   1.000  C
  O252     1.0000 0.88123  0.54547  0.37477  Biso   1.000  O
  C124     1.0000 0.95113  0.48507  0.22897  Biso   1.000  C
  H52      1.0000 0.92893  0.43067  0.21837  Biso   1.000  H
  C125     1.0000 0.02653  0.56207  0.26597  Biso   1.000  C
  H53      1.0000 0.05663  0.55347  0.28077  Biso   1.000  H
  C126     1.0000 0.97233  0.63517  0.23847  Biso   1.000  C
  H54      1.0000 0.96453  0.68537  0.23437  Biso   1.000  H
  O253     1.0000 0.33333  0.66667  0.13370  Biso   1.000  O
  O254     1.0000 0.00000  0.00000  0.46703  Biso   1.000  O
  O255     1.0000 0.66667  0.33333  0.80037  Biso   1.000  O
  O256     1.0000 0.33333  0.66667  0.63370  Biso   1.000  O
  O257     1.0000 0.00000  0.00000  0.96703  Biso   1.000  O
  O258     1.0000 0.66667  0.33333  0.30037  Biso   1.000  O
