data_image0
_cell_length_a       16.6606
_cell_length_b       16.6606
_cell_length_c       51.316
_cell_angle_alpha    90
_cell_angle_beta     90
_cell_angle_gamma    120

_symmetry_space_group_name_H-M    "P 1"
_symmetry_int_tables_number       1

loop_
  _symmetry_equiv_pos_as_xyz
  'x, y, z'

loop_
  _atom_site_label
  _atom_site_occupancy
  _atom_site_fract_x
  _atom_site_fract_y
  _atom_site_fract_z
  _atom_site_thermal_displace_type
  _atom_site_B_iso_or_equiv
  _atom_site_type_symbol
  W1       1.0000 0.74842  0.47997  0.02976  Biso   1.000  W
  Yb1      1.0000 0.11630  0.77159  0.07954  Biso   1.000  Yb
  O1       1.0000 0.58000  0.47240  0.07660  Biso   1.000  O
  C1       1.0000 0.37750  0.94020  0.02970  Biso   1.000  C
  O2       1.0000 0.87790  0.54780  0.04370  Biso   1.000  O
  O3       1.0000 0.68040  0.51070  0.11800  Biso   1.000  O
  O4       1.0000 0.72770  0.56970  0.04600  Biso   1.000  O
  O5       1.0000 0.73140  0.44230  0.15580  Biso   1.000  O
  O6       1.0000 0.83860  0.61120  0.08800  Biso   1.000  O
  O7       1.0000 0.24570  0.85820  0.05640  Biso   1.000  O
  O8       1.0000 0.00230  0.61410  0.08240  Biso   1.000  O
  O9       1.0000 0.37430  0.08910  0.95190  Biso   1.000  O
  C2       1.0000 0.38030  0.01720  0.99100  Biso   1.000  C
  N1       1.0000 0.50380  0.99510  0.99750  Biso   1.000  N
  C3       1.0000 0.46360  0.02970  0.98700  Biso   1.000  C
  H1       1.0000 0.49800  0.06930  0.97270  Biso   1.000  H
  C4       1.0000 0.33490  0.96750  0.01300  Biso   1.000  C
  H2       1.0000 0.27210  0.95210  0.01640  Biso   1.000  H
  C5       1.0000 0.46640  0.95530  0.02220  Biso   1.000  C
  H3       1.0000 0.49840  0.93270  0.03280  Biso   1.000  H
  C6       1.0000 0.33000  0.04700  0.97230  Biso   1.000  C
  O10      1.0000 0.37140  0.86700  0.07180  Biso   1.000  O
  C7       1.0000 0.32910  0.88360  0.05380  Biso   1.000  C
  O11      1.0000 0.73940  0.45080  0.07250  Biso   1.000  O
  W2       1.0000 0.70920  0.56075  0.08400  Biso   1.000  W
  W3       1.0000 0.88554  0.52490  0.07994  Biso   1.000  W
  O12      1.0000 0.26030  0.05100  0.98240  Biso   1.000  O
  O13      1.0000 0.77180  0.37850  0.02720  Biso   1.000  O
  W4       1.0000 0.80018  0.39208  0.14060  Biso   1.000  W
  O14      1.0000 0.85430  0.48420  0.11680  Biso   1.000  O
  W5       1.0000 0.41509  0.81330  0.36309  Biso   1.000  W
  Yb2      1.0000 0.78297  0.10492  0.41288  Biso   1.000  Yb
  O15      1.0000 0.24667  0.80573  0.40993  Biso   1.000  O
  C8       1.0000 0.04417  0.27353  0.36303  Biso   1.000  C
  O16      1.0000 0.54457  0.88113  0.37703  Biso   1.000  O
  O17      1.0000 0.34707  0.84403  0.45133  Biso   1.000  O
  O18      1.0000 0.39437  0.90303  0.37933  Biso   1.000  O
  O19      1.0000 0.39807  0.77563  0.48913  Biso   1.000  O
  O20      1.0000 0.50527  0.94453  0.42133  Biso   1.000  O
  O21      1.0000 0.91237  0.19153  0.38973  Biso   1.000  O
  O22      1.0000 0.66897  0.94743  0.41573  Biso   1.000  O
  O23      1.0000 0.04097  0.42243  0.28523  Biso   1.000  O
  C9       1.0000 0.04697  0.35053  0.32433  Biso   1.000  C
  N2       1.0000 0.17047  0.32843  0.33083  Biso   1.000  N
  C10      1.0000 0.13027  0.36303  0.32033  Biso   1.000  C
  H4       1.0000 0.16467  0.40263  0.30603  Biso   1.000  H
  C11      1.0000 0.00157  0.30083  0.34633  Biso   1.000  C
  H5       1.0000 0.93877  0.28543  0.34973  Biso   1.000  H
  C12      1.0000 0.13307  0.28863  0.35553  Biso   1.000  C
  H6       1.0000 0.16507  0.26603  0.36613  Biso   1.000  H
  C13      1.0000 0.99667  0.38033  0.30563  Biso   1.000  C
  O24      1.0000 0.03807  0.20033  0.40513  Biso   1.000  O
  C14      1.0000 0.99577  0.21693  0.38713  Biso   1.000  C
  O25      1.0000 0.40607  0.78413  0.40583  Biso   1.000  O
  W6       1.0000 0.37587  0.89408  0.41733  Biso   1.000  W
  W7       1.0000 0.55221  0.85823  0.41327  Biso   1.000  W
  O26      1.0000 0.92697  0.38433  0.31573  Biso   1.000  O
  O27      1.0000 0.43847  0.71183  0.36053  Biso   1.000  O
  W8       1.0000 0.46685  0.72541  0.47394  Biso   1.000  W
  O28      1.0000 0.52097  0.81753  0.45013  Biso   1.000  O
  W9       1.0000 0.08175  0.14664  0.69642  Biso   1.000  W
  Yb3      1.0000 0.44963  0.43826  0.74621  Biso   1.000  Yb
  O29      1.0000 0.91333  0.13907  0.74327  Biso   1.000  O
  C15      1.0000 0.71083  0.60687  0.69637  Biso   1.000  C
  O30      1.0000 0.21123  0.21447  0.71037  Biso   1.000  O
  O31      1.0000 0.01373  0.17737  0.78467  Biso   1.000  O
  O32      1.0000 0.06103  0.23637  0.71267  Biso   1.000  O
  O33      1.0000 0.06473  0.10897  0.82247  Biso   1.000  O
  O34      1.0000 0.17193  0.27787  0.75467  Biso   1.000  O
  O35      1.0000 0.57903  0.52487  0.72307  Biso   1.000  O
  O36      1.0000 0.33563  0.28077  0.74907  Biso   1.000  O
  O37      1.0000 0.70763  0.75577  0.61857  Biso   1.000  O
  C16      1.0000 0.71363  0.68387  0.65767  Biso   1.000  C
  N3       1.0000 0.83713  0.66177  0.66417  Biso   1.000  N
  C17      1.0000 0.79693  0.69637  0.65367  Biso   1.000  C
  H7       1.0000 0.83133  0.73597  0.63937  Biso   1.000  H
  C18      1.0000 0.66823  0.63417  0.67967  Biso   1.000  C
  H8       1.0000 0.60543  0.61877  0.68307  Biso   1.000  H
  C19      1.0000 0.79973  0.62197  0.68887  Biso   1.000  C
  H9       1.0000 0.83173  0.59937  0.69947  Biso   1.000  H
  C20      1.0000 0.66333  0.71367  0.63897  Biso   1.000  C
  O38      1.0000 0.70473  0.53367  0.73847  Biso   1.000  O
  C21      1.0000 0.66243  0.55027  0.72047  Biso   1.000  C
  O39      1.0000 0.07273  0.11747  0.73917  Biso   1.000  O
  W10      1.0000 0.04253  0.22742  0.75066  Biso   1.000  W
  W11      1.0000 0.21887  0.19157  0.74661  Biso   1.000  W
  O40      1.0000 0.59363  0.71767  0.64907  Biso   1.000  O
  O41      1.0000 0.10513  0.04517  0.69387  Biso   1.000  O
  W12      1.0000 0.13351  0.05875  0.80727  Biso   1.000  W
  O42      1.0000 0.18763  0.15087  0.78347  Biso   1.000  O
  W13      1.0000 0.52003  0.26845  0.02976  Biso   1.000  W
  Yb4      1.0000 0.22841  0.34471  0.07954  Biso   1.000  Yb
  O43      1.0000 0.52760  0.10760  0.07660  Biso   1.000  O
  C22      1.0000 0.05980  0.43730  0.02970  Biso   1.000  C
  O44      1.0000 0.45220  0.33010  0.04370  Biso   1.000  O
  O45      1.0000 0.48930  0.16970  0.11800  Biso   1.000  O
  O46      1.0000 0.43030  0.15800  0.04600  Biso   1.000  O
  O47      1.0000 0.55770  0.28910  0.15580  Biso   1.000  O
  O48      1.0000 0.38880  0.22740  0.08800  Biso   1.000  O
  O49      1.0000 0.14180  0.38750  0.05640  Biso   1.000  O
  O50      1.0000 0.38590  0.38820  0.08240  Biso   1.000  O
  O51      1.0000 0.91090  0.28520  0.95190  Biso   1.000  O
  C23      1.0000 0.98280  0.36310  0.99100  Biso   1.000  C
  N4       1.0000 0.00490  0.50870  0.99750  Biso   1.000  N
  C24      1.0000 0.97030  0.43390  0.98700  Biso   1.000  C
  H10      1.0000 0.93070  0.42870  0.97270  Biso   1.000  H
  C25      1.0000 0.03250  0.36740  0.01300  Biso   1.000  C
  H11      1.0000 0.04790  0.32000  0.01640  Biso   1.000  H
  C26      1.0000 0.04470  0.51110  0.02220  Biso   1.000  C
  H12      1.0000 0.06730  0.56570  0.03280  Biso   1.000  H
  C27      1.0000 0.95300  0.28300  0.97230  Biso   1.000  C
  O52      1.0000 0.13300  0.50440  0.07180  Biso   1.000  O
  C28      1.0000 0.11640  0.44550  0.05380  Biso   1.000  C
  O53      1.0000 0.54920  0.28860  0.07250  Biso   1.000  O
  W14      1.0000 0.43925  0.14845  0.08400  Biso   1.000  W
  W15      1.0000 0.47510  0.36064  0.07994  Biso   1.000  W
  O54      1.0000 0.94900  0.20930  0.98240  Biso   1.000  O
  O55      1.0000 0.62150  0.39330  0.02720  Biso   1.000  O
  W16      1.0000 0.60792  0.40810  0.14060  Biso   1.000  W
  O56      1.0000 0.51580  0.37010  0.11680  Biso   1.000  O
  W17      1.0000 0.18670  0.60178  0.36309  Biso   1.000  W
  Yb5      1.0000 0.89508  0.67804  0.41288  Biso   1.000  Yb
  O57      1.0000 0.19427  0.44093  0.40993  Biso   1.000  O
  C29      1.0000 0.72647  0.77063  0.36303  Biso   1.000  C
  O58      1.0000 0.11887  0.66343  0.37703  Biso   1.000  O
  O59      1.0000 0.15597  0.50303  0.45133  Biso   1.000  O
  O60      1.0000 0.09697  0.49133  0.37933  Biso   1.000  O
  O61      1.0000 0.22437  0.62243  0.48913  Biso   1.000  O
  O62      1.0000 0.05547  0.56073  0.42133  Biso   1.000  O
  O63      1.0000 0.80847  0.72083  0.38973  Biso   1.000  O
  O64      1.0000 0.05257  0.72153  0.41573  Biso   1.000  O
  O65      1.0000 0.57757  0.61853  0.28523  Biso   1.000  O
  C30      1.0000 0.64947  0.69643  0.32433  Biso   1.000  C
  N5       1.0000 0.67157  0.84203  0.33083  Biso   1.000  N
  C31      1.0000 0.63697  0.76723  0.32033  Biso   1.000  C
  H13      1.0000 0.59737  0.76203  0.30603  Biso   1.000  H
  C32      1.0000 0.69917  0.70073  0.34633  Biso   1.000  C
  H14      1.0000 0.71457  0.65333  0.34973  Biso   1.000  H
  C33      1.0000 0.71137  0.84443  0.35553  Biso   1.000  C
  H15      1.0000 0.73397  0.89903  0.36613  Biso   1.000  H
  C34      1.0000 0.61967  0.61633  0.30563  Biso   1.000  C
  O66      1.0000 0.79967  0.83773  0.40513  Biso   1.000  O
  C35      1.0000 0.78307  0.77883  0.38713  Biso   1.000  C
  O67      1.0000 0.21587  0.62193  0.40583  Biso   1.000  O
  W18      1.0000 0.10592  0.48178  0.41733  Biso   1.000  W
  W19      1.0000 0.14177  0.69397  0.41327  Biso   1.000  W
  O68      1.0000 0.61567  0.54263  0.31573  Biso   1.000  O
  O69      1.0000 0.28817  0.72663  0.36053  Biso   1.000  O
  W20      1.0000 0.27459  0.74143  0.47394  Biso   1.000  W
  O70      1.0000 0.18247  0.70343  0.45013  Biso   1.000  O
  W21      1.0000 0.85336  0.93512  0.69642  Biso   1.000  W
  Yb6      1.0000 0.56174  0.01138  0.74621  Biso   1.000  Yb
  O71      1.0000 0.86093  0.77427  0.74327  Biso   1.000  O
  C36      1.0000 0.39313  0.10397  0.69637  Biso   1.000  C
  O72      1.0000 0.78553  0.99677  0.71037  Biso   1.000  O
  O73      1.0000 0.82263  0.83637  0.78467  Biso   1.000  O
  O74      1.0000 0.76363  0.82467  0.71267  Biso   1.000  O
  O75      1.0000 0.89103  0.95577  0.82247  Biso   1.000  O
  O76      1.0000 0.72213  0.89407  0.75467  Biso   1.000  O
  O77      1.0000 0.47513  0.05417  0.72307  Biso   1.000  O
  O78      1.0000 0.71923  0.05487  0.74907  Biso   1.000  O
  O79      1.0000 0.24423  0.95187  0.61857  Biso   1.000  O
  C37      1.0000 0.31613  0.02977  0.65767  Biso   1.000  C
  N6       1.0000 0.33823  0.17537  0.66417  Biso   1.000  N
  C38      1.0000 0.30363  0.10057  0.65367  Biso   1.000  C
  H16      1.0000 0.26403  0.09537  0.63937  Biso   1.000  H
  C39      1.0000 0.36583  0.03407  0.67967  Biso   1.000  C
  H17      1.0000 0.38123  0.98667  0.68307  Biso   1.000  H
  C40      1.0000 0.37803  0.17777  0.68887  Biso   1.000  C
  H18      1.0000 0.40063  0.23237  0.69947  Biso   1.000  H
  C41      1.0000 0.28633  0.94967  0.63897  Biso   1.000  C
  O80      1.0000 0.46633  0.17107  0.73847  Biso   1.000  O
  C42      1.0000 0.44973  0.11217  0.72047  Biso   1.000  C
  O81      1.0000 0.88253  0.95527  0.73917  Biso   1.000  O
  W22      1.0000 0.77258  0.81512  0.75066  Biso   1.000  W
  W23      1.0000 0.80843  0.02731  0.74661  Biso   1.000  W
  O82      1.0000 0.28233  0.87597  0.64907  Biso   1.000  O
  O83      1.0000 0.95483  0.05997  0.69387  Biso   1.000  O
  W24      1.0000 0.94125  0.07477  0.80727  Biso   1.000  W
  O84      1.0000 0.84913  0.03677  0.78347  Biso   1.000  O
  W25      1.0000 0.73155  0.25158  0.02976  Biso   1.000  W
  Yb7      1.0000 0.65529  0.88370  0.07954  Biso   1.000  Yb
  O85      1.0000 0.89240  0.42000  0.07660  Biso   1.000  O
  C43      1.0000 0.56270  0.62250  0.02970  Biso   1.000  C
  O86      1.0000 0.66990  0.12210  0.04370  Biso   1.000  O
  O87      1.0000 0.83030  0.31960  0.11800  Biso   1.000  O
  O88      1.0000 0.84200  0.27230  0.04600  Biso   1.000  O
  O89      1.0000 0.71090  0.26860  0.15580  Biso   1.000  O
  O90      1.0000 0.77260  0.16140  0.08800  Biso   1.000  O
  O91      1.0000 0.61250  0.75430  0.05640  Biso   1.000  O
  O92      1.0000 0.61180  0.99770  0.08240  Biso   1.000  O
  O93      1.0000 0.71480  0.62570  0.95190  Biso   1.000  O
  C44      1.0000 0.63690  0.61970  0.99100  Biso   1.000  C
  N7       1.0000 0.49130  0.49620  0.99750  Biso   1.000  N
  C45      1.0000 0.56610  0.53640  0.98700  Biso   1.000  C
  H19      1.0000 0.57130  0.50200  0.97270  Biso   1.000  H
  C46      1.0000 0.63260  0.66510  0.01300  Biso   1.000  C
  H20      1.0000 0.68000  0.72790  0.01640  Biso   1.000  H
  C47      1.0000 0.48890  0.53360  0.02220  Biso   1.000  C
  H21      1.0000 0.43430  0.50160  0.03280  Biso   1.000  H
  C48      1.0000 0.71700  0.67000  0.97230  Biso   1.000  C
  O94      1.0000 0.49560  0.62860  0.07180  Biso   1.000  O
  C49      1.0000 0.55450  0.67090  0.05380  Biso   1.000  C
  O95      1.0000 0.71140  0.26060  0.07250  Biso   1.000  O
  W26      1.0000 0.85155  0.29080  0.08400  Biso   1.000  W
  W27      1.0000 0.63936  0.11446  0.07994  Biso   1.000  W
  O96      1.0000 0.79070  0.73970  0.98240  Biso   1.000  O
  O97      1.0000 0.60670  0.22820  0.02720  Biso   1.000  O
  W28      1.0000 0.59190  0.19982  0.14060  Biso   1.000  W
  O98      1.0000 0.62990  0.14570  0.11680  Biso   1.000  O
  W29      1.0000 0.39822  0.58491  0.36309  Biso   1.000  W
  Yb8      1.0000 0.32196  0.21703  0.41288  Biso   1.000  Yb
  O99      1.0000 0.55907  0.75333  0.40993  Biso   1.000  O
  C50      1.0000 0.22937  0.95583  0.36303  Biso   1.000  C
  O100     1.0000 0.33657  0.45543  0.37703  Biso   1.000  O
  O101     1.0000 0.49697  0.65293  0.45133  Biso   1.000  O
  O102     1.0000 0.50867  0.60563  0.37933  Biso   1.000  O
  O103     1.0000 0.37757  0.60193  0.48913  Biso   1.000  O
  O104     1.0000 0.43927  0.49473  0.42133  Biso   1.000  O
  O105     1.0000 0.27917  0.08763  0.38973  Biso   1.000  O
  O106     1.0000 0.27847  0.33103  0.41573  Biso   1.000  O
  O107     1.0000 0.38147  0.95903  0.28523  Biso   1.000  O
  C51      1.0000 0.30357  0.95303  0.32433  Biso   1.000  C
  N8       1.0000 0.15797  0.82953  0.33083  Biso   1.000  N
  C52      1.0000 0.23277  0.86973  0.32033  Biso   1.000  C
  H22      1.0000 0.23797  0.83533  0.30603  Biso   1.000  H
  C53      1.0000 0.29927  0.99843  0.34633  Biso   1.000  C
  H23      1.0000 0.34667  0.06123  0.34973  Biso   1.000  H
  C54      1.0000 0.15557  0.86693  0.35553  Biso   1.000  C
  H24      1.0000 0.10097  0.83493  0.36613  Biso   1.000  H
  C55      1.0000 0.38367  0.00333  0.30563  Biso   1.000  C
  O108     1.0000 0.16227  0.96193  0.40513  Biso   1.000  O
  C56      1.0000 0.22117  0.00423  0.38713  Biso   1.000  C
  O109     1.0000 0.37807  0.59393  0.40583  Biso   1.000  O
  W30      1.0000 0.51822  0.62413  0.41733  Biso   1.000  W
  W31      1.0000 0.30603  0.44779  0.41327  Biso   1.000  W
  O110     1.0000 0.45737  0.07303  0.31573  Biso   1.000  O
  O111     1.0000 0.27337  0.56153  0.36053  Biso   1.000  O
  W32      1.0000 0.25857  0.53315  0.47394  Biso   1.000  W
  O112     1.0000 0.29657  0.47903  0.45013  Biso   1.000  O
  W33      1.0000 0.06488  0.91825  0.69642  Biso   1.000  W
  Yb9      1.0000 0.98862  0.55037  0.74621  Biso   1.000  Yb
  O113     1.0000 0.22573  0.08667  0.74327  Biso   1.000  O
  C57      1.0000 0.89603  0.28917  0.69637  Biso   1.000  C
  O114     1.0000 0.00323  0.78877  0.71037  Biso   1.000  O
  O115     1.0000 0.16363  0.98627  0.78467  Biso   1.000  O
  O116     1.0000 0.17533  0.93897  0.71267  Biso   1.000  O
  O117     1.0000 0.04423  0.93527  0.82247  Biso   1.000  O
  O118     1.0000 0.10593  0.82807  0.75467  Biso   1.000  O
  O119     1.0000 0.94583  0.42097  0.72307  Biso   1.000  O
  O120     1.0000 0.94513  0.66437  0.74907  Biso   1.000  O
  O121     1.0000 0.04813  0.29237  0.61857  Biso   1.000  O
  C58      1.0000 0.97023  0.28637  0.65767  Biso   1.000  C
  N9       1.0000 0.82463  0.16287  0.66417  Biso   1.000  N
  C59      1.0000 0.89943  0.20307  0.65367  Biso   1.000  C
  H25      1.0000 0.90463  0.16867  0.63937  Biso   1.000  H
  C60      1.0000 0.96593  0.33177  0.67967  Biso   1.000  C
  H26      1.0000 0.01333  0.39457  0.68307  Biso   1.000  H
  C61      1.0000 0.82223  0.20027  0.68887  Biso   1.000  C
  H27      1.0000 0.76763  0.16827  0.69947  Biso   1.000  H
  C62      1.0000 0.05033  0.33667  0.63897  Biso   1.000  C
  O122     1.0000 0.82893  0.29527  0.73847  Biso   1.000  O
  C63      1.0000 0.88783  0.33757  0.72047  Biso   1.000  C
  O123     1.0000 0.04473  0.92727  0.73917  Biso   1.000  O
  W34      1.0000 0.18488  0.95747  0.75066  Biso   1.000  W
  W35      1.0000 0.97269  0.78113  0.74661  Biso   1.000  W
  O124     1.0000 0.12403  0.40637  0.64907  Biso   1.000  O
  O125     1.0000 0.94003  0.89487  0.69387  Biso   1.000  O
  W36      1.0000 0.92523  0.86649  0.80727  Biso   1.000  W
  O126     1.0000 0.96323  0.81237  0.78347  Biso   1.000  O
  W37      1.0000 0.52003  0.25158  0.52976  Biso   1.000  W
  Yb10     1.0000 0.22841  0.88370  0.57954  Biso   1.000  Yb
  O127     1.0000 0.52760  0.42000  0.57660  Biso   1.000  O
  C64      1.0000 0.05980  0.62250  0.52970  Biso   1.000  C
  O128     1.0000 0.45220  0.12210  0.54370  Biso   1.000  O
  O129     1.0000 0.48930  0.31960  0.61800  Biso   1.000  O
  O130     1.0000 0.43030  0.27230  0.54600  Biso   1.000  O
  O131     1.0000 0.55770  0.26860  0.65580  Biso   1.000  O
  O132     1.0000 0.38880  0.16140  0.58800  Biso   1.000  O
  O133     1.0000 0.14180  0.75430  0.55640  Biso   1.000  O
  O134     1.0000 0.38590  0.99770  0.58240  Biso   1.000  O
  O135     1.0000 0.91090  0.62570  0.45190  Biso   1.000  O
  C65      1.0000 0.98280  0.61970  0.49100  Biso   1.000  C
  N10      1.0000 0.00490  0.49620  0.49750  Biso   1.000  N
  C66      1.0000 0.97030  0.53640  0.48700  Biso   1.000  C
  H28      1.0000 0.93070  0.50200  0.47270  Biso   1.000  H
  C67      1.0000 0.03250  0.66510  0.51300  Biso   1.000  C
  H29      1.0000 0.04790  0.72790  0.51640  Biso   1.000  H
  C68      1.0000 0.04470  0.53360  0.52220  Biso   1.000  C
  H30      1.0000 0.06730  0.50160  0.53280  Biso   1.000  H
  C69      1.0000 0.95300  0.67000  0.47230  Biso   1.000  C
  O136     1.0000 0.13300  0.62860  0.57180  Biso   1.000  O
  C70      1.0000 0.11640  0.67090  0.55380  Biso   1.000  C
  O137     1.0000 0.54920  0.26060  0.57250  Biso   1.000  O
  W38      1.0000 0.43925  0.29080  0.58400  Biso   1.000  W
  W39      1.0000 0.47510  0.11446  0.57994  Biso   1.000  W
  O138     1.0000 0.94900  0.73970  0.48240  Biso   1.000  O
  O139     1.0000 0.62150  0.22820  0.52720  Biso   1.000  O
  W40      1.0000 0.60792  0.19982  0.64060  Biso   1.000  W
  O140     1.0000 0.51580  0.14570  0.61680  Biso   1.000  O
  W41      1.0000 0.18670  0.58491  0.86309  Biso   1.000  W
  Yb11     1.0000 0.89508  0.21703  0.91288  Biso   1.000  Yb
  O141     1.0000 0.19427  0.75333  0.90993  Biso   1.000  O
  C71      1.0000 0.72647  0.95583  0.86303  Biso   1.000  C
  O142     1.0000 0.11887  0.45543  0.87703  Biso   1.000  O
  O143     1.0000 0.15597  0.65293  0.95133  Biso   1.000  O
  O144     1.0000 0.09697  0.60563  0.87933  Biso   1.000  O
  O145     1.0000 0.22437  0.60193  0.98913  Biso   1.000  O
  O146     1.0000 0.05547  0.49473  0.92133  Biso   1.000  O
  O147     1.0000 0.80847  0.08763  0.88973  Biso   1.000  O
  O148     1.0000 0.05257  0.33103  0.91573  Biso   1.000  O
  O149     1.0000 0.57757  0.95903  0.78523  Biso   1.000  O
  C72      1.0000 0.64947  0.95303  0.82433  Biso   1.000  C
  N11      1.0000 0.67157  0.82953  0.83083  Biso   1.000  N
  C73      1.0000 0.63697  0.86973  0.82033  Biso   1.000  C
  H31      1.0000 0.59737  0.83533  0.80603  Biso   1.000  H
  C74      1.0000 0.69917  0.99843  0.84633  Biso   1.000  C
  H32      1.0000 0.71457  0.06123  0.84973  Biso   1.000  H
  C75      1.0000 0.71137  0.86693  0.85553  Biso   1.000  C
  H33      1.0000 0.73397  0.83493  0.86613  Biso   1.000  H
  C76      1.0000 0.61967  0.00333  0.80563  Biso   1.000  C
  O150     1.0000 0.79967  0.96193  0.90513  Biso   1.000  O
  C77      1.0000 0.78307  0.00423  0.88713  Biso   1.000  C
  O151     1.0000 0.21587  0.59393  0.90583  Biso   1.000  O
  W42      1.0000 0.10592  0.62413  0.91733  Biso   1.000  W
  W43      1.0000 0.14177  0.44779  0.91327  Biso   1.000  W
  O152     1.0000 0.61567  0.07303  0.81573  Biso   1.000  O
  O153     1.0000 0.28817  0.56153  0.86053  Biso   1.000  O
  W44      1.0000 0.27459  0.53315  0.97394  Biso   1.000  W
  O154     1.0000 0.18247  0.47903  0.95013  Biso   1.000  O
  W45      1.0000 0.85336  0.91825  0.19642  Biso   1.000  W
  Yb12     1.0000 0.56174  0.55037  0.24621  Biso   1.000  Yb
  O155     1.0000 0.86093  0.08667  0.24327  Biso   1.000  O
  C78      1.0000 0.39313  0.28917  0.19637  Biso   1.000  C
  O156     1.0000 0.78553  0.78877  0.21037  Biso   1.000  O
  O157     1.0000 0.82263  0.98627  0.28467  Biso   1.000  O
  O158     1.0000 0.76363  0.93897  0.21267  Biso   1.000  O
  O159     1.0000 0.89103  0.93527  0.32247  Biso   1.000  O
  O160     1.0000 0.72213  0.82807  0.25467  Biso   1.000  O
  O161     1.0000 0.47513  0.42097  0.22307  Biso   1.000  O
  O162     1.0000 0.71923  0.66437  0.24907  Biso   1.000  O
  O163     1.0000 0.24423  0.29237  0.11857  Biso   1.000  O
  C79      1.0000 0.31613  0.28637  0.15767  Biso   1.000  C
  N12      1.0000 0.33823  0.16287  0.16417  Biso   1.000  N
  C80      1.0000 0.30363  0.20307  0.15367  Biso   1.000  C
  H34      1.0000 0.26403  0.16867  0.13937  Biso   1.000  H
  C81      1.0000 0.36583  0.33177  0.17967  Biso   1.000  C
  H35      1.0000 0.38123  0.39457  0.18307  Biso   1.000  H
  C82      1.0000 0.37803  0.20027  0.18887  Biso   1.000  C
  H36      1.0000 0.40063  0.16827  0.19947  Biso   1.000  H
  C83      1.0000 0.28633  0.33667  0.13897  Biso   1.000  C
  O164     1.0000 0.46633  0.29527  0.23847  Biso   1.000  O
  C84      1.0000 0.44973  0.33757  0.22047  Biso   1.000  C
  O165     1.0000 0.88253  0.92727  0.23917  Biso   1.000  O
  W46      1.0000 0.77258  0.95747  0.25066  Biso   1.000  W
  W47      1.0000 0.80843  0.78113  0.24661  Biso   1.000  W
  O166     1.0000 0.28233  0.40637  0.14907  Biso   1.000  O
  O167     1.0000 0.95483  0.89487  0.19387  Biso   1.000  O
  W48      1.0000 0.94125  0.86649  0.30727  Biso   1.000  W
  O168     1.0000 0.84913  0.81237  0.28347  Biso   1.000  O
  W49      1.0000 0.73155  0.47997  0.52976  Biso   1.000  W
  Yb13     1.0000 0.65529  0.77159  0.57954  Biso   1.000  Yb
  O169     1.0000 0.89240  0.47240  0.57660  Biso   1.000  O
  C85      1.0000 0.56270  0.94020  0.52970  Biso   1.000  C
  O170     1.0000 0.66990  0.54780  0.54370  Biso   1.000  O
  O171     1.0000 0.83030  0.51070  0.61800  Biso   1.000  O
  O172     1.0000 0.84200  0.56970  0.54600  Biso   1.000  O
  O173     1.0000 0.71090  0.44230  0.65580  Biso   1.000  O
  O174     1.0000 0.77260  0.61120  0.58800  Biso   1.000  O
  O175     1.0000 0.61250  0.85820  0.55640  Biso   1.000  O
  O176     1.0000 0.61180  0.61410  0.58240  Biso   1.000  O
  O177     1.0000 0.71480  0.08910  0.45190  Biso   1.000  O
  C86      1.0000 0.63690  0.01720  0.49100  Biso   1.000  C
  N13      1.0000 0.49130  0.99510  0.49750  Biso   1.000  N
  C87      1.0000 0.56610  0.02970  0.48700  Biso   1.000  C
  H37      1.0000 0.57130  0.06930  0.47270  Biso   1.000  H
  C88      1.0000 0.63260  0.96750  0.51300  Biso   1.000  C
  H38      1.0000 0.68000  0.95210  0.51640  Biso   1.000  H
  C89      1.0000 0.48890  0.95530  0.52220  Biso   1.000  C
  H39      1.0000 0.43430  0.93270  0.53280  Biso   1.000  H
  C90      1.0000 0.71700  0.04700  0.47230  Biso   1.000  C
  O178     1.0000 0.49560  0.86700  0.57180  Biso   1.000  O
  C91      1.0000 0.55450  0.88360  0.55380  Biso   1.000  C
  O179     1.0000 0.71140  0.45080  0.57250  Biso   1.000  O
  W50      1.0000 0.85155  0.56075  0.58400  Biso   1.000  W
  W51      1.0000 0.63936  0.52490  0.57994  Biso   1.000  W
  O180     1.0000 0.79070  0.05100  0.48240  Biso   1.000  O
  O181     1.0000 0.60670  0.37850  0.52720  Biso   1.000  O
  W52      1.0000 0.59190  0.39208  0.64060  Biso   1.000  W
  O182     1.0000 0.62990  0.48420  0.61680  Biso   1.000  O
  W53      1.0000 0.39822  0.81330  0.86309  Biso   1.000  W
  Yb14     1.0000 0.32196  0.10492  0.91288  Biso   1.000  Yb
  O183     1.0000 0.55907  0.80573  0.90993  Biso   1.000  O
  C92      1.0000 0.22937  0.27353  0.86303  Biso   1.000  C
  O184     1.0000 0.33657  0.88113  0.87703  Biso   1.000  O
  O185     1.0000 0.49697  0.84403  0.95133  Biso   1.000  O
  O186     1.0000 0.50867  0.90303  0.87933  Biso   1.000  O
  O187     1.0000 0.37757  0.77563  0.98913  Biso   1.000  O
  O188     1.0000 0.43927  0.94453  0.92133  Biso   1.000  O
  O189     1.0000 0.27917  0.19153  0.88973  Biso   1.000  O
  O190     1.0000 0.27847  0.94743  0.91573  Biso   1.000  O
  O191     1.0000 0.38147  0.42243  0.78523  Biso   1.000  O
  C93      1.0000 0.30357  0.35053  0.82433  Biso   1.000  C
  N14      1.0000 0.15797  0.32843  0.83083  Biso   1.000  N
  C94      1.0000 0.23277  0.36303  0.82033  Biso   1.000  C
  H40      1.0000 0.23797  0.40263  0.80603  Biso   1.000  H
  C95      1.0000 0.29927  0.30083  0.84633  Biso   1.000  C
  H41      1.0000 0.34667  0.28543  0.84973  Biso   1.000  H
  C96      1.0000 0.15557  0.28863  0.85553  Biso   1.000  C
  H42      1.0000 0.10097  0.26603  0.86613  Biso   1.000  H
  C97      1.0000 0.38367  0.38033  0.80563  Biso   1.000  C
  O192     1.0000 0.16227  0.20033  0.90513  Biso   1.000  O
  C98      1.0000 0.22117  0.21693  0.88713  Biso   1.000  C
  O193     1.0000 0.37807  0.78413  0.90583  Biso   1.000  O
  W54      1.0000 0.51822  0.89408  0.91733  Biso   1.000  W
  W55      1.0000 0.30603  0.85823  0.91327  Biso   1.000  W
  O194     1.0000 0.45737  0.38433  0.81573  Biso   1.000  O
  O195     1.0000 0.27337  0.71183  0.86053  Biso   1.000  O
  W56      1.0000 0.25857  0.72541  0.97394  Biso   1.000  W
  O196     1.0000 0.29657  0.81753  0.95013  Biso   1.000  O
  W57      1.0000 0.06488  0.14664  0.19642  Biso   1.000  W
  Yb15     1.0000 0.98862  0.43826  0.24621  Biso   1.000  Yb
  O197     1.0000 0.22573  0.13907  0.24327  Biso   1.000  O
  C99      1.0000 0.89603  0.60687  0.19637  Biso   1.000  C
  O198     1.0000 0.00323  0.21447  0.21037  Biso   1.000  O
  O199     1.0000 0.16363  0.17737  0.28467  Biso   1.000  O
  O200     1.0000 0.17533  0.23637  0.21267  Biso   1.000  O
  O201     1.0000 0.04423  0.10897  0.32247  Biso   1.000  O
  O202     1.0000 0.10593  0.27787  0.25467  Biso   1.000  O
  O203     1.0000 0.94583  0.52487  0.22307  Biso   1.000  O
  O204     1.0000 0.94513  0.28077  0.24907  Biso   1.000  O
  O205     1.0000 0.04813  0.75577  0.11857  Biso   1.000  O
  C100     1.0000 0.97023  0.68387  0.15767  Biso   1.000  C
  N15      1.0000 0.82463  0.66177  0.16417  Biso   1.000  N
  C101     1.0000 0.89943  0.69637  0.15367  Biso   1.000  C
  H43      1.0000 0.90463  0.73597  0.13937  Biso   1.000  H
  C102     1.0000 0.96593  0.63417  0.17967  Biso   1.000  C
  H44      1.0000 0.01333  0.61877  0.18307  Biso   1.000  H
  C103     1.0000 0.82223  0.62197  0.18887  Biso   1.000  C
  H45      1.0000 0.76763  0.59937  0.19947  Biso   1.000  H
  C104     1.0000 0.05033  0.71367  0.13897  Biso   1.000  C
  O206     1.0000 0.82893  0.53367  0.23847  Biso   1.000  O
  C105     1.0000 0.88783  0.55027  0.22047  Biso   1.000  C
  O207     1.0000 0.04473  0.11747  0.23917  Biso   1.000  O
  W58      1.0000 0.18488  0.22742  0.25066  Biso   1.000  W
  W59      1.0000 0.97269  0.19157  0.24661  Biso   1.000  W
  O208     1.0000 0.12403  0.71767  0.14907  Biso   1.000  O
  O209     1.0000 0.94003  0.04517  0.19387  Biso   1.000  O
  W60      1.0000 0.92523  0.05875  0.30727  Biso   1.000  W
  O210     1.0000 0.96323  0.15087  0.28347  Biso   1.000  O
  W61      1.0000 0.74842  0.26845  0.52976  Biso   1.000  W
  Yb16     1.0000 0.11630  0.34471  0.57954  Biso   1.000  Yb
  O211     1.0000 0.58000  0.10760  0.57660  Biso   1.000  O
  C106     1.0000 0.37750  0.43730  0.52970  Biso   1.000  C
  O212     1.0000 0.87790  0.33010  0.54370  Biso   1.000  O
  O213     1.0000 0.68040  0.16970  0.61800  Biso   1.000  O
  O214     1.0000 0.72770  0.15800  0.54600  Biso   1.000  O
  O215     1.0000 0.73140  0.28910  0.65580  Biso   1.000  O
  O216     1.0000 0.83860  0.22740  0.58800  Biso   1.000  O
  O217     1.0000 0.24570  0.38750  0.55640  Biso   1.000  O
  O218     1.0000 0.00230  0.38820  0.58240  Biso   1.000  O
  O219     1.0000 0.37430  0.28520  0.45190  Biso   1.000  O
  C107     1.0000 0.38030  0.36310  0.49100  Biso   1.000  C
  N16      1.0000 0.50380  0.50870  0.49750  Biso   1.000  N
  C108     1.0000 0.46360  0.43390  0.48700  Biso   1.000  C
  H46      1.0000 0.49800  0.42870  0.47270  Biso   1.000  H
  C109     1.0000 0.33490  0.36740  0.51300  Biso   1.000  C
  H47      1.0000 0.27210  0.32000  0.51640  Biso   1.000  H
  C110     1.0000 0.46640  0.51110  0.52220  Biso   1.000  C
  H48      1.0000 0.49840  0.56570  0.53280  Biso   1.000  H
  C111     1.0000 0.33000  0.28300  0.47230  Biso   1.000  C
  O220     1.0000 0.37140  0.50440  0.57180  Biso   1.000  O
  C112     1.0000 0.32910  0.44550  0.55380  Biso   1.000  C
  O221     1.0000 0.73940  0.28860  0.57250  Biso   1.000  O
  W62      1.0000 0.70920  0.14845  0.58400  Biso   1.000  W
  W63      1.0000 0.88554  0.36064  0.57994  Biso   1.000  W
  O222     1.0000 0.26030  0.20930  0.48240  Biso   1.000  O
  O223     1.0000 0.77180  0.39330  0.52720  Biso   1.000  O
  W64      1.0000 0.80018  0.40810  0.64060  Biso   1.000  W
  O224     1.0000 0.85430  0.37010  0.61680  Biso   1.000  O
  W65      1.0000 0.41509  0.60178  0.86309  Biso   1.000  W
  Yb17     1.0000 0.78297  0.67804  0.91288  Biso   1.000  Yb
  O225     1.0000 0.24667  0.44093  0.90993  Biso   1.000  O
  C113     1.0000 0.04417  0.77063  0.86303  Biso   1.000  C
  O226     1.0000 0.54457  0.66343  0.87703  Biso   1.000  O
  O227     1.0000 0.34707  0.50303  0.95133  Biso   1.000  O
  O228     1.0000 0.39437  0.49133  0.87933  Biso   1.000  O
  O229     1.0000 0.39807  0.62243  0.98913  Biso   1.000  O
  O230     1.0000 0.50527  0.56073  0.92133  Biso   1.000  O
  O231     1.0000 0.91237  0.72083  0.88973  Biso   1.000  O
  O232     1.0000 0.66897  0.72153  0.91573  Biso   1.000  O
  O233     1.0000 0.04097  0.61853  0.78523  Biso   1.000  O
  C114     1.0000 0.04697  0.69643  0.82433  Biso   1.000  C
  N17      1.0000 0.17047  0.84203  0.83083  Biso   1.000  N
  C115     1.0000 0.13027  0.76723  0.82033  Biso   1.000  C
  H49      1.0000 0.16467  0.76203  0.80603  Biso   1.000  H
  C116     1.0000 0.00157  0.70073  0.84633  Biso   1.000  C
  H50      1.0000 0.93877  0.65333  0.84973  Biso   1.000  H
  C117     1.0000 0.13307  0.84443  0.85553  Biso   1.000  C
  H51      1.0000 0.16507  0.89903  0.86613  Biso   1.000  H
  C118     1.0000 0.99667  0.61633  0.80563  Biso   1.000  C
  O234     1.0000 0.03807  0.83773  0.90513  Biso   1.000  O
  C119     1.0000 0.99577  0.77883  0.88713  Biso   1.000  C
  O235     1.0000 0.40607  0.62193  0.90583  Biso   1.000  O
  W66      1.0000 0.37587  0.48178  0.91733  Biso   1.000  W
  W67      1.0000 0.55221  0.69397  0.91327  Biso   1.000  W
  O236     1.0000 0.92697  0.54263  0.81573  Biso   1.000  O
  O237     1.0000 0.43847  0.72663  0.86053  Biso   1.000  O
  W68      1.0000 0.46685  0.74143  0.97394  Biso   1.000  W
  O238     1.0000 0.52097  0.70343  0.95013  Biso   1.000  O
  W69      1.0000 0.08175  0.93512  0.19642  Biso   1.000  W
  Yb18     1.0000 0.44963  0.01138  0.24621  Biso   1.000  Yb
  O239     1.0000 0.91333  0.77427  0.24327  Biso   1.000  O
  C120     1.0000 0.71083  0.10397  0.19637  Biso   1.000  C
  O240     1.0000 0.21123  0.99677  0.21037  Biso   1.000  O
  O241     1.0000 0.01373  0.83637  0.28467  Biso   1.000  O
  O242     1.0000 0.06103  0.82467  0.21267  Biso   1.000  O
  O243     1.0000 0.06473  0.95577  0.32247  Biso   1.000  O
  O244     1.0000 0.17193  0.89407  0.25467  Biso   1.000  O
  O245     1.0000 0.57903  0.05417  0.22307  Biso   1.000  O
  O246     1.0000 0.33563  0.05487  0.24907  Biso   1.000  O
  O247     1.0000 0.70763  0.95187  0.11857  Biso   1.000  O
  C121     1.0000 0.71363  0.02977  0.15767  Biso   1.000  C
  N18      1.0000 0.83713  0.17537  0.16417  Biso   1.000  N
  C122     1.0000 0.79693  0.10057  0.15367  Biso   1.000  C
  H52      1.0000 0.83133  0.09537  0.13937  Biso   1.000  H
  C123     1.0000 0.66823  0.03407  0.17967  Biso   1.000  C
  H53      1.0000 0.60543  0.98667  0.18307  Biso   1.000  H
  C124     1.0000 0.79973  0.17777  0.18887  Biso   1.000  C
  H54      1.0000 0.83173  0.23237  0.19947  Biso   1.000  H
  C125     1.0000 0.66333  0.94967  0.13897  Biso   1.000  C
  O248     1.0000 0.70473  0.17107  0.23847  Biso   1.000  O
  C126     1.0000 0.66243  0.11217  0.22047  Biso   1.000  C
  O249     1.0000 0.07273  0.95527  0.23917  Biso   1.000  O
  W70      1.0000 0.04253  0.81512  0.25066  Biso   1.000  W
  W71      1.0000 0.21887  0.02731  0.24661  Biso   1.000  W
  O250     1.0000 0.59363  0.87597  0.14907  Biso   1.000  O
  O251     1.0000 0.10513  0.05997  0.19387  Biso   1.000  O
  W72      1.0000 0.13351  0.07477  0.30727  Biso   1.000  W
  O252     1.0000 0.18763  0.03677  0.28347  Biso   1.000  O
  O253     1.0000 0.66667  0.33333  0.11600  Biso   1.000  O
  O254     1.0000 0.33333  0.66667  0.44933  Biso   1.000  O
  O255     1.0000 0.00000  0.00000  0.78267  Biso   1.000  O
  O256     1.0000 0.66667  0.33333  0.61600  Biso   1.000  O
  O257     1.0000 0.33333  0.66667  0.94933  Biso   1.000  O
  O258     1.0000 0.00000  0.00000  0.28267  Biso   1.000  O
