data_image0
_cell_length_a       30.4265
_cell_length_b       15.6032
_cell_length_c       21.9006
_cell_angle_alpha    90
_cell_angle_beta     133.016
_cell_angle_gamma    90

_symmetry_space_group_name_H-M    "P 1"
_symmetry_int_tables_number       1

loop_
  _symmetry_equiv_pos_as_xyz
  'x, y, z'

loop_
  _atom_site_label
  _atom_site_occupancy
  _atom_site_fract_x
  _atom_site_fract_y
  _atom_site_fract_z
  _atom_site_thermal_displace_type
  _atom_site_B_iso_or_equiv
  _atom_site_type_symbol
  Sm1      1.0000 0.83148  0.87253  0.98570  Biso   1.000  Sm
  Sm2      1.0000 0.11041  0.86397  0.17475  Biso   1.000  Sm
  O1       1.0000 0.75240  0.77200  0.87130  Biso   1.000  O
  O2       1.0000 0.72240  0.65340  0.79510  Biso   1.000  O
  O3       1.0000 0.94000  0.85930  0.06950  Biso   1.000  O
  O4       1.0000 0.02110  0.78680  0.11570  Biso   1.000  O
  O5       1.0000 0.13400  0.96990  0.11800  Biso   1.000  O
  O6       1.0000 0.17260  0.09470  0.12410  Biso   1.000  O
  O7       1.0000 0.12160  0.88290  0.29510  Biso   1.000  O
  O8       1.0000 0.15680  0.95230  0.40950  Biso   1.000  O
  N1       1.0000 0.86580  0.73700  0.96390  Biso   1.000  N
  N2       1.0000 0.16170  0.00060  0.25820  Biso   1.000  N
  C1       1.0000 0.82690  0.67850  0.90600  Biso   1.000  C
  C2       1.0000 0.84530  0.60240  0.89570  Biso   1.000  C
  H1       1.0000 0.81690  0.56160  0.85470  Biso   1.000  H
  C3       1.0000 0.90680  0.58820  0.94740  Biso   1.000  C
  H2       1.0000 0.92080  0.53700  0.94200  Biso   1.000  H
  C4       1.0000 0.94710  0.64820  0.00600  Biso   1.000  C
  H3       1.0000 0.98910  0.63920  0.04130  Biso   1.000  H
  C5       1.0000 0.92560  0.72230  0.01300  Biso   1.000  C
  C6       1.0000 0.76200  0.70240  0.85350  Biso   1.000  C
  C7       1.0000 0.96560  0.79390  0.07160  Biso   1.000  C
  C8       1.0000 0.18480  0.05390  0.23830  Biso   1.000  C
  C9       1.0000 0.22550  0.11660  0.29210  Biso   1.000  C
  H4       1.0000 0.24380  0.15100  0.27870  Biso   1.000  H
  C10      1.0000 0.23930  0.12830  0.36630  Biso   1.000  C
  H5       1.0000 0.26660  0.17180  0.40440  Biso   1.000  H
  C11      1.0000 0.21260  0.07550  0.38400  Biso   1.000  C
  H6       1.0000 0.22040  0.08390  0.43360  Biso   1.000  H
  C12      1.0000 0.17490  0.01120  0.32970  Biso   1.000  C
  C13      1.0000 0.16250  0.03840  0.15350  Biso   1.000  C
  C14      1.0000 0.14830  0.94420  0.34570  Biso   1.000  C
  Sm3      1.0000 0.33148  0.37253  0.98570  Biso   1.000  Sm
  Sm4      1.0000 0.61041  0.36397  0.17475  Biso   1.000  Sm
  O9       1.0000 0.25240  0.27200  0.87130  Biso   1.000  O
  O10      1.0000 0.22240  0.15340  0.79510  Biso   1.000  O
  O11      1.0000 0.44000  0.35930  0.06950  Biso   1.000  O
  O12      1.0000 0.52110  0.28680  0.11570  Biso   1.000  O
  O13      1.0000 0.63400  0.46990  0.11800  Biso   1.000  O
  O14      1.0000 0.67260  0.59470  0.12410  Biso   1.000  O
  O15      1.0000 0.62160  0.38290  0.29510  Biso   1.000  O
  O16      1.0000 0.65680  0.45230  0.40950  Biso   1.000  O
  N3       1.0000 0.36580  0.23700  0.96390  Biso   1.000  N
  N4       1.0000 0.66170  0.50060  0.25820  Biso   1.000  N
  C15      1.0000 0.32690  0.17850  0.90600  Biso   1.000  C
  C16      1.0000 0.34530  0.10240  0.89570  Biso   1.000  C
  H7       1.0000 0.31690  0.06160  0.85470  Biso   1.000  H
  C17      1.0000 0.40680  0.08820  0.94740  Biso   1.000  C
  H8       1.0000 0.42080  0.03700  0.94200  Biso   1.000  H
  C18      1.0000 0.44710  0.14820  0.00600  Biso   1.000  C
  H9       1.0000 0.48910  0.13920  0.04130  Biso   1.000  H
  C19      1.0000 0.42560  0.22230  0.01300  Biso   1.000  C
  C20      1.0000 0.26200  0.20240  0.85350  Biso   1.000  C
  C21      1.0000 0.46560  0.29390  0.07160  Biso   1.000  C
  C22      1.0000 0.68480  0.55390  0.23830  Biso   1.000  C
  C23      1.0000 0.72550  0.61660  0.29210  Biso   1.000  C
  H10      1.0000 0.74380  0.65100  0.27870  Biso   1.000  H
  C24      1.0000 0.73930  0.62830  0.36630  Biso   1.000  C
  H11      1.0000 0.76660  0.67180  0.40440  Biso   1.000  H
  C25      1.0000 0.71260  0.57550  0.38400  Biso   1.000  C
  H12      1.0000 0.72040  0.58390  0.43360  Biso   1.000  H
  C26      1.0000 0.67490  0.51120  0.32970  Biso   1.000  C
  C27      1.0000 0.66250  0.53840  0.15350  Biso   1.000  C
  C28      1.0000 0.64830  0.44420  0.34570  Biso   1.000  C
  Sm5      1.0000 0.16852  0.87253  0.51430  Biso   1.000  Sm
  Sm6      1.0000 0.88959  0.86397  0.32525  Biso   1.000  Sm
  O17      1.0000 0.24760  0.77200  0.62870  Biso   1.000  O
  O18      1.0000 0.27760  0.65340  0.70490  Biso   1.000  O
  O19      1.0000 0.06000  0.85930  0.43050  Biso   1.000  O
  O20      1.0000 0.97890  0.78680  0.38430  Biso   1.000  O
  O21      1.0000 0.86600  0.96990  0.38200  Biso   1.000  O
  O22      1.0000 0.82740  0.09470  0.37590  Biso   1.000  O
  O23      1.0000 0.87840  0.88290  0.20490  Biso   1.000  O
  O24      1.0000 0.84320  0.95230  0.09050  Biso   1.000  O
  N5       1.0000 0.13420  0.73700  0.53610  Biso   1.000  N
  N6       1.0000 0.83830  0.00060  0.24180  Biso   1.000  N
  C29      1.0000 0.17310  0.67850  0.59400  Biso   1.000  C
  C30      1.0000 0.15470  0.60240  0.60430  Biso   1.000  C
  H13      1.0000 0.18310  0.56160  0.64530  Biso   1.000  H
  C31      1.0000 0.09320  0.58820  0.55260  Biso   1.000  C
  H14      1.0000 0.07920  0.53700  0.55800  Biso   1.000  H
  C32      1.0000 0.05290  0.64820  0.49400  Biso   1.000  C
  H15      1.0000 0.01090  0.63920  0.45870  Biso   1.000  H
  C33      1.0000 0.07440  0.72230  0.48700  Biso   1.000  C
  C34      1.0000 0.23800  0.70240  0.64650  Biso   1.000  C
  C35      1.0000 0.03440  0.79390  0.42840  Biso   1.000  C
  C36      1.0000 0.81520  0.05390  0.26170  Biso   1.000  C
  C37      1.0000 0.77450  0.11660  0.20790  Biso   1.000  C
  H16      1.0000 0.75620  0.15100  0.22130  Biso   1.000  H
  C38      1.0000 0.76070  0.12830  0.13370  Biso   1.000  C
  H17      1.0000 0.73340  0.17180  0.09560  Biso   1.000  H
  C39      1.0000 0.78740  0.07550  0.11600  Biso   1.000  C
  H18      1.0000 0.77960  0.08390  0.06640  Biso   1.000  H
  C40      1.0000 0.82510  0.01120  0.17030  Biso   1.000  C
  C41      1.0000 0.83750  0.03840  0.34650  Biso   1.000  C
  C42      1.0000 0.85170  0.94420  0.15430  Biso   1.000  C
  Sm7      1.0000 0.66852  0.37253  0.51430  Biso   1.000  Sm
  Sm8      1.0000 0.38959  0.36397  0.32525  Biso   1.000  Sm
  O25      1.0000 0.74760  0.27200  0.62870  Biso   1.000  O
  O26      1.0000 0.77760  0.15340  0.70490  Biso   1.000  O
  O27      1.0000 0.56000  0.35930  0.43050  Biso   1.000  O
  O28      1.0000 0.47890  0.28680  0.38430  Biso   1.000  O
  O29      1.0000 0.36600  0.46990  0.38200  Biso   1.000  O
  O30      1.0000 0.32740  0.59470  0.37590  Biso   1.000  O
  O31      1.0000 0.37840  0.38290  0.20490  Biso   1.000  O
  O32      1.0000 0.34320  0.45230  0.09050  Biso   1.000  O
  N7       1.0000 0.63420  0.23700  0.53610  Biso   1.000  N
  N8       1.0000 0.33830  0.50060  0.24180  Biso   1.000  N
  C43      1.0000 0.67310  0.17850  0.59400  Biso   1.000  C
  C44      1.0000 0.65470  0.10240  0.60430  Biso   1.000  C
  H19      1.0000 0.68310  0.06160  0.64530  Biso   1.000  H
  C45      1.0000 0.59320  0.08820  0.55260  Biso   1.000  C
  H20      1.0000 0.57920  0.03700  0.55800  Biso   1.000  H
  C46      1.0000 0.55290  0.14820  0.49400  Biso   1.000  C
  H21      1.0000 0.51090  0.13920  0.45870  Biso   1.000  H
  C47      1.0000 0.57440  0.22230  0.48700  Biso   1.000  C
  C48      1.0000 0.73800  0.20240  0.64650  Biso   1.000  C
  C49      1.0000 0.53440  0.29390  0.42840  Biso   1.000  C
  C50      1.0000 0.31520  0.55390  0.26170  Biso   1.000  C
  C51      1.0000 0.27450  0.61660  0.20790  Biso   1.000  C
  H22      1.0000 0.25620  0.65100  0.22130  Biso   1.000  H
  C52      1.0000 0.26070  0.62830  0.13370  Biso   1.000  C
  H23      1.0000 0.23340  0.67180  0.09560  Biso   1.000  H
  C53      1.0000 0.28740  0.57550  0.11600  Biso   1.000  C
  H24      1.0000 0.27960  0.58390  0.06640  Biso   1.000  H
  C54      1.0000 0.32510  0.51120  0.17030  Biso   1.000  C
  C55      1.0000 0.33750  0.53840  0.34650  Biso   1.000  C
  C56      1.0000 0.35170  0.44420  0.15430  Biso   1.000  C
  Sm9      1.0000 0.16852  0.12747  0.01430  Biso   1.000  Sm
  Sm10     1.0000 0.88959  0.13603  0.82525  Biso   1.000  Sm
  O33      1.0000 0.24760  0.22800  0.12870  Biso   1.000  O
  O34      1.0000 0.27760  0.34660  0.20490  Biso   1.000  O
  O35      1.0000 0.06000  0.14070  0.93050  Biso   1.000  O
  O36      1.0000 0.97890  0.21320  0.88430  Biso   1.000  O
  O37      1.0000 0.86600  0.03010  0.88200  Biso   1.000  O
  O38      1.0000 0.82740  0.90530  0.87590  Biso   1.000  O
  O39      1.0000 0.87840  0.11710  0.70490  Biso   1.000  O
  O40      1.0000 0.84320  0.04770  0.59050  Biso   1.000  O
  N9       1.0000 0.13420  0.26300  0.03610  Biso   1.000  N
  N10      1.0000 0.83830  0.99940  0.74180  Biso   1.000  N
  C57      1.0000 0.17310  0.32150  0.09400  Biso   1.000  C
  C58      1.0000 0.15470  0.39760  0.10430  Biso   1.000  C
  H25      1.0000 0.18310  0.43840  0.14530  Biso   1.000  H
  C59      1.0000 0.09320  0.41180  0.05260  Biso   1.000  C
  H26      1.0000 0.07920  0.46300  0.05800  Biso   1.000  H
  C60      1.0000 0.05290  0.35180  0.99400  Biso   1.000  C
  H27      1.0000 0.01090  0.36080  0.95870  Biso   1.000  H
  C61      1.0000 0.07440  0.27770  0.98700  Biso   1.000  C
  C62      1.0000 0.23800  0.29760  0.14650  Biso   1.000  C
  C63      1.0000 0.03440  0.20610  0.92840  Biso   1.000  C
  C64      1.0000 0.81520  0.94610  0.76170  Biso   1.000  C
  C65      1.0000 0.77450  0.88340  0.70790  Biso   1.000  C
  H28      1.0000 0.75620  0.84900  0.72130  Biso   1.000  H
  C66      1.0000 0.76070  0.87170  0.63370  Biso   1.000  C
  H29      1.0000 0.73340  0.82820  0.59560  Biso   1.000  H
  C67      1.0000 0.78740  0.92450  0.61600  Biso   1.000  C
  H30      1.0000 0.77960  0.91610  0.56640  Biso   1.000  H
  C68      1.0000 0.82510  0.98880  0.67030  Biso   1.000  C
  C69      1.0000 0.83750  0.96160  0.84650  Biso   1.000  C
  C70      1.0000 0.85170  0.05580  0.65430  Biso   1.000  C
  Sm11     1.0000 0.66852  0.62747  0.01430  Biso   1.000  Sm
  Sm12     1.0000 0.38959  0.63603  0.82525  Biso   1.000  Sm
  O41      1.0000 0.74760  0.72800  0.12870  Biso   1.000  O
  O42      1.0000 0.77760  0.84660  0.20490  Biso   1.000  O
  O43      1.0000 0.56000  0.64070  0.93050  Biso   1.000  O
  O44      1.0000 0.47890  0.71320  0.88430  Biso   1.000  O
  O45      1.0000 0.36600  0.53010  0.88200  Biso   1.000  O
  O46      1.0000 0.32740  0.40530  0.87590  Biso   1.000  O
  O47      1.0000 0.37840  0.61710  0.70490  Biso   1.000  O
  O48      1.0000 0.34320  0.54770  0.59050  Biso   1.000  O
  N11      1.0000 0.63420  0.76300  0.03610  Biso   1.000  N
  N12      1.0000 0.33830  0.49940  0.74180  Biso   1.000  N
  C71      1.0000 0.67310  0.82150  0.09400  Biso   1.000  C
  C72      1.0000 0.65470  0.89760  0.10430  Biso   1.000  C
  H31      1.0000 0.68310  0.93840  0.14530  Biso   1.000  H
  C73      1.0000 0.59320  0.91180  0.05260  Biso   1.000  C
  H32      1.0000 0.57920  0.96300  0.05800  Biso   1.000  H
  C74      1.0000 0.55290  0.85180  0.99400  Biso   1.000  C
  H33      1.0000 0.51090  0.86080  0.95870  Biso   1.000  H
  C75      1.0000 0.57440  0.77770  0.98700  Biso   1.000  C
  C76      1.0000 0.73800  0.79760  0.14650  Biso   1.000  C
  C77      1.0000 0.53440  0.70610  0.92840  Biso   1.000  C
  C78      1.0000 0.31520  0.44610  0.76170  Biso   1.000  C
  C79      1.0000 0.27450  0.38340  0.70790  Biso   1.000  C
  H34      1.0000 0.25620  0.34900  0.72130  Biso   1.000  H
  C80      1.0000 0.26070  0.37170  0.63370  Biso   1.000  C
  H35      1.0000 0.23340  0.32820  0.59560  Biso   1.000  H
  C81      1.0000 0.28740  0.42450  0.61600  Biso   1.000  C
  H36      1.0000 0.27960  0.41610  0.56640  Biso   1.000  H
  C82      1.0000 0.32510  0.48880  0.67030  Biso   1.000  C
  C83      1.0000 0.33750  0.46160  0.84650  Biso   1.000  C
  C84      1.0000 0.35170  0.55580  0.65430  Biso   1.000  C
  Sm13     1.0000 0.83148  0.12747  0.48570  Biso   1.000  Sm
  Sm14     1.0000 0.11041  0.13603  0.67475  Biso   1.000  Sm
  O49      1.0000 0.75240  0.22800  0.37130  Biso   1.000  O
  O50      1.0000 0.72240  0.34660  0.29510  Biso   1.000  O
  O51      1.0000 0.94000  0.14070  0.56950  Biso   1.000  O
  O52      1.0000 0.02110  0.21320  0.61570  Biso   1.000  O
  O53      1.0000 0.13400  0.03010  0.61800  Biso   1.000  O
  O54      1.0000 0.17260  0.90530  0.62410  Biso   1.000  O
  O55      1.0000 0.12160  0.11710  0.79510  Biso   1.000  O
  O56      1.0000 0.15680  0.04770  0.90950  Biso   1.000  O
  N13      1.0000 0.86580  0.26300  0.46390  Biso   1.000  N
  N14      1.0000 0.16170  0.99940  0.75820  Biso   1.000  N
  C85      1.0000 0.82690  0.32150  0.40600  Biso   1.000  C
  C86      1.0000 0.84530  0.39760  0.39570  Biso   1.000  C
  H37      1.0000 0.81690  0.43840  0.35470  Biso   1.000  H
  C87      1.0000 0.90680  0.41180  0.44740  Biso   1.000  C
  H38      1.0000 0.92080  0.46300  0.44200  Biso   1.000  H
  C88      1.0000 0.94710  0.35180  0.50600  Biso   1.000  C
  H39      1.0000 0.98910  0.36080  0.54130  Biso   1.000  H
  C89      1.0000 0.92560  0.27770  0.51300  Biso   1.000  C
  C90      1.0000 0.76200  0.29760  0.35350  Biso   1.000  C
  C91      1.0000 0.96560  0.20610  0.57160  Biso   1.000  C
  C92      1.0000 0.18480  0.94610  0.73830  Biso   1.000  C
  C93      1.0000 0.22550  0.88340  0.79210  Biso   1.000  C
  H40      1.0000 0.24380  0.84900  0.77870  Biso   1.000  H
  C94      1.0000 0.23930  0.87170  0.86630  Biso   1.000  C
  H41      1.0000 0.26660  0.82820  0.90440  Biso   1.000  H
  C95      1.0000 0.21260  0.92450  0.88400  Biso   1.000  C
  H42      1.0000 0.22040  0.91610  0.93360  Biso   1.000  H
  C96      1.0000 0.17490  0.98880  0.82970  Biso   1.000  C
  C97      1.0000 0.16250  0.96160  0.65350  Biso   1.000  C
  C98      1.0000 0.14830  0.05580  0.84570  Biso   1.000  C
  Sm15     1.0000 0.33148  0.62747  0.48570  Biso   1.000  Sm
  Sm16     1.0000 0.61041  0.63603  0.67475  Biso   1.000  Sm
  O57      1.0000 0.25240  0.72800  0.37130  Biso   1.000  O
  O58      1.0000 0.22240  0.84660  0.29510  Biso   1.000  O
  O59      1.0000 0.44000  0.64070  0.56950  Biso   1.000  O
  O60      1.0000 0.52110  0.71320  0.61570  Biso   1.000  O
  O61      1.0000 0.63400  0.53010  0.61800  Biso   1.000  O
  O62      1.0000 0.67260  0.40530  0.62410  Biso   1.000  O
  O63      1.0000 0.62160  0.61710  0.79510  Biso   1.000  O
  O64      1.0000 0.65680  0.54770  0.90950  Biso   1.000  O
  N15      1.0000 0.36580  0.76300  0.46390  Biso   1.000  N
  N16      1.0000 0.66170  0.49940  0.75820  Biso   1.000  N
  C99      1.0000 0.32690  0.82150  0.40600  Biso   1.000  C
  C100     1.0000 0.34530  0.89760  0.39570  Biso   1.000  C
  H43      1.0000 0.31690  0.93840  0.35470  Biso   1.000  H
  C101     1.0000 0.40680  0.91180  0.44740  Biso   1.000  C
  H44      1.0000 0.42080  0.96300  0.44200  Biso   1.000  H
  C102     1.0000 0.44710  0.85180  0.50600  Biso   1.000  C
  H45      1.0000 0.48910  0.86080  0.54130  Biso   1.000  H
  C103     1.0000 0.42560  0.77770  0.51300  Biso   1.000  C
  C104     1.0000 0.26200  0.79760  0.35350  Biso   1.000  C
  C105     1.0000 0.46560  0.70610  0.57160  Biso   1.000  C
  C106     1.0000 0.68480  0.44610  0.73830  Biso   1.000  C
  C107     1.0000 0.72550  0.38340  0.79210  Biso   1.000  C
  H46      1.0000 0.74380  0.34900  0.77870  Biso   1.000  H
  C108     1.0000 0.73930  0.37170  0.86630  Biso   1.000  C
  H47      1.0000 0.76660  0.32820  0.90440  Biso   1.000  H
  C109     1.0000 0.71260  0.42450  0.88400  Biso   1.000  C
  H48      1.0000 0.72040  0.41610  0.93360  Biso   1.000  H
  C110     1.0000 0.67490  0.48880  0.82970  Biso   1.000  C
  C111     1.0000 0.66250  0.46160  0.65350  Biso   1.000  C
  C112     1.0000 0.64830  0.55580  0.84570  Biso   1.000  C
