data_LIBZIG_clean
_audit_creation_date              2014-07-02
_audit_creation_method            'Materials Studio'
_symmetry_space_group_name_H-M    'P1'
_symmetry_Int_Tables_number       1
_symmetry_cell_setting            triclinic
loop_
_symmetry_equiv_pos_as_xyz
  x,y,z
_cell_length_a                    9.6310
_cell_length_b                    12.2120
_cell_length_c                    12.2120
_cell_angle_alpha                 95.4993
_cell_angle_beta                  94.5059
_cell_angle_gamma                 94.5059
loop_
_atom_site_label
_atom_site_type_symbol
_atom_site_fract_x
_atom_site_fract_y
_atom_site_fract_z
_atom_site_U_iso_or_equiv
_atom_site_adp_type
_atom_site_occupancy
Tb1    Tb    0.46764   0.26374   0.23695   0.01267  Uiso   1.00
Tb2    Tb    0.03236   0.76305   0.73626   0.01267  Uiso   1.00
Tb3    Tb    0.53236   0.73626   0.76305   0.01267  Uiso   1.00
Tb4    Tb    0.96764   0.23695   0.26374   0.01267  Uiso   1.00
H1     H     0.38700   0.04670   0.53910   0.01267  Uiso   1.00
H2     H     0.61420   0.43320   0.49480   0.01267  Uiso   1.00
H3     H     0.60790   0.01080   0.95060   0.01267  Uiso   1.00
H4     H     0.11300   0.46090   0.95330   0.01267  Uiso   1.00
H5     H     0.88580   0.50520   0.56680   0.01267  Uiso   1.00
H6     H     0.89210   0.04940   0.98920   0.01267  Uiso   1.00
H7     H     0.61300   0.95330   0.46090   0.01267  Uiso   1.00
H8     H     0.38580   0.56680   0.50520   0.01267  Uiso   1.00
H9     H     0.39210   0.98920   0.04940   0.01267  Uiso   1.00
H10    H     0.88700   0.53910   0.04670   0.01267  Uiso   1.00
H11    H     0.11420   0.49480   0.43320   0.01267  Uiso   1.00
H12    H     0.10790   0.95060   0.01080   0.01267  Uiso   1.00
C1     C     0.46670   0.11250   0.40250   0.01267  Uiso   1.00
C2     C     0.45750   0.03830   0.49190   0.01267  Uiso   1.00
C3     C     0.76970   0.35650   0.41250   0.01267  Uiso   1.00
C4     C     0.71090   0.43470   0.49410   0.01267  Uiso   1.00
C5     C     0.68390   0.13470   0.07790   0.01267  Uiso   1.00
C6     C     0.69100   0.04520   0.98640   0.01267  Uiso   1.00
C7     C     0.03330   0.59750   0.88750   0.01267  Uiso   1.00
C8     C     0.04250   0.50810   0.96170   0.01267  Uiso   1.00
C9     C     0.73030   0.58750   0.64350   0.01267  Uiso   1.00
C10    C     0.78910   0.50590   0.56530   0.01267  Uiso   1.00
C11    C     0.81610   0.92210   0.86530   0.01267  Uiso   1.00
C12    C     0.80900   0.01360   0.95480   0.01267  Uiso   1.00
C13    C     0.53330   0.88750   0.59750   0.01267  Uiso   1.00
C14    C     0.54250   0.96170   0.50810   0.01267  Uiso   1.00
C15    C     0.23030   0.64350   0.58750   0.01267  Uiso   1.00
C16    C     0.28910   0.56530   0.50590   0.01267  Uiso   1.00
C17    C     0.31610   0.86530   0.92210   0.01267  Uiso   1.00
C18    C     0.30900   0.95480   0.01360   0.01267  Uiso   1.00
C19    C     0.96670   0.40250   0.11250   0.01267  Uiso   1.00
C20    C     0.95750   0.49190   0.03830   0.01267  Uiso   1.00
C21    C     0.26970   0.41250   0.35650   0.01267  Uiso   1.00
C22    C     0.21090   0.49410   0.43470   0.01267  Uiso   1.00
C23    C     0.18390   0.07790   0.13470   0.01267  Uiso   1.00
C24    C     0.19100   0.98640   0.04520   0.01267  Uiso   1.00
O1     O     0.39770   0.19570   0.40850   0.01267  Uiso   1.00
O2     O     0.54140   0.09242   0.32458   0.01267  Uiso   1.00
O3     O     0.68610   0.30279   0.33857   0.01267  Uiso   1.00
O4     O     0.89840   0.34557   0.41977   0.01267  Uiso   1.00
O5     O     0.56430   0.16332   0.09432   0.01267  Uiso   1.00
O6     O     0.79160   0.17630   0.13090   0.01267  Uiso   1.00
O7     O     0.10230   0.59150   0.80430   0.01267  Uiso   1.00
O8     O     0.95860   0.67542   0.90758   0.01267  Uiso   1.00
O9     O     0.81390   0.66143   0.69721   0.01267  Uiso   1.00
O10    O     0.60160   0.58023   0.65443   0.01267  Uiso   1.00
O11    O     0.93570   0.90568   0.83668   0.01267  Uiso   1.00
O12    O     0.70840   0.86910   0.82370   0.01267  Uiso   1.00
O13    O     0.60230   0.80430   0.59150   0.01267  Uiso   1.00
O14    O     0.45860   0.90758   0.67542   0.01267  Uiso   1.00
O15    O     0.31390   0.69721   0.66143   0.01267  Uiso   1.00
O16    O     0.10160   0.65443   0.58023   0.01267  Uiso   1.00
O17    O     0.43570   0.83668   0.90568   0.01267  Uiso   1.00
O18    O     0.20840   0.82370   0.86910   0.01267  Uiso   1.00
O19    O     0.89770   0.40850   0.19570   0.01267  Uiso   1.00
O20    O     0.04140   0.32458   0.09242   0.01267  Uiso   1.00
O21    O     0.18610   0.33857   0.30279   0.01267  Uiso   1.00
O22    O     0.39840   0.41977   0.34557   0.01267  Uiso   1.00
O23    O     0.06430   0.09432   0.16332   0.01267  Uiso   1.00
O24    O     0.29160   0.13090   0.17630   0.01267  Uiso   1.00
