data_image0
_cell_length_a       9.655
_cell_length_b       9.344
_cell_length_c       30.965
_cell_angle_alpha    90
_cell_angle_beta     93.859
_cell_angle_gamma    90

_symmetry_space_group_name_H-M    "P 1"
_symmetry_int_tables_number       1

loop_
  _symmetry_equiv_pos_as_xyz
  'x, y, z'

loop_
  _atom_site_label
  _atom_site_occupancy
  _atom_site_fract_x
  _atom_site_fract_y
  _atom_site_fract_z
  _atom_site_thermal_displace_type
  _atom_site_B_iso_or_equiv
  _atom_site_type_symbol
  Zn1      1.0000 0.53047  0.28510  0.14095  Biso   1.000  Zn
  Zn2      1.0000 0.70144  0.54825  0.03817  Biso   1.000  Zn
  Zn3      1.0000 0.44079  0.31141  0.30764  Biso   1.000  Zn
  P1       1.0000 0.46114  0.12142  0.22151  Biso   1.000  P
  P2       1.0000 0.74526  0.07250  0.18290  Biso   1.000  P
  P3       1.0000 0.41330  0.37673  0.05168  Biso   1.000  P
  P4       1.0000 0.51896  0.61306  0.11199  Biso   1.000  P
  O1       1.0000 0.40840  0.21570  0.18378  Biso   1.000  O
  O2       1.0000 0.40150  0.16910  0.26313  Biso   1.000  O
  O3       1.0000 0.43170  0.96160  0.21295  Biso   1.000  O
  O4       1.0000 0.67570  0.14360  0.14249  Biso   1.000  O
  O5       1.0000 0.72820  0.91010  0.18154  Biso   1.000  O
  O6       1.0000 0.89570  0.11490  0.19106  Biso   1.000  O
  O7       1.0000 0.69040  0.28780  0.22954  Biso   1.000  O
  H1       1.0000 0.64850  0.33040  0.24780  Biso   1.000  H
  O8       1.0000 0.41330  0.26230  0.08650  Biso   1.000  O
  O9       1.0000 0.55650  0.39570  0.03404  Biso   1.000  O
  O10      1.0000 0.30210  0.34730  0.01562  Biso   1.000  O
  O11      1.0000 0.46720  0.73570  0.13919  Biso   1.000  O
  O12      1.0000 0.57190  0.48780  0.13949  Biso   1.000  O
  O13      1.0000 0.62580  0.66880  0.08224  Biso   1.000  O
  O14      1.0000 0.32580  0.65400  0.04550  Biso   1.000  O
  H2       1.0000 0.36180  0.63610  0.02290  Biso   1.000  H
  N1       1.0000 0.03670  0.88820  0.29854  Biso   1.000  N
  H3       1.0000 0.06950  0.80270  0.29960  Biso   1.000  H
  N2       1.0000 0.88060  0.45270  0.05946  Biso   1.000  N
  C1       1.0000 0.65180  0.13950  0.22925  Biso   1.000  C
  C2       1.0000 0.69360  0.06180  0.27236  Biso   1.000  C
  H4       1.0000 0.65370  0.11420  0.29550  Biso   1.000  H
  H5       1.0000 0.65090  0.96780  0.27120  Biso   1.000  H
  C3       1.0000 0.84550  0.04280  0.28431  Biso   1.000  C
  C4       1.0000 0.93250  0.15650  0.29615  Biso   1.000  C
  H6       1.0000 0.89730  0.24920  0.29560  Biso   1.000  H
  C5       1.0000 0.07040  0.13390  0.30880  Biso   1.000  C
  H7       1.0000 0.12810  0.21040  0.31690  Biso   1.000  H
  C6       1.0000 0.12070  0.99740  0.30930  Biso   1.000  C
  H8       1.0000 0.21400  0.98050  0.31710  Biso   1.000  H
  C7       1.0000 0.90310  0.90790  0.28619  Biso   1.000  C
  H9       1.0000 0.84780  0.82900  0.27870  Biso   1.000  H
  C8       1.0000 0.36760  0.54740  0.07770  Biso   1.000  C
  C9       1.0000 0.24500  0.53190  0.10713  Biso   1.000  C
  H10      1.0000 0.28080  0.48590  0.13370  Biso   1.000  H
  H11      1.0000 0.21680  0.62760  0.11480  Biso   1.000  H
  C10      1.0000 0.11490  0.45160  0.09123  Biso   1.000  C
  C11      1.0000 0.09620  0.30950  0.10302  Biso   1.000  C
  H12      1.0000 0.16770  0.26090  0.11840  Biso   1.000  H
  C12      1.0000 0.97270  0.23990  0.09220  Biso   1.000  C
  H13      1.0000 0.96100  0.14420  0.09930  Biso   1.000  H
  C13      1.0000 0.86690  0.31570  0.07050  Biso   1.000  C
  H14      1.0000 0.78300  0.26970  0.06340  Biso   1.000  H
  C14      1.0000 0.00350  0.51840  0.06961  Biso   1.000  C
  H15      1.0000 0.01320  0.61360  0.06160  Biso   1.000  H
  Zn4      1.0000 0.46953  0.78510  0.35905  Biso   1.000  Zn
  Zn5      1.0000 0.29856  0.04825  0.46183  Biso   1.000  Zn
  Zn6      1.0000 0.55921  0.81141  0.19236  Biso   1.000  Zn
  P5       1.0000 0.53886  0.62142  0.27849  Biso   1.000  P
  P6       1.0000 0.25474  0.57250  0.31710  Biso   1.000  P
  P7       1.0000 0.58670  0.87673  0.44832  Biso   1.000  P
  P8       1.0000 0.48104  0.11306  0.38801  Biso   1.000  P
  O15      1.0000 0.59160  0.71570  0.31622  Biso   1.000  O
  O16      1.0000 0.59850  0.66910  0.23687  Biso   1.000  O
  O17      1.0000 0.56830  0.46160  0.28705  Biso   1.000  O
  O18      1.0000 0.32430  0.64360  0.35751  Biso   1.000  O
  O19      1.0000 0.27180  0.41010  0.31846  Biso   1.000  O
  O20      1.0000 0.10430  0.61490  0.30894  Biso   1.000  O
  O21      1.0000 0.30960  0.78780  0.27046  Biso   1.000  O
  H16      1.0000 0.35150  0.83040  0.25220  Biso   1.000  H
  O22      1.0000 0.58670  0.76230  0.41350  Biso   1.000  O
  O23      1.0000 0.44350  0.89570  0.46596  Biso   1.000  O
  O24      1.0000 0.69790  0.84730  0.48438  Biso   1.000  O
  O25      1.0000 0.53280  0.23570  0.36081  Biso   1.000  O
  O26      1.0000 0.42810  0.98780  0.36051  Biso   1.000  O
  O27      1.0000 0.37420  0.16880  0.41776  Biso   1.000  O
  O28      1.0000 0.67420  0.15400  0.45450  Biso   1.000  O
  H17      1.0000 0.63820  0.13610  0.47710  Biso   1.000  H
  N3       1.0000 0.96330  0.38820  0.20146  Biso   1.000  N
  H18      1.0000 0.93050  0.30270  0.20040  Biso   1.000  H
  N4       1.0000 0.11940  0.95270  0.44054  Biso   1.000  N
  C15      1.0000 0.34820  0.63950  0.27075  Biso   1.000  C
  C16      1.0000 0.30640  0.56180  0.22764  Biso   1.000  C
  H19      1.0000 0.34630  0.61420  0.20450  Biso   1.000  H
  H20      1.0000 0.34910  0.46780  0.22880  Biso   1.000  H
  C17      1.0000 0.15450  0.54280  0.21569  Biso   1.000  C
  C18      1.0000 0.06750  0.65650  0.20385  Biso   1.000  C
  H21      1.0000 0.10270  0.74920  0.20440  Biso   1.000  H
  C19      1.0000 0.92960  0.63390  0.19120  Biso   1.000  C
  H22      1.0000 0.87190  0.71040  0.18310  Biso   1.000  H
  C20      1.0000 0.87930  0.49740  0.19070  Biso   1.000  C
  H23      1.0000 0.78600  0.48050  0.18290  Biso   1.000  H
  C21      1.0000 0.09690  0.40790  0.21381  Biso   1.000  C
  H24      1.0000 0.15220  0.32900  0.22130  Biso   1.000  H
  C22      1.0000 0.63240  0.04740  0.42230  Biso   1.000  C
  C23      1.0000 0.75500  0.03190  0.39287  Biso   1.000  C
  H25      1.0000 0.71920  0.98590  0.36630  Biso   1.000  H
  H26      1.0000 0.78320  0.12760  0.38520  Biso   1.000  H
  C24      1.0000 0.88510  0.95160  0.40877  Biso   1.000  C
  C25      1.0000 0.90380  0.80950  0.39698  Biso   1.000  C
  H27      1.0000 0.83230  0.76090  0.38160  Biso   1.000  H
  C26      1.0000 0.02730  0.73990  0.40780  Biso   1.000  C
  H28      1.0000 0.03900  0.64420  0.40070  Biso   1.000  H
  C27      1.0000 0.13310  0.81570  0.42950  Biso   1.000  C
  H29      1.0000 0.21700  0.76970  0.43660  Biso   1.000  H
  C28      1.0000 0.99650  0.01840  0.43039  Biso   1.000  C
  H30      1.0000 0.98680  0.11360  0.43840  Biso   1.000  H
  Zn7      1.0000 0.46953  0.71490  0.85904  Biso   1.000  Zn
  Zn8      1.0000 0.29856  0.45175  0.96183  Biso   1.000  Zn
  Zn9      1.0000 0.55921  0.68859  0.69236  Biso   1.000  Zn
  P9       1.0000 0.53886  0.87858  0.77849  Biso   1.000  P
  P10      1.0000 0.25474  0.92750  0.81710  Biso   1.000  P
  P11      1.0000 0.58670  0.62327  0.94832  Biso   1.000  P
  P12      1.0000 0.48104  0.38694  0.88801  Biso   1.000  P
  O29      1.0000 0.59160  0.78430  0.81622  Biso   1.000  O
  O30      1.0000 0.59850  0.83090  0.73687  Biso   1.000  O
  O31      1.0000 0.56830  0.03840  0.78705  Biso   1.000  O
  O32      1.0000 0.32430  0.85640  0.85751  Biso   1.000  O
  O33      1.0000 0.27180  0.08990  0.81846  Biso   1.000  O
  O34      1.0000 0.10430  0.88510  0.80894  Biso   1.000  O
  O35      1.0000 0.30960  0.71220  0.77046  Biso   1.000  O
  H31      1.0000 0.35150  0.66960  0.75220  Biso   1.000  H
  O36      1.0000 0.58670  0.73770  0.91350  Biso   1.000  O
  O37      1.0000 0.44350  0.60430  0.96596  Biso   1.000  O
  O38      1.0000 0.69790  0.65270  0.98438  Biso   1.000  O
  O39      1.0000 0.53280  0.26430  0.86081  Biso   1.000  O
  O40      1.0000 0.42810  0.51220  0.86051  Biso   1.000  O
  O41      1.0000 0.37420  0.33120  0.91776  Biso   1.000  O
  O42      1.0000 0.67420  0.34600  0.95450  Biso   1.000  O
  H32      1.0000 0.63820  0.36390  0.97710  Biso   1.000  H
  N5       1.0000 0.96330  0.11180  0.70146  Biso   1.000  N
  H33      1.0000 0.93050  0.19730  0.70040  Biso   1.000  H
  N6       1.0000 0.11940  0.54730  0.94054  Biso   1.000  N
  C29      1.0000 0.34820  0.86050  0.77075  Biso   1.000  C
  C30      1.0000 0.30640  0.93820  0.72764  Biso   1.000  C
  H34      1.0000 0.34630  0.88580  0.70450  Biso   1.000  H
  H35      1.0000 0.34910  0.03220  0.72880  Biso   1.000  H
  C31      1.0000 0.15450  0.95720  0.71569  Biso   1.000  C
  C32      1.0000 0.06750  0.84350  0.70385  Biso   1.000  C
  H36      1.0000 0.10270  0.75080  0.70440  Biso   1.000  H
  C33      1.0000 0.92960  0.86610  0.69120  Biso   1.000  C
  H37      1.0000 0.87190  0.78960  0.68310  Biso   1.000  H
  C34      1.0000 0.87930  0.00260  0.69070  Biso   1.000  C
  H38      1.0000 0.78600  0.01950  0.68290  Biso   1.000  H
  C35      1.0000 0.09690  0.09210  0.71381  Biso   1.000  C
  H39      1.0000 0.15220  0.17100  0.72130  Biso   1.000  H
  C36      1.0000 0.63240  0.45260  0.92230  Biso   1.000  C
  C37      1.0000 0.75500  0.46810  0.89287  Biso   1.000  C
  H40      1.0000 0.71920  0.51410  0.86630  Biso   1.000  H
  H41      1.0000 0.78320  0.37240  0.88520  Biso   1.000  H
  C38      1.0000 0.88510  0.54840  0.90877  Biso   1.000  C
  C39      1.0000 0.90380  0.69050  0.89698  Biso   1.000  C
  H42      1.0000 0.83230  0.73910  0.88160  Biso   1.000  H
  C40      1.0000 0.02730  0.76010  0.90780  Biso   1.000  C
  H43      1.0000 0.03900  0.85580  0.90070  Biso   1.000  H
  C41      1.0000 0.13310  0.68430  0.92950  Biso   1.000  C
  H44      1.0000 0.21700  0.73030  0.93660  Biso   1.000  H
  C42      1.0000 0.99650  0.48160  0.93039  Biso   1.000  C
  H45      1.0000 0.98680  0.38640  0.93840  Biso   1.000  H
  Zn10     1.0000 0.53047  0.21490  0.64096  Biso   1.000  Zn
  Zn11     1.0000 0.70144  0.95175  0.53817  Biso   1.000  Zn
  Zn12     1.0000 0.44079  0.18859  0.80764  Biso   1.000  Zn
  P13      1.0000 0.46114  0.37858  0.72151  Biso   1.000  P
  P14      1.0000 0.74526  0.42750  0.68290  Biso   1.000  P
  P15      1.0000 0.41330  0.12327  0.55168  Biso   1.000  P
  P16      1.0000 0.51896  0.88694  0.61199  Biso   1.000  P
  O43      1.0000 0.40840  0.28430  0.68378  Biso   1.000  O
  O44      1.0000 0.40150  0.33090  0.76313  Biso   1.000  O
  O45      1.0000 0.43170  0.53840  0.71295  Biso   1.000  O
  O46      1.0000 0.67570  0.35640  0.64249  Biso   1.000  O
  O47      1.0000 0.72820  0.58990  0.68154  Biso   1.000  O
  O48      1.0000 0.89570  0.38510  0.69106  Biso   1.000  O
  O49      1.0000 0.69040  0.21220  0.72954  Biso   1.000  O
  H46      1.0000 0.64850  0.16960  0.74780  Biso   1.000  H
  O50      1.0000 0.41330  0.23770  0.58650  Biso   1.000  O
  O51      1.0000 0.55650  0.10430  0.53404  Biso   1.000  O
  O52      1.0000 0.30210  0.15270  0.51562  Biso   1.000  O
  O53      1.0000 0.46720  0.76430  0.63919  Biso   1.000  O
  O54      1.0000 0.57190  0.01220  0.63949  Biso   1.000  O
  O55      1.0000 0.62580  0.83120  0.58224  Biso   1.000  O
  O56      1.0000 0.32580  0.84600  0.54550  Biso   1.000  O
  H47      1.0000 0.36180  0.86390  0.52290  Biso   1.000  H
  N7       1.0000 0.03670  0.61180  0.79854  Biso   1.000  N
  H48      1.0000 0.06950  0.69730  0.79960  Biso   1.000  H
  N8       1.0000 0.88060  0.04730  0.55946  Biso   1.000  N
  C43      1.0000 0.65180  0.36050  0.72925  Biso   1.000  C
  C44      1.0000 0.69360  0.43820  0.77236  Biso   1.000  C
  H49      1.0000 0.65370  0.38580  0.79550  Biso   1.000  H
  H50      1.0000 0.65090  0.53220  0.77120  Biso   1.000  H
  C45      1.0000 0.84550  0.45720  0.78431  Biso   1.000  C
  C46      1.0000 0.93250  0.34350  0.79615  Biso   1.000  C
  H51      1.0000 0.89730  0.25080  0.79560  Biso   1.000  H
  C47      1.0000 0.07040  0.36610  0.80880  Biso   1.000  C
  H52      1.0000 0.12810  0.28960  0.81690  Biso   1.000  H
  C48      1.0000 0.12070  0.50260  0.80930  Biso   1.000  C
  H53      1.0000 0.21400  0.51950  0.81710  Biso   1.000  H
  C49      1.0000 0.90310  0.59210  0.78619  Biso   1.000  C
  H54      1.0000 0.84780  0.67100  0.77870  Biso   1.000  H
  C50      1.0000 0.36760  0.95260  0.57770  Biso   1.000  C
  C51      1.0000 0.24500  0.96810  0.60713  Biso   1.000  C
  H55      1.0000 0.28080  0.01410  0.63370  Biso   1.000  H
  H56      1.0000 0.21680  0.87240  0.61480  Biso   1.000  H
  C52      1.0000 0.11490  0.04840  0.59123  Biso   1.000  C
  C53      1.0000 0.09620  0.19050  0.60302  Biso   1.000  C
  H57      1.0000 0.16770  0.23910  0.61840  Biso   1.000  H
  C54      1.0000 0.97270  0.26010  0.59220  Biso   1.000  C
  H58      1.0000 0.96100  0.35580  0.59930  Biso   1.000  H
  C55      1.0000 0.86690  0.18430  0.57050  Biso   1.000  C
  H59      1.0000 0.78300  0.23030  0.56340  Biso   1.000  H
  C56      1.0000 0.00350  0.98160  0.56961  Biso   1.000  C
  H60      1.0000 0.01320  0.88640  0.56160  Biso   1.000  H
