data_LIDZOP_clean
_audit_creation_date              2014-07-02
_audit_creation_method            'Materials Studio'
_symmetry_space_group_name_H-M    'P1'
_symmetry_Int_Tables_number       1
_symmetry_cell_setting            triclinic
loop_
_symmetry_equiv_pos_as_xyz
  x,y,z
_cell_length_a                    5.7277
_cell_length_b                    12.1722
_cell_length_c                    22.9034
_cell_angle_alpha                 98.8570
_cell_angle_beta                  90.0000
_cell_angle_gamma                 90.0000
loop_
_atom_site_label
_atom_site_type_symbol
_atom_site_fract_x
_atom_site_fract_y
_atom_site_fract_z
_atom_site_U_iso_or_equiv
_atom_site_adp_type
_atom_site_occupancy
Sr1    Sr    0.25535   0.63348   0.22433   0.01267  Uiso   1.00
Sr2    Sr    0.75535   0.86652   0.27567   0.01267  Uiso   1.00
Sr3    Sr    0.74465   0.36652   0.77567   0.01267  Uiso   1.00
Sr4    Sr    0.24465   0.13348   0.72433   0.01267  Uiso   1.00
H1     H     0.51270   0.37110   0.93590   0.01267  Uiso   1.00
H2     H     0.43620   0.41930   0.03530   0.01267  Uiso   1.00
H3     H     0.79500   0.28680   0.01020   0.01267  Uiso   1.00
H4     H     0.87270   0.23980   0.91010   0.01267  Uiso   1.00
H5     H     0.43410   0.34080   0.17000   0.01267  Uiso   1.00
H6     H     0.51940   0.19030   0.21670   0.01267  Uiso   1.00
H7     H     0.89270   0.05680   0.17160   0.01267  Uiso   1.00
H8     H     0.80900   0.20470   0.12180   0.01267  Uiso   1.00
H9     H     0.01270   0.12890   0.56410   0.01267  Uiso   1.00
H10    H     0.93620   0.08070   0.46470   0.01267  Uiso   1.00
H11    H     0.29500   0.21320   0.48980   0.01267  Uiso   1.00
H12    H     0.37270   0.26020   0.58990   0.01267  Uiso   1.00
H13    H     0.93410   0.15920   0.33000   0.01267  Uiso   1.00
H14    H     0.01940   0.30970   0.28330   0.01267  Uiso   1.00
H15    H     0.39270   0.44320   0.32840   0.01267  Uiso   1.00
H16    H     0.30900   0.29530   0.37820   0.01267  Uiso   1.00
H17    H     0.48730   0.62890   0.06410   0.01267  Uiso   1.00
H18    H     0.56380   0.58070   0.96470   0.01267  Uiso   1.00
H19    H     0.20500   0.71320   0.98980   0.01267  Uiso   1.00
H20    H     0.12730   0.76020   0.08990   0.01267  Uiso   1.00
H21    H     0.56590   0.65920   0.83000   0.01267  Uiso   1.00
H22    H     0.48060   0.80970   0.78330   0.01267  Uiso   1.00
H23    H     0.10730   0.94320   0.82840   0.01267  Uiso   1.00
H24    H     0.19100   0.79530   0.87820   0.01267  Uiso   1.00
H25    H     0.98730   0.87110   0.43590   0.01267  Uiso   1.00
H26    H     0.06380   0.91930   0.53530   0.01267  Uiso   1.00
H27    H     0.70500   0.78680   0.51020   0.01267  Uiso   1.00
H28    H     0.62730   0.73980   0.41010   0.01267  Uiso   1.00
H29    H     0.06590   0.84080   0.67000   0.01267  Uiso   1.00
H30    H     0.98060   0.69030   0.71670   0.01267  Uiso   1.00
H31    H     0.60730   0.55680   0.67160   0.01267  Uiso   1.00
H32    H     0.69100   0.70470   0.62180   0.01267  Uiso   1.00
C1     C     0.24620   0.27610   0.84752   0.01267  Uiso   1.00
C2     C     0.19900   0.30270   0.91271   0.01267  Uiso   1.00
C3     C     0.36750   0.35520   0.95073   0.01267  Uiso   1.00
C4     C     0.32270   0.38400   0.01003   0.01267  Uiso   1.00
C5     C     0.10710   0.35990   0.03157   0.01267  Uiso   1.00
C6     C     0.93810   0.30470   0.99490   0.01267  Uiso   1.00
C7     C     0.98510   0.27650   0.93520   0.01267  Uiso   1.00
C8     C     0.11220   0.28710   0.14250   0.01267  Uiso   1.00
C9     C     0.32630   0.28380   0.17017   0.01267  Uiso   1.00
C10    C     0.37600   0.19380   0.19807   0.01267  Uiso   1.00
C11    C     0.21550   0.10840   0.19882   0.01267  Uiso   1.00
C12    C     0.00170   0.11320   0.17081   0.01267  Uiso   1.00
C13    C     0.95020   0.20210   0.14166   0.01267  Uiso   1.00
C14    C     0.27200   0.01290   0.23206   0.01267  Uiso   1.00
C15    C     0.74620   0.22390   0.65248   0.01267  Uiso   1.00
C16    C     0.69900   0.19730   0.58729   0.01267  Uiso   1.00
C17    C     0.86750   0.14480   0.54927   0.01267  Uiso   1.00
C18    C     0.82270   0.11600   0.48997   0.01267  Uiso   1.00
C19    C     0.60710   0.14010   0.46843   0.01267  Uiso   1.00
C20    C     0.43810   0.19530   0.50510   0.01267  Uiso   1.00
C21    C     0.48510   0.22350   0.56480   0.01267  Uiso   1.00
C22    C     0.61220   0.21290   0.35750   0.01267  Uiso   1.00
C23    C     0.82630   0.21620   0.32983   0.01267  Uiso   1.00
C24    C     0.87600   0.30620   0.30193   0.01267  Uiso   1.00
C25    C     0.71550   0.39160   0.30118   0.01267  Uiso   1.00
C26    C     0.50170   0.38680   0.32919   0.01267  Uiso   1.00
C27    C     0.45020   0.29790   0.35834   0.01267  Uiso   1.00
C28    C     0.77200   0.48710   0.26794   0.01267  Uiso   1.00
C29    C     0.75380   0.72390   0.15248   0.01267  Uiso   1.00
C30    C     0.80100   0.69730   0.08729   0.01267  Uiso   1.00
C31    C     0.63250   0.64480   0.04927   0.01267  Uiso   1.00
C32    C     0.67730   0.61600   0.98997   0.01267  Uiso   1.00
C33    C     0.89290   0.64010   0.96843   0.01267  Uiso   1.00
C34    C     0.06190   0.69530   0.00510   0.01267  Uiso   1.00
C35    C     0.01490   0.72350   0.06480   0.01267  Uiso   1.00
C36    C     0.88780   0.71290   0.85750   0.01267  Uiso   1.00
C37    C     0.67370   0.71620   0.82983   0.01267  Uiso   1.00
C38    C     0.62400   0.80620   0.80193   0.01267  Uiso   1.00
C39    C     0.78450   0.89160   0.80118   0.01267  Uiso   1.00
C40    C     0.99830   0.88680   0.82919   0.01267  Uiso   1.00
C41    C     0.04980   0.79790   0.85834   0.01267  Uiso   1.00
C42    C     0.72800   0.98710   0.76794   0.01267  Uiso   1.00
C43    C     0.25380   0.77610   0.34752   0.01267  Uiso   1.00
C44    C     0.30100   0.80270   0.41271   0.01267  Uiso   1.00
C45    C     0.13250   0.85520   0.45073   0.01267  Uiso   1.00
C46    C     0.17730   0.88400   0.51003   0.01267  Uiso   1.00
C47    C     0.39290   0.85990   0.53157   0.01267  Uiso   1.00
C48    C     0.56190   0.80470   0.49490   0.01267  Uiso   1.00
C49    C     0.51490   0.77650   0.43520   0.01267  Uiso   1.00
C50    C     0.38780   0.78710   0.64250   0.01267  Uiso   1.00
C51    C     0.17370   0.78380   0.67017   0.01267  Uiso   1.00
C52    C     0.12400   0.69380   0.69807   0.01267  Uiso   1.00
C53    C     0.28450   0.60840   0.69882   0.01267  Uiso   1.00
C54    C     0.49830   0.61320   0.67081   0.01267  Uiso   1.00
C55    C     0.54980   0.70210   0.64166   0.01267  Uiso   1.00
C56    C     0.22800   0.51290   0.73206   0.01267  Uiso   1.00
S1     S     0.03829   0.40134   0.10715   0.01267  Uiso   1.00
S2     S     0.53829   0.09866   0.39285   0.01267  Uiso   1.00
S3     S     0.96171   0.59866   0.89285   0.01267  Uiso   1.00
S4     S     0.46171   0.90134   0.60715   0.01267  Uiso   1.00
O1     O     0.48210   0.99559   0.24078   0.01267  Uiso   1.00
O2     O     0.10470   0.96072   0.24883   0.01267  Uiso   1.00
O3     O     0.45180   0.26519   0.82963   0.01267  Uiso   1.00
O4     O     0.07110   0.26170   0.81349   0.01267  Uiso   1.00
O5     O     0.19430   0.49219   0.12892   0.01267  Uiso   1.00
O6     O     0.79080   0.41829   0.11170   0.01267  Uiso   1.00
O7     O     0.98210   0.50441   0.25922   0.01267  Uiso   1.00
O8     O     0.60470   0.53928   0.25117   0.01267  Uiso   1.00
O9     O     0.95180   0.23481   0.67037   0.01267  Uiso   1.00
O10    O     0.57110   0.23830   0.68651   0.01267  Uiso   1.00
O11    O     0.69430   0.00781   0.37108   0.01267  Uiso   1.00
O12    O     0.29080   0.08171   0.38830   0.01267  Uiso   1.00
O13    O     0.51790   0.00441   0.75922   0.01267  Uiso   1.00
O14    O     0.89530   0.03928   0.75117   0.01267  Uiso   1.00
O15    O     0.54820   0.73481   0.17037   0.01267  Uiso   1.00
O16    O     0.92890   0.73830   0.18651   0.01267  Uiso   1.00
O17    O     0.80570   0.50781   0.87108   0.01267  Uiso   1.00
O18    O     0.20920   0.58171   0.88830   0.01267  Uiso   1.00
O19    O     0.01790   0.49559   0.74078   0.01267  Uiso   1.00
O20    O     0.39530   0.46072   0.74883   0.01267  Uiso   1.00
O21    O     0.04820   0.76519   0.32963   0.01267  Uiso   1.00
O22    O     0.42890   0.76170   0.31349   0.01267  Uiso   1.00
O23    O     0.30570   0.99219   0.62892   0.01267  Uiso   1.00
O24    O     0.70920   0.91829   0.61170   0.01267  Uiso   1.00
