data_LIFQIC_clean
_audit_creation_date              2014-07-02
_audit_creation_method            'Materials Studio'
_symmetry_space_group_name_H-M    'P1'
_symmetry_Int_Tables_number       1
_symmetry_cell_setting            triclinic
loop_
_symmetry_equiv_pos_as_xyz
  x,y,z
_cell_length_a                    9.7460
_cell_length_b                    9.7460
_cell_length_c                    9.7460
_cell_angle_alpha                 79.5616
_cell_angle_beta                  79.5616
_cell_angle_gamma                 79.5616
loop_
_atom_site_label
_atom_site_type_symbol
_atom_site_fract_x
_atom_site_fract_y
_atom_site_fract_z
_atom_site_U_iso_or_equiv
_atom_site_adp_type
_atom_site_occupancy
Eu1    Eu    0.50000   0.01164   0.98836   0.01267  Uiso   1.00
Eu2    Eu    0.98836   0.50000   0.01164   0.01267  Uiso   1.00
Eu3    Eu    0.01164   0.98836   0.50000   0.01267  Uiso   1.00
H1     H     0.42495   0.57505  -0.00000   0.01267  Uiso   1.00
H2     H     0.00000   0.42495   0.57505   0.01267  Uiso   1.00
H3     H     0.57505  -0.00000   0.42495   0.01267  Uiso   1.00
C1     C     0.66665   0.66555   0.00375   0.01267  Uiso   1.00
C2     C     0.63641   0.52011   0.00021   0.01267  Uiso   1.00
C3     C     0.00375   0.66665   0.66555   0.01267  Uiso   1.00
C4     C     0.00021   0.63641   0.52011   0.01267  Uiso   1.00
C5     C     0.66555   0.00375   0.66665   0.01267  Uiso   1.00
C6     C     0.52011   0.00021   0.63641   0.01267  Uiso   1.00
C7     C     0.33445   0.33335   0.99625   0.01267  Uiso   1.00
C8     C     0.47989   0.36359   0.99979   0.01267  Uiso   1.00
C9     C     0.33335   0.99625   0.33445   0.01267  Uiso   1.00
C10    C     0.36359   0.99979   0.47989   0.01267  Uiso   1.00
C11    C     0.99625   0.33445   0.33335   0.01267  Uiso   1.00
C12    C     0.99979   0.47989   0.36359   0.01267  Uiso   1.00
C13    C     0.49945   0.50055   0.00000   0.01267  Uiso   1.00
C14    C     0.71835   0.28165   0.00000   0.01267  Uiso   1.00
C15    C     0.00000   0.49945   0.50055   0.01267  Uiso   1.00
C16    C     0.00000   0.71835   0.28165   0.01267  Uiso   1.00
C17    C     0.50055   0.00000   0.49945   0.01267  Uiso   1.00
C18    C     0.28165  -0.00000   0.71835   0.01267  Uiso   1.00
N1     N     0.74488   0.41588   0.00068   0.01267  Uiso   1.00
N2     N     0.00068   0.74488   0.41588   0.01267  Uiso   1.00
N3     N     0.41588   0.00068   0.74488   0.01267  Uiso   1.00
N4     N     0.58412   0.25512   0.99932   0.01267  Uiso   1.00
N5     N     0.25512   0.99932   0.58412   0.01267  Uiso   1.00
N6     N     0.99932   0.58412   0.25512   0.01267  Uiso   1.00
O1     O     0.57006   0.76616   0.98536   0.01267  Uiso   1.00
O2     O     0.78712   0.67422   0.02752   0.01267  Uiso   1.00
O3     O     0.98536   0.57006   0.76616   0.01267  Uiso   1.00
O4     O     0.02752   0.78712   0.67422   0.01267  Uiso   1.00
O5     O     0.76616   0.98536   0.57006   0.01267  Uiso   1.00
O6     O     0.67422   0.02752   0.78712   0.01267  Uiso   1.00
O7     O     0.23384   0.42994   0.01464   0.01267  Uiso   1.00
O8     O     0.32578   0.21288   0.97248   0.01267  Uiso   1.00
O9     O     0.42994   0.01464   0.23384   0.01267  Uiso   1.00
O10    O     0.21288   0.97248   0.32578   0.01267  Uiso   1.00
O11    O     0.01464   0.23384   0.42994   0.01267  Uiso   1.00
O12    O     0.97248   0.32578   0.21288   0.01267  Uiso   1.00
O13    O     0.81895   0.18105   0.00000   0.01267  Uiso   1.00
O14    O     0.00000   0.81895   0.18105   0.01267  Uiso   1.00
O15    O     0.18105  -0.00000   0.81895   0.01267  Uiso   1.00
