data_image0
_cell_length_a       21.892
_cell_length_b       12.609
_cell_length_c       23.263
_cell_angle_alpha    90
_cell_angle_beta     102.894
_cell_angle_gamma    90

_symmetry_space_group_name_H-M    "P 1"
_symmetry_int_tables_number       1

loop_
  _symmetry_equiv_pos_as_xyz
  'x, y, z'

loop_
  _atom_site_label
  _atom_site_occupancy
  _atom_site_fract_x
  _atom_site_fract_y
  _atom_site_fract_z
  _atom_site_thermal_displace_type
  _atom_site_B_iso_or_equiv
  _atom_site_type_symbol
  Cd1      1.0000 0.09450  0.67684  0.26545  Biso   1.000  Cd
  O1       1.0000 0.09957  0.39260  0.24380  Biso   1.000  O
  O2       1.0000 0.15601  0.53360  0.27680  Biso   1.000  O
  O3       1.0000 0.05068  0.83520  0.27186  Biso   1.000  O
  N1       1.0000 0.31472  0.27340  0.24160  Biso   1.000  N
  N2       1.0000 0.02490  0.39670  0.35420  Biso   1.000  N
  N3       1.0000 0.07810  0.32560  0.66230  Biso   1.000  N
  N4       1.0000 0.13570  0.69790  0.36910  Biso   1.000  N
  C1       1.0000 0.14970  0.44040  0.25820  Biso   1.000  C
  C2       1.0000 0.20730  0.38250  0.25260  Biso   1.000  C
  C3       1.0000 0.20350  0.28990  0.22130  Biso   1.000  C
  H1       1.0000 0.16450  0.26200  0.20340  Biso   1.000  H
  C4       1.0000 0.25770  0.23800  0.21660  Biso   1.000  C
  H2       1.0000 0.25420  0.17550  0.19490  Biso   1.000  H
  C5       1.0000 0.31800  0.36380  0.27060  Biso   1.000  C
  H3       1.0000 0.35750  0.39060  0.28750  Biso   1.000  H
  C6       1.0000 0.26680  0.42020  0.27730  Biso   1.000  C
  H4       1.0000 0.27190  0.48350  0.29830  Biso   1.000  H
  C7       1.0000 0.05370  0.05550  0.27410  Biso   1.000  C
  H5       1.0000 0.09060  0.02020  0.29090  Biso   1.000  H
  C8       1.0000 0.05200  0.16440  0.27280  Biso   1.000  C
  H6       1.0000 0.08860  0.20150  0.28850  Biso   1.000  H
  C9       1.0000 0.08120  0.36540  0.38510  Biso   1.000  C
  H7       1.0000 0.11330  0.35570  0.36530  Biso   1.000  H
  C10      1.0000 0.09330  0.34690  0.44470  Biso   1.000  C
  H8       1.0000 0.13320  0.32570  0.46450  Biso   1.000  H
  C11      1.0000 0.04660  0.35970  0.47520  Biso   1.000  C
  C12      1.0000 0.98920  0.39040  0.44330  Biso   1.000  C
  H9       1.0000 0.95620  0.39890  0.46200  Biso   1.000  H
  C13      1.0000 0.97990  0.40880  0.38410  Biso   1.000  C
  H10      1.0000 0.94040  0.43070  0.36370  Biso   1.000  H
  C14      1.0000 0.05850  0.34300  0.53980  Biso   1.000  C
  C15      1.0000 0.11510  0.36740  0.57650  Biso   1.000  C
  H11      1.0000 0.14790  0.39130  0.56050  Biso   1.000  H
  C16      1.0000 0.12380  0.35690  0.63590  Biso   1.000  C
  H12      1.0000 0.16310  0.37220  0.65930  Biso   1.000  H
  C17      1.0000 0.02370  0.29960  0.62690  Biso   1.000  C
  H13      1.0000 0.99190  0.27480  0.64400  Biso   1.000  H
  C18      1.0000 0.01180  0.30720  0.56670  Biso   1.000  C
  H14      1.0000 0.97270  0.28850  0.54400  Biso   1.000  H
  C19      1.0000 0.16600  0.62050  0.40190  Biso   1.000  C
  H15      1.0000 0.15690  0.55100  0.38950  Biso   1.000  H
  C20      1.0000 0.21030  0.63720  0.45360  Biso   1.000  C
  H16      1.0000 0.22990  0.57960  0.47500  Biso   1.000  H
  C21      1.0000 0.22550  0.73890  0.47330  Biso   1.000  C
  C22      1.0000 0.19250  0.81800  0.43940  Biso   1.000  C
  H17      1.0000 0.19980  0.88830  0.45100  Biso   1.000  H
  C23      1.0000 0.14880  0.79520  0.38870  Biso   1.000  C
  H18      1.0000 0.12750  0.85120  0.36710  Biso   1.000  H
  Cd2      1.0000 0.59450  0.17684  0.26545  Biso   1.000  Cd
  O4       1.0000 0.59957  0.89260  0.24380  Biso   1.000  O
  O5       1.0000 0.65601  0.03360  0.27680  Biso   1.000  O
  O6       1.0000 0.55068  0.33520  0.27186  Biso   1.000  O
  N5       1.0000 0.81472  0.77340  0.24160  Biso   1.000  N
  N6       1.0000 0.52490  0.89670  0.35420  Biso   1.000  N
  N7       1.0000 0.57810  0.82560  0.66230  Biso   1.000  N
  N8       1.0000 0.63570  0.19790  0.36910  Biso   1.000  N
  C24      1.0000 0.64970  0.94040  0.25820  Biso   1.000  C
  C25      1.0000 0.70730  0.88250  0.25260  Biso   1.000  C
  C26      1.0000 0.70350  0.78990  0.22130  Biso   1.000  C
  H19      1.0000 0.66450  0.76200  0.20340  Biso   1.000  H
  C27      1.0000 0.75770  0.73800  0.21660  Biso   1.000  C
  H20      1.0000 0.75420  0.67550  0.19490  Biso   1.000  H
  C28      1.0000 0.81800  0.86380  0.27060  Biso   1.000  C
  H21      1.0000 0.85750  0.89060  0.28750  Biso   1.000  H
  C29      1.0000 0.76680  0.92020  0.27730  Biso   1.000  C
  H22      1.0000 0.77190  0.98350  0.29830  Biso   1.000  H
  C30      1.0000 0.55370  0.55550  0.27410  Biso   1.000  C
  H23      1.0000 0.59060  0.52020  0.29090  Biso   1.000  H
  C31      1.0000 0.55200  0.66440  0.27280  Biso   1.000  C
  H24      1.0000 0.58860  0.70150  0.28850  Biso   1.000  H
  C32      1.0000 0.58120  0.86540  0.38510  Biso   1.000  C
  H25      1.0000 0.61330  0.85570  0.36530  Biso   1.000  H
  C33      1.0000 0.59330  0.84690  0.44470  Biso   1.000  C
  H26      1.0000 0.63320  0.82570  0.46450  Biso   1.000  H
  C34      1.0000 0.54660  0.85970  0.47520  Biso   1.000  C
  C35      1.0000 0.48920  0.89040  0.44330  Biso   1.000  C
  H27      1.0000 0.45620  0.89890  0.46200  Biso   1.000  H
  C36      1.0000 0.47990  0.90880  0.38410  Biso   1.000  C
  H28      1.0000 0.44040  0.93070  0.36370  Biso   1.000  H
  C37      1.0000 0.55850  0.84300  0.53980  Biso   1.000  C
  C38      1.0000 0.61510  0.86740  0.57650  Biso   1.000  C
  H29      1.0000 0.64790  0.89130  0.56050  Biso   1.000  H
  C39      1.0000 0.62380  0.85690  0.63590  Biso   1.000  C
  H30      1.0000 0.66310  0.87220  0.65930  Biso   1.000  H
  C40      1.0000 0.52370  0.79960  0.62690  Biso   1.000  C
  H31      1.0000 0.49190  0.77480  0.64400  Biso   1.000  H
  C41      1.0000 0.51180  0.80720  0.56670  Biso   1.000  C
  H32      1.0000 0.47270  0.78850  0.54400  Biso   1.000  H
  C42      1.0000 0.66600  0.12050  0.40190  Biso   1.000  C
  H33      1.0000 0.65690  0.05100  0.38950  Biso   1.000  H
  C43      1.0000 0.71030  0.13720  0.45360  Biso   1.000  C
  H34      1.0000 0.72990  0.07960  0.47500  Biso   1.000  H
  C44      1.0000 0.72550  0.23890  0.47330  Biso   1.000  C
  C45      1.0000 0.69250  0.31800  0.43940  Biso   1.000  C
  H35      1.0000 0.69980  0.38830  0.45100  Biso   1.000  H
  C46      1.0000 0.64880  0.29520  0.38870  Biso   1.000  C
  H36      1.0000 0.62750  0.35120  0.36710  Biso   1.000  H
  Cd3      1.0000 0.90550  0.67684  0.23455  Biso   1.000  Cd
  O7       1.0000 0.90043  0.39260  0.25620  Biso   1.000  O
  O8       1.0000 0.84399  0.53360  0.22320  Biso   1.000  O
  O9       1.0000 0.94932  0.83520  0.22814  Biso   1.000  O
  N9       1.0000 0.68528  0.27340  0.25840  Biso   1.000  N
  N10      1.0000 0.97510  0.39670  0.14580  Biso   1.000  N
  N11      1.0000 0.92190  0.32560  0.83770  Biso   1.000  N
  N12      1.0000 0.86430  0.69790  0.13090  Biso   1.000  N
  C47      1.0000 0.85030  0.44040  0.24180  Biso   1.000  C
  C48      1.0000 0.79270  0.38250  0.24740  Biso   1.000  C
  C49      1.0000 0.79650  0.28990  0.27870  Biso   1.000  C
  H37      1.0000 0.83550  0.26200  0.29660  Biso   1.000  H
  C50      1.0000 0.74230  0.23800  0.28340  Biso   1.000  C
  H38      1.0000 0.74580  0.17550  0.30510  Biso   1.000  H
  C51      1.0000 0.68200  0.36380  0.22940  Biso   1.000  C
  H39      1.0000 0.64250  0.39060  0.21250  Biso   1.000  H
  C52      1.0000 0.73320  0.42020  0.22270  Biso   1.000  C
  H40      1.0000 0.72810  0.48350  0.20170  Biso   1.000  H
  C53      1.0000 0.94630  0.05550  0.22590  Biso   1.000  C
  H41      1.0000 0.90940  0.02020  0.20910  Biso   1.000  H
  C54      1.0000 0.94800  0.16440  0.22720  Biso   1.000  C
  H42      1.0000 0.91140  0.20150  0.21150  Biso   1.000  H
  C55      1.0000 0.91880  0.36540  0.11490  Biso   1.000  C
  H43      1.0000 0.88670  0.35570  0.13470  Biso   1.000  H
  C56      1.0000 0.90670  0.34690  0.05530  Biso   1.000  C
  H44      1.0000 0.86680  0.32570  0.03550  Biso   1.000  H
  C57      1.0000 0.95340  0.35970  0.02480  Biso   1.000  C
  C58      1.0000 0.01080  0.39040  0.05670  Biso   1.000  C
  H45      1.0000 0.04380  0.39890  0.03800  Biso   1.000  H
  C59      1.0000 0.02010  0.40880  0.11590  Biso   1.000  C
  H46      1.0000 0.05960  0.43070  0.13630  Biso   1.000  H
  C60      1.0000 0.94150  0.34300  0.96020  Biso   1.000  C
  C61      1.0000 0.88490  0.36740  0.92350  Biso   1.000  C
  H47      1.0000 0.85210  0.39130  0.93950  Biso   1.000  H
  C62      1.0000 0.87620  0.35690  0.86410  Biso   1.000  C
  H48      1.0000 0.83690  0.37220  0.84070  Biso   1.000  H
  C63      1.0000 0.97630  0.29960  0.87310  Biso   1.000  C
  H49      1.0000 0.00810  0.27480  0.85600  Biso   1.000  H
  C64      1.0000 0.98820  0.30720  0.93330  Biso   1.000  C
  H50      1.0000 0.02730  0.28850  0.95600  Biso   1.000  H
  C65      1.0000 0.83400  0.62050  0.09810  Biso   1.000  C
  H51      1.0000 0.84310  0.55100  0.11050  Biso   1.000  H
  C66      1.0000 0.78970  0.63720  0.04640  Biso   1.000  C
  H52      1.0000 0.77010  0.57960  0.02500  Biso   1.000  H
  C67      1.0000 0.77450  0.73890  0.02670  Biso   1.000  C
  C68      1.0000 0.80750  0.81800  0.06060  Biso   1.000  C
  H53      1.0000 0.80020  0.88830  0.04900  Biso   1.000  H
  C69      1.0000 0.85120  0.79520  0.11130  Biso   1.000  C
  H54      1.0000 0.87250  0.85120  0.13290  Biso   1.000  H
  Cd4      1.0000 0.40550  0.17684  0.23455  Biso   1.000  Cd
  O10      1.0000 0.40043  0.89260  0.25620  Biso   1.000  O
  O11      1.0000 0.34399  0.03360  0.22320  Biso   1.000  O
  O12      1.0000 0.44932  0.33520  0.22814  Biso   1.000  O
  N13      1.0000 0.18528  0.77340  0.25840  Biso   1.000  N
  N14      1.0000 0.47510  0.89670  0.14580  Biso   1.000  N
  N15      1.0000 0.42190  0.82560  0.83770  Biso   1.000  N
  N16      1.0000 0.36430  0.19790  0.13090  Biso   1.000  N
  C70      1.0000 0.35030  0.94040  0.24180  Biso   1.000  C
  C71      1.0000 0.29270  0.88250  0.24740  Biso   1.000  C
  C72      1.0000 0.29650  0.78990  0.27870  Biso   1.000  C
  H55      1.0000 0.33550  0.76200  0.29660  Biso   1.000  H
  C73      1.0000 0.24230  0.73800  0.28340  Biso   1.000  C
  H56      1.0000 0.24580  0.67550  0.30510  Biso   1.000  H
  C74      1.0000 0.18200  0.86380  0.22940  Biso   1.000  C
  H57      1.0000 0.14250  0.89060  0.21250  Biso   1.000  H
  C75      1.0000 0.23320  0.92020  0.22270  Biso   1.000  C
  H58      1.0000 0.22810  0.98350  0.20170  Biso   1.000  H
  C76      1.0000 0.44630  0.55550  0.22590  Biso   1.000  C
  H59      1.0000 0.40940  0.52020  0.20910  Biso   1.000  H
  C77      1.0000 0.44800  0.66440  0.22720  Biso   1.000  C
  H60      1.0000 0.41140  0.70150  0.21150  Biso   1.000  H
  C78      1.0000 0.41880  0.86540  0.11490  Biso   1.000  C
  H61      1.0000 0.38670  0.85570  0.13470  Biso   1.000  H
  C79      1.0000 0.40670  0.84690  0.05530  Biso   1.000  C
  H62      1.0000 0.36680  0.82570  0.03550  Biso   1.000  H
  C80      1.0000 0.45340  0.85970  0.02480  Biso   1.000  C
  C81      1.0000 0.51080  0.89040  0.05670  Biso   1.000  C
  H63      1.0000 0.54380  0.89890  0.03800  Biso   1.000  H
  C82      1.0000 0.52010  0.90880  0.11590  Biso   1.000  C
  H64      1.0000 0.55960  0.93070  0.13630  Biso   1.000  H
  C83      1.0000 0.44150  0.84300  0.96020  Biso   1.000  C
  C84      1.0000 0.38490  0.86740  0.92350  Biso   1.000  C
  H65      1.0000 0.35210  0.89130  0.93950  Biso   1.000  H
  C85      1.0000 0.37620  0.85690  0.86410  Biso   1.000  C
  H66      1.0000 0.33690  0.87220  0.84070  Biso   1.000  H
  C86      1.0000 0.47630  0.79960  0.87310  Biso   1.000  C
  H67      1.0000 0.50810  0.77480  0.85600  Biso   1.000  H
  C87      1.0000 0.48820  0.80720  0.93330  Biso   1.000  C
  H68      1.0000 0.52730  0.78850  0.95600  Biso   1.000  H
  C88      1.0000 0.33400  0.12050  0.09810  Biso   1.000  C
  H69      1.0000 0.34310  0.05100  0.11050  Biso   1.000  H
  C89      1.0000 0.28970  0.13720  0.04640  Biso   1.000  C
  H70      1.0000 0.27010  0.07960  0.02500  Biso   1.000  H
  C90      1.0000 0.27450  0.23890  0.02670  Biso   1.000  C
  C91      1.0000 0.30750  0.31800  0.06060  Biso   1.000  C
  H71      1.0000 0.30020  0.38830  0.04900  Biso   1.000  H
  C92      1.0000 0.35120  0.29520  0.11130  Biso   1.000  C
  H72      1.0000 0.37250  0.35120  0.13290  Biso   1.000  H
  Cd5      1.0000 0.90550  0.32316  0.73455  Biso   1.000  Cd
  O13      1.0000 0.90043  0.60740  0.75620  Biso   1.000  O
  O14      1.0000 0.84399  0.46640  0.72320  Biso   1.000  O
  O15      1.0000 0.94932  0.16480  0.72814  Biso   1.000  O
  N17      1.0000 0.68528  0.72660  0.75840  Biso   1.000  N
  N18      1.0000 0.97510  0.60330  0.64580  Biso   1.000  N
  N19      1.0000 0.92190  0.67440  0.33770  Biso   1.000  N
  N20      1.0000 0.86430  0.30210  0.63090  Biso   1.000  N
  C93      1.0000 0.85030  0.55960  0.74180  Biso   1.000  C
  C94      1.0000 0.79270  0.61750  0.74740  Biso   1.000  C
  C95      1.0000 0.79650  0.71010  0.77870  Biso   1.000  C
  H73      1.0000 0.83550  0.73800  0.79660  Biso   1.000  H
  C96      1.0000 0.74230  0.76200  0.78340  Biso   1.000  C
  H74      1.0000 0.74580  0.82450  0.80510  Biso   1.000  H
  C97      1.0000 0.68200  0.63620  0.72940  Biso   1.000  C
  H75      1.0000 0.64250  0.60940  0.71250  Biso   1.000  H
  C98      1.0000 0.73320  0.57980  0.72270  Biso   1.000  C
  H76      1.0000 0.72810  0.51650  0.70170  Biso   1.000  H
  C99      1.0000 0.94630  0.94450  0.72590  Biso   1.000  C
  H77      1.0000 0.90940  0.97980  0.70910  Biso   1.000  H
  C100     1.0000 0.94800  0.83560  0.72720  Biso   1.000  C
  H78      1.0000 0.91140  0.79850  0.71150  Biso   1.000  H
  C101     1.0000 0.91880  0.63460  0.61490  Biso   1.000  C
  H79      1.0000 0.88670  0.64430  0.63470  Biso   1.000  H
  C102     1.0000 0.90670  0.65310  0.55530  Biso   1.000  C
  H80      1.0000 0.86680  0.67430  0.53550  Biso   1.000  H
  C103     1.0000 0.95340  0.64030  0.52480  Biso   1.000  C
  C104     1.0000 0.01080  0.60960  0.55670  Biso   1.000  C
  H81      1.0000 0.04380  0.60110  0.53800  Biso   1.000  H
  C105     1.0000 0.02010  0.59120  0.61590  Biso   1.000  C
  H82      1.0000 0.05960  0.56930  0.63630  Biso   1.000  H
  C106     1.0000 0.94150  0.65700  0.46020  Biso   1.000  C
  C107     1.0000 0.88490  0.63260  0.42350  Biso   1.000  C
  H83      1.0000 0.85210  0.60870  0.43950  Biso   1.000  H
  C108     1.0000 0.87620  0.64310  0.36410  Biso   1.000  C
  H84      1.0000 0.83690  0.62780  0.34070  Biso   1.000  H
  C109     1.0000 0.97630  0.70040  0.37310  Biso   1.000  C
  H85      1.0000 0.00810  0.72520  0.35600  Biso   1.000  H
  C110     1.0000 0.98820  0.69280  0.43330  Biso   1.000  C
  H86      1.0000 0.02730  0.71150  0.45600  Biso   1.000  H
  C111     1.0000 0.83400  0.37950  0.59810  Biso   1.000  C
  H87      1.0000 0.84310  0.44900  0.61050  Biso   1.000  H
  C112     1.0000 0.78970  0.36280  0.54640  Biso   1.000  C
  H88      1.0000 0.77010  0.42040  0.52500  Biso   1.000  H
  C113     1.0000 0.77450  0.26110  0.52670  Biso   1.000  C
  C114     1.0000 0.80750  0.18200  0.56060  Biso   1.000  C
  H89      1.0000 0.80020  0.11170  0.54900  Biso   1.000  H
  C115     1.0000 0.85120  0.20480  0.61130  Biso   1.000  C
  H90      1.0000 0.87250  0.14880  0.63290  Biso   1.000  H
  Cd6      1.0000 0.40550  0.82316  0.73455  Biso   1.000  Cd
  O16      1.0000 0.40043  0.10740  0.75620  Biso   1.000  O
  O17      1.0000 0.34399  0.96640  0.72320  Biso   1.000  O
  O18      1.0000 0.44932  0.66480  0.72814  Biso   1.000  O
  N21      1.0000 0.18528  0.22660  0.75840  Biso   1.000  N
  N22      1.0000 0.47510  0.10330  0.64580  Biso   1.000  N
  N23      1.0000 0.42190  0.17440  0.33770  Biso   1.000  N
  N24      1.0000 0.36430  0.80210  0.63090  Biso   1.000  N
  C116     1.0000 0.35030  0.05960  0.74180  Biso   1.000  C
  C117     1.0000 0.29270  0.11750  0.74740  Biso   1.000  C
  C118     1.0000 0.29650  0.21010  0.77870  Biso   1.000  C
  H91      1.0000 0.33550  0.23800  0.79660  Biso   1.000  H
  C119     1.0000 0.24230  0.26200  0.78340  Biso   1.000  C
  H92      1.0000 0.24580  0.32450  0.80510  Biso   1.000  H
  C120     1.0000 0.18200  0.13620  0.72940  Biso   1.000  C
  H93      1.0000 0.14250  0.10940  0.71250  Biso   1.000  H
  C121     1.0000 0.23320  0.07980  0.72270  Biso   1.000  C
  H94      1.0000 0.22810  0.01650  0.70170  Biso   1.000  H
  C122     1.0000 0.44630  0.44450  0.72590  Biso   1.000  C
  H95      1.0000 0.40940  0.47980  0.70910  Biso   1.000  H
  C123     1.0000 0.44800  0.33560  0.72720  Biso   1.000  C
  H96      1.0000 0.41140  0.29850  0.71150  Biso   1.000  H
  C124     1.0000 0.41880  0.13460  0.61490  Biso   1.000  C
  H97      1.0000 0.38670  0.14430  0.63470  Biso   1.000  H
  C125     1.0000 0.40670  0.15310  0.55530  Biso   1.000  C
  H98      1.0000 0.36680  0.17430  0.53550  Biso   1.000  H
  C126     1.0000 0.45340  0.14030  0.52480  Biso   1.000  C
  C127     1.0000 0.51080  0.10960  0.55670  Biso   1.000  C
  H99      1.0000 0.54380  0.10110  0.53800  Biso   1.000  H
  C128     1.0000 0.52010  0.09120  0.61590  Biso   1.000  C
  H100     1.0000 0.55960  0.06930  0.63630  Biso   1.000  H
  C129     1.0000 0.44150  0.15700  0.46020  Biso   1.000  C
  C130     1.0000 0.38490  0.13260  0.42350  Biso   1.000  C
  H101     1.0000 0.35210  0.10870  0.43950  Biso   1.000  H
  C131     1.0000 0.37620  0.14310  0.36410  Biso   1.000  C
  H102     1.0000 0.33690  0.12780  0.34070  Biso   1.000  H
  C132     1.0000 0.47630  0.20040  0.37310  Biso   1.000  C
  H103     1.0000 0.50810  0.22520  0.35600  Biso   1.000  H
  C133     1.0000 0.48820  0.19280  0.43330  Biso   1.000  C
  H104     1.0000 0.52730  0.21150  0.45600  Biso   1.000  H
  C134     1.0000 0.33400  0.87950  0.59810  Biso   1.000  C
  H105     1.0000 0.34310  0.94900  0.61050  Biso   1.000  H
  C135     1.0000 0.28970  0.86280  0.54640  Biso   1.000  C
  H106     1.0000 0.27010  0.92040  0.52500  Biso   1.000  H
  C136     1.0000 0.27450  0.76110  0.52670  Biso   1.000  C
  C137     1.0000 0.30750  0.68200  0.56060  Biso   1.000  C
  H107     1.0000 0.30020  0.61170  0.54900  Biso   1.000  H
  C138     1.0000 0.35120  0.70480  0.61130  Biso   1.000  C
  H108     1.0000 0.37250  0.64880  0.63290  Biso   1.000  H
  Cd7      1.0000 0.09450  0.32316  0.76545  Biso   1.000  Cd
  O19      1.0000 0.09957  0.60740  0.74380  Biso   1.000  O
  O20      1.0000 0.15601  0.46640  0.77680  Biso   1.000  O
  O21      1.0000 0.05068  0.16480  0.77186  Biso   1.000  O
  N25      1.0000 0.31472  0.72660  0.74160  Biso   1.000  N
  N26      1.0000 0.02490  0.60330  0.85420  Biso   1.000  N
  N27      1.0000 0.07810  0.67440  0.16230  Biso   1.000  N
  N28      1.0000 0.13570  0.30210  0.86910  Biso   1.000  N
  C139     1.0000 0.14970  0.55960  0.75820  Biso   1.000  C
  C140     1.0000 0.20730  0.61750  0.75260  Biso   1.000  C
  C141     1.0000 0.20350  0.71010  0.72130  Biso   1.000  C
  H109     1.0000 0.16450  0.73800  0.70340  Biso   1.000  H
  C142     1.0000 0.25770  0.76200  0.71660  Biso   1.000  C
  H110     1.0000 0.25420  0.82450  0.69490  Biso   1.000  H
  C143     1.0000 0.31800  0.63620  0.77060  Biso   1.000  C
  H111     1.0000 0.35750  0.60940  0.78750  Biso   1.000  H
  C144     1.0000 0.26680  0.57980  0.77730  Biso   1.000  C
  H112     1.0000 0.27190  0.51650  0.79830  Biso   1.000  H
  C145     1.0000 0.05370  0.94450  0.77410  Biso   1.000  C
  H113     1.0000 0.09060  0.97980  0.79090  Biso   1.000  H
  C146     1.0000 0.05200  0.83560  0.77280  Biso   1.000  C
  H114     1.0000 0.08860  0.79850  0.78850  Biso   1.000  H
  C147     1.0000 0.08120  0.63460  0.88510  Biso   1.000  C
  H115     1.0000 0.11330  0.64430  0.86530  Biso   1.000  H
  C148     1.0000 0.09330  0.65310  0.94470  Biso   1.000  C
  H116     1.0000 0.13320  0.67430  0.96450  Biso   1.000  H
  C149     1.0000 0.04660  0.64030  0.97520  Biso   1.000  C
  C150     1.0000 0.98920  0.60960  0.94330  Biso   1.000  C
  H117     1.0000 0.95620  0.60110  0.96200  Biso   1.000  H
  C151     1.0000 0.97990  0.59120  0.88410  Biso   1.000  C
  H118     1.0000 0.94040  0.56930  0.86370  Biso   1.000  H
  C152     1.0000 0.05850  0.65700  0.03980  Biso   1.000  C
  C153     1.0000 0.11510  0.63260  0.07650  Biso   1.000  C
  H119     1.0000 0.14790  0.60870  0.06050  Biso   1.000  H
  C154     1.0000 0.12380  0.64310  0.13590  Biso   1.000  C
  H120     1.0000 0.16310  0.62780  0.15930  Biso   1.000  H
  C155     1.0000 0.02370  0.70040  0.12690  Biso   1.000  C
  H121     1.0000 0.99190  0.72520  0.14400  Biso   1.000  H
  C156     1.0000 0.01180  0.69280  0.06670  Biso   1.000  C
  H122     1.0000 0.97270  0.71150  0.04400  Biso   1.000  H
  C157     1.0000 0.16600  0.37950  0.90190  Biso   1.000  C
  H123     1.0000 0.15690  0.44900  0.88950  Biso   1.000  H
  C158     1.0000 0.21030  0.36280  0.95360  Biso   1.000  C
  H124     1.0000 0.22990  0.42040  0.97500  Biso   1.000  H
  C159     1.0000 0.22550  0.26110  0.97330  Biso   1.000  C
  C160     1.0000 0.19250  0.18200  0.93940  Biso   1.000  C
  H125     1.0000 0.19980  0.11170  0.95100  Biso   1.000  H
  C161     1.0000 0.14880  0.20480  0.88870  Biso   1.000  C
  H126     1.0000 0.12750  0.14880  0.86710  Biso   1.000  H
  Cd8      1.0000 0.59450  0.82316  0.76545  Biso   1.000  Cd
  O22      1.0000 0.59957  0.10740  0.74380  Biso   1.000  O
  O23      1.0000 0.65601  0.96640  0.77680  Biso   1.000  O
  O24      1.0000 0.55068  0.66480  0.77186  Biso   1.000  O
  N29      1.0000 0.81472  0.22660  0.74160  Biso   1.000  N
  N30      1.0000 0.52490  0.10330  0.85420  Biso   1.000  N
  N31      1.0000 0.57810  0.17440  0.16230  Biso   1.000  N
  N32      1.0000 0.63570  0.80210  0.86910  Biso   1.000  N
  C162     1.0000 0.64970  0.05960  0.75820  Biso   1.000  C
  C163     1.0000 0.70730  0.11750  0.75260  Biso   1.000  C
  C164     1.0000 0.70350  0.21010  0.72130  Biso   1.000  C
  H127     1.0000 0.66450  0.23800  0.70340  Biso   1.000  H
  C165     1.0000 0.75770  0.26200  0.71660  Biso   1.000  C
  H128     1.0000 0.75420  0.32450  0.69490  Biso   1.000  H
  C166     1.0000 0.81800  0.13620  0.77060  Biso   1.000  C
  H129     1.0000 0.85750  0.10940  0.78750  Biso   1.000  H
  C167     1.0000 0.76680  0.07980  0.77730  Biso   1.000  C
  H130     1.0000 0.77190  0.01650  0.79830  Biso   1.000  H
  C168     1.0000 0.55370  0.44450  0.77410  Biso   1.000  C
  H131     1.0000 0.59060  0.47980  0.79090  Biso   1.000  H
  C169     1.0000 0.55200  0.33560  0.77280  Biso   1.000  C
  H132     1.0000 0.58860  0.29850  0.78850  Biso   1.000  H
  C170     1.0000 0.58120  0.13460  0.88510  Biso   1.000  C
  H133     1.0000 0.61330  0.14430  0.86530  Biso   1.000  H
  C171     1.0000 0.59330  0.15310  0.94470  Biso   1.000  C
  H134     1.0000 0.63320  0.17430  0.96450  Biso   1.000  H
  C172     1.0000 0.54660  0.14030  0.97520  Biso   1.000  C
  C173     1.0000 0.48920  0.10960  0.94330  Biso   1.000  C
  H135     1.0000 0.45620  0.10110  0.96200  Biso   1.000  H
  C174     1.0000 0.47990  0.09120  0.88410  Biso   1.000  C
  H136     1.0000 0.44040  0.06930  0.86370  Biso   1.000  H
  C175     1.0000 0.55850  0.15700  0.03980  Biso   1.000  C
  C176     1.0000 0.61510  0.13260  0.07650  Biso   1.000  C
  H137     1.0000 0.64790  0.10870  0.06050  Biso   1.000  H
  C177     1.0000 0.62380  0.14310  0.13590  Biso   1.000  C
  H138     1.0000 0.66310  0.12780  0.15930  Biso   1.000  H
  C178     1.0000 0.52370  0.20040  0.12690  Biso   1.000  C
  H139     1.0000 0.49190  0.22520  0.14400  Biso   1.000  H
  C179     1.0000 0.51180  0.19280  0.06670  Biso   1.000  C
  H140     1.0000 0.47270  0.21150  0.04400  Biso   1.000  H
  C180     1.0000 0.66600  0.87950  0.90190  Biso   1.000  C
  H141     1.0000 0.65690  0.94900  0.88950  Biso   1.000  H
  C181     1.0000 0.71030  0.86280  0.95360  Biso   1.000  C
  H142     1.0000 0.72990  0.92040  0.97500  Biso   1.000  H
  C182     1.0000 0.72550  0.76110  0.97330  Biso   1.000  C
  C183     1.0000 0.69250  0.68200  0.93940  Biso   1.000  C
  H143     1.0000 0.69980  0.61170  0.95100  Biso   1.000  H
  C184     1.0000 0.64880  0.70480  0.88870  Biso   1.000  C
  H144     1.0000 0.62750  0.64880  0.86710  Biso   1.000  H
  Cd9      1.0000 0.00000  0.40863  0.25000  Biso   1.000  Cd
  F1       1.0000 0.00000  0.59040  0.25000  Biso   1.000  F
  N33      1.0000 0.00000  0.21990  0.25000  Biso   1.000  N
  C185     1.0000 0.00000  0.88030  0.25000  Biso   1.000  C
  C186     1.0000 0.00000  0.99910  0.25000  Biso   1.000  C
  Cd10     1.0000 0.50000  0.90863  0.25000  Biso   1.000  Cd
  F2       1.0000 0.50000  0.09040  0.25000  Biso   1.000  F
  N34      1.0000 0.50000  0.71990  0.25000  Biso   1.000  N
  C187     1.0000 0.50000  0.38030  0.25000  Biso   1.000  C
  C188     1.0000 0.50000  0.49910  0.25000  Biso   1.000  C
  Cd11     1.0000 0.00000  0.59137  0.75000  Biso   1.000  Cd
  F3       1.0000 0.00000  0.40960  0.75000  Biso   1.000  F
  N35      1.0000 0.00000  0.78010  0.75000  Biso   1.000  N
  C189     1.0000 0.00000  0.11970  0.75000  Biso   1.000  C
  C190     1.0000 0.00000  0.00090  0.75000  Biso   1.000  C
  Cd12     1.0000 0.50000  0.09137  0.75000  Biso   1.000  Cd
  F4       1.0000 0.50000  0.90960  0.75000  Biso   1.000  F
  N36      1.0000 0.50000  0.28010  0.75000  Biso   1.000  N
  C191     1.0000 0.50000  0.61970  0.75000  Biso   1.000  C
  C192     1.0000 0.50000  0.50090  0.75000  Biso   1.000  C
