data_image0
_cell_length_a       22.028
_cell_length_b       12.607
_cell_length_c       23.179
_cell_angle_alpha    90
_cell_angle_beta     103.76
_cell_angle_gamma    90

_symmetry_space_group_name_H-M    "P 1"
_symmetry_int_tables_number       1

loop_
  _symmetry_equiv_pos_as_xyz
  'x, y, z'

loop_
  _atom_site_label
  _atom_site_occupancy
  _atom_site_fract_x
  _atom_site_fract_y
  _atom_site_fract_z
  _atom_site_thermal_displace_type
  _atom_site_B_iso_or_equiv
  _atom_site_type_symbol
  O1       1.0000 0.59944  0.38252  0.24409  Biso   1.000  O
  Cd1      1.0000 0.59752  0.66775  0.27060  Biso   1.000  Cd
  C1       1.0000 0.64994  0.43110  0.25909  Biso   1.000  C
  O2       1.0000 0.65759  0.52158  0.28069  Biso   1.000  O
  O3       1.0000 0.55083  0.82607  0.27125  Biso   1.000  O
  N1       1.0000 0.81147  0.26637  0.23330  Biso   1.000  N
  C2       1.0000 0.70679  0.37280  0.25005  Biso   1.000  C
  C3       1.0000 0.70129  0.27640  0.22155  Biso   1.000  C
  C4       1.0000 0.76581  0.41530  0.27009  Biso   1.000  C
  H1       1.0000 0.66230  0.24520  0.20780  Biso   1.000  H
  C5       1.0000 0.75467  0.22660  0.21371  Biso   1.000  C
  C6       1.0000 0.81626  0.35970  0.26114  Biso   1.000  C
  H2       1.0000 0.77120  0.48050  0.28930  Biso   1.000  H
  C7       1.0000 0.55313  0.04640  0.27673  Biso   1.000  C
  H3       1.0000 0.75050  0.16200  0.19370  Biso   1.000  H
  H4       1.0000 0.85590  0.38860  0.27520  Biso   1.000  H
  H5       1.0000 0.58960  0.01110  0.29530  Biso   1.000  H
  C8       1.0000 0.55113  0.15540  0.27542  Biso   1.000  C
  H6       1.0000 0.58730  0.19250  0.29320  Biso   1.000  H
  N2       1.0000 0.52603  0.38746  0.35514  Biso   1.000  N
  C9       1.0000 0.58195  0.35530  0.38701  Biso   1.000  C
  C10      1.0000 0.48211  0.40320  0.38527  Biso   1.000  C
  H7       1.0000 0.61310  0.34250  0.36700  Biso   1.000  H
  C11      1.0000 0.59608  0.34000  0.44738  Biso   1.000  C
  C12      1.0000 0.49217  0.38920  0.44546  Biso   1.000  C
  H8       1.0000 0.44260  0.42480  0.36430  Biso   1.000  H
  H9       1.0000 0.63590  0.31810  0.46720  Biso   1.000  H
  C13      1.0000 0.55048  0.35740  0.47841  Biso   1.000  C
  H10      1.0000 0.45990  0.40090  0.46420  Biso   1.000  H
  C14      1.0000 0.56288  0.34530  0.54345  Biso   1.000  C
  C15      1.0000 0.62066  0.37180  0.58020  Biso   1.000  C
  C16      1.0000 0.51749  0.31020  0.57101  Biso   1.000  C
  H11      1.0000 0.65340  0.39320  0.56390  Biso   1.000  H
  C17      1.0000 0.62876  0.36580  0.64071  Biso   1.000  C
  C18      1.0000 0.52975  0.30560  0.63172  Biso   1.000  C
  H12      1.0000 0.47850  0.28970  0.54830  Biso   1.000  H
  N3       1.0000 0.58441  0.33470  0.66716  Biso   1.000  N
  H13      1.0000 0.66750  0.38450  0.66460  Biso   1.000  H
  H14      1.0000 0.49850  0.28100  0.64920  Biso   1.000  H
  N4       1.0000 0.62946  0.68454  0.37386  Biso   1.000  N
  C19      1.0000 0.65240  0.60330  0.40887  Biso   1.000  C
  C20      1.0000 0.62897  0.77900  0.40022  Biso   1.000  C
  H15      1.0000 0.65540  0.53770  0.39140  Biso   1.000  H
  C21      1.0000 0.67190  0.61140  0.46968  Biso   1.000  C
  C22      1.0000 0.64847  0.79260  0.46079  Biso   1.000  C
  H16      1.0000 0.61490  0.83780  0.37660  Biso   1.000  H
  H17      1.0000 0.68670  0.55160  0.49210  Biso   1.000  H
  C23      1.0000 0.66978  0.70700  0.49751  Biso   1.000  C
  H18      1.0000 0.64730  0.85970  0.47710  Biso   1.000  H
  C24      1.0000 0.68990  0.71780  0.56396  Biso   1.000  C
  H19      1.0000 0.70170  0.79000  0.57410  Biso   1.000  H
  H20      1.0000 0.72500  0.67200  0.57900  Biso   1.000  H
  H21      1.0000 0.65600  0.69830  0.58120  Biso   1.000  H
  O4       1.0000 0.09944  0.88252  0.24409  Biso   1.000  O
  Cd2      1.0000 0.09752  0.16775  0.27060  Biso   1.000  Cd
  C25      1.0000 0.14994  0.93110  0.25909  Biso   1.000  C
  O5       1.0000 0.15759  0.02158  0.28069  Biso   1.000  O
  O6       1.0000 0.05083  0.32607  0.27125  Biso   1.000  O
  N5       1.0000 0.31147  0.76637  0.23330  Biso   1.000  N
  C26      1.0000 0.20679  0.87280  0.25005  Biso   1.000  C
  C27      1.0000 0.20129  0.77640  0.22155  Biso   1.000  C
  C28      1.0000 0.26581  0.91530  0.27009  Biso   1.000  C
  H22      1.0000 0.16230  0.74520  0.20780  Biso   1.000  H
  C29      1.0000 0.25467  0.72660  0.21371  Biso   1.000  C
  C30      1.0000 0.31626  0.85970  0.26114  Biso   1.000  C
  H23      1.0000 0.27120  0.98050  0.28930  Biso   1.000  H
  C31      1.0000 0.05313  0.54640  0.27673  Biso   1.000  C
  H24      1.0000 0.25050  0.66200  0.19370  Biso   1.000  H
  H25      1.0000 0.35590  0.88860  0.27520  Biso   1.000  H
  H26      1.0000 0.08960  0.51110  0.29530  Biso   1.000  H
  C32      1.0000 0.05113  0.65540  0.27542  Biso   1.000  C
  H27      1.0000 0.08730  0.69250  0.29320  Biso   1.000  H
  N6       1.0000 0.02603  0.88746  0.35514  Biso   1.000  N
  C33      1.0000 0.08195  0.85530  0.38701  Biso   1.000  C
  C34      1.0000 0.98211  0.90320  0.38527  Biso   1.000  C
  H28      1.0000 0.11310  0.84250  0.36700  Biso   1.000  H
  C35      1.0000 0.09608  0.84000  0.44738  Biso   1.000  C
  C36      1.0000 0.99217  0.88920  0.44546  Biso   1.000  C
  H29      1.0000 0.94260  0.92480  0.36430  Biso   1.000  H
  H30      1.0000 0.13590  0.81810  0.46720  Biso   1.000  H
  C37      1.0000 0.05048  0.85740  0.47841  Biso   1.000  C
  H31      1.0000 0.95990  0.90090  0.46420  Biso   1.000  H
  C38      1.0000 0.06288  0.84530  0.54345  Biso   1.000  C
  C39      1.0000 0.12066  0.87180  0.58020  Biso   1.000  C
  C40      1.0000 0.01749  0.81020  0.57101  Biso   1.000  C
  H32      1.0000 0.15340  0.89320  0.56390  Biso   1.000  H
  C41      1.0000 0.12876  0.86580  0.64071  Biso   1.000  C
  C42      1.0000 0.02975  0.80560  0.63172  Biso   1.000  C
  H33      1.0000 0.97850  0.78970  0.54830  Biso   1.000  H
  N7       1.0000 0.08441  0.83470  0.66716  Biso   1.000  N
  H34      1.0000 0.16750  0.88450  0.66460  Biso   1.000  H
  H35      1.0000 0.99850  0.78100  0.64920  Biso   1.000  H
  N8       1.0000 0.12946  0.18454  0.37386  Biso   1.000  N
  C43      1.0000 0.15240  0.10330  0.40887  Biso   1.000  C
  C44      1.0000 0.12897  0.27900  0.40022  Biso   1.000  C
  H36      1.0000 0.15540  0.03770  0.39140  Biso   1.000  H
  C45      1.0000 0.17190  0.11140  0.46968  Biso   1.000  C
  C46      1.0000 0.14847  0.29260  0.46079  Biso   1.000  C
  H37      1.0000 0.11490  0.33780  0.37660  Biso   1.000  H
  H38      1.0000 0.18670  0.05160  0.49210  Biso   1.000  H
  C47      1.0000 0.16978  0.20700  0.49751  Biso   1.000  C
  H39      1.0000 0.14730  0.35970  0.47710  Biso   1.000  H
  C48      1.0000 0.18990  0.21780  0.56396  Biso   1.000  C
  H40      1.0000 0.20170  0.29000  0.57410  Biso   1.000  H
  H41      1.0000 0.22500  0.17200  0.57900  Biso   1.000  H
  H42      1.0000 0.15600  0.19830  0.58120  Biso   1.000  H
  O7       1.0000 0.40056  0.38252  0.25591  Biso   1.000  O
  Cd3      1.0000 0.40248  0.66775  0.22940  Biso   1.000  Cd
  C49      1.0000 0.35006  0.43110  0.24091  Biso   1.000  C
  O8       1.0000 0.34241  0.52158  0.21931  Biso   1.000  O
  O9       1.0000 0.44917  0.82607  0.22875  Biso   1.000  O
  N9       1.0000 0.18853  0.26637  0.26670  Biso   1.000  N
  C50      1.0000 0.29321  0.37280  0.24995  Biso   1.000  C
  C51      1.0000 0.29871  0.27640  0.27845  Biso   1.000  C
  C52      1.0000 0.23419  0.41530  0.22991  Biso   1.000  C
  H43      1.0000 0.33770  0.24520  0.29220  Biso   1.000  H
  C53      1.0000 0.24533  0.22660  0.28629  Biso   1.000  C
  C54      1.0000 0.18374  0.35970  0.23886  Biso   1.000  C
  H44      1.0000 0.22880  0.48050  0.21070  Biso   1.000  H
  C55      1.0000 0.44687  0.04640  0.22327  Biso   1.000  C
  H45      1.0000 0.24950  0.16200  0.30630  Biso   1.000  H
  H46      1.0000 0.14410  0.38860  0.22480  Biso   1.000  H
  H47      1.0000 0.41040  0.01110  0.20470  Biso   1.000  H
  C56      1.0000 0.44887  0.15540  0.22458  Biso   1.000  C
  H48      1.0000 0.41270  0.19250  0.20680  Biso   1.000  H
  N10      1.0000 0.47397  0.38746  0.14486  Biso   1.000  N
  C57      1.0000 0.41805  0.35530  0.11299  Biso   1.000  C
  C58      1.0000 0.51789  0.40320  0.11473  Biso   1.000  C
  H49      1.0000 0.38690  0.34250  0.13300  Biso   1.000  H
  C59      1.0000 0.40392  0.34000  0.05262  Biso   1.000  C
  C60      1.0000 0.50783  0.38920  0.05454  Biso   1.000  C
  H50      1.0000 0.55740  0.42480  0.13570  Biso   1.000  H
  H51      1.0000 0.36410  0.31810  0.03280  Biso   1.000  H
  C61      1.0000 0.44952  0.35740  0.02159  Biso   1.000  C
  H52      1.0000 0.54010  0.40090  0.03580  Biso   1.000  H
  C62      1.0000 0.43712  0.34530  0.95655  Biso   1.000  C
  C63      1.0000 0.37934  0.37180  0.91980  Biso   1.000  C
  C64      1.0000 0.48251  0.31020  0.92899  Biso   1.000  C
  H53      1.0000 0.34660  0.39320  0.93610  Biso   1.000  H
  C65      1.0000 0.37124  0.36580  0.85929  Biso   1.000  C
  C66      1.0000 0.47025  0.30560  0.86828  Biso   1.000  C
  H54      1.0000 0.52150  0.28970  0.95170  Biso   1.000  H
  N11      1.0000 0.41559  0.33470  0.83284  Biso   1.000  N
  H55      1.0000 0.33250  0.38450  0.83540  Biso   1.000  H
  H56      1.0000 0.50150  0.28100  0.85080  Biso   1.000  H
  N12      1.0000 0.37054  0.68454  0.12614  Biso   1.000  N
  C67      1.0000 0.34760  0.60330  0.09113  Biso   1.000  C
  C68      1.0000 0.37103  0.77900  0.09978  Biso   1.000  C
  H57      1.0000 0.34460  0.53770  0.10860  Biso   1.000  H
  C69      1.0000 0.32810  0.61140  0.03032  Biso   1.000  C
  C70      1.0000 0.35153  0.79260  0.03921  Biso   1.000  C
  H58      1.0000 0.38510  0.83780  0.12340  Biso   1.000  H
  H59      1.0000 0.31330  0.55160  0.00790  Biso   1.000  H
  C71      1.0000 0.33022  0.70700  0.00249  Biso   1.000  C
  H60      1.0000 0.35270  0.85970  0.02290  Biso   1.000  H
  C72      1.0000 0.31010  0.71780  0.93604  Biso   1.000  C
  H61      1.0000 0.29830  0.79000  0.92590  Biso   1.000  H
  H62      1.0000 0.27500  0.67200  0.92100  Biso   1.000  H
  H63      1.0000 0.34400  0.69830  0.91880  Biso   1.000  H
  O10      1.0000 0.90056  0.88252  0.25591  Biso   1.000  O
  Cd4      1.0000 0.90247  0.16775  0.22940  Biso   1.000  Cd
  C73      1.0000 0.85006  0.93110  0.24091  Biso   1.000  C
  O11      1.0000 0.84241  0.02158  0.21931  Biso   1.000  O
  O12      1.0000 0.94917  0.32607  0.22875  Biso   1.000  O
  N13      1.0000 0.68853  0.76637  0.26670  Biso   1.000  N
  C74      1.0000 0.79321  0.87280  0.24995  Biso   1.000  C
  C75      1.0000 0.79871  0.77640  0.27845  Biso   1.000  C
  C76      1.0000 0.73419  0.91530  0.22991  Biso   1.000  C
  H64      1.0000 0.83770  0.74520  0.29220  Biso   1.000  H
  C77      1.0000 0.74533  0.72660  0.28629  Biso   1.000  C
  C78      1.0000 0.68374  0.85970  0.23886  Biso   1.000  C
  H65      1.0000 0.72880  0.98050  0.21070  Biso   1.000  H
  C79      1.0000 0.94687  0.54640  0.22327  Biso   1.000  C
  H66      1.0000 0.74950  0.66200  0.30630  Biso   1.000  H
  H67      1.0000 0.64410  0.88860  0.22480  Biso   1.000  H
  H68      1.0000 0.91040  0.51110  0.20470  Biso   1.000  H
  C80      1.0000 0.94887  0.65540  0.22458  Biso   1.000  C
  H69      1.0000 0.91270  0.69250  0.20680  Biso   1.000  H
  N14      1.0000 0.97397  0.88746  0.14486  Biso   1.000  N
  C81      1.0000 0.91805  0.85530  0.11299  Biso   1.000  C
  C82      1.0000 0.01789  0.90320  0.11473  Biso   1.000  C
  H70      1.0000 0.88690  0.84250  0.13300  Biso   1.000  H
  C83      1.0000 0.90392  0.84000  0.05262  Biso   1.000  C
  C84      1.0000 0.00783  0.88920  0.05454  Biso   1.000  C
  H71      1.0000 0.05740  0.92480  0.13570  Biso   1.000  H
  H72      1.0000 0.86410  0.81810  0.03280  Biso   1.000  H
  C85      1.0000 0.94952  0.85740  0.02159  Biso   1.000  C
  H73      1.0000 0.04010  0.90090  0.03580  Biso   1.000  H
  C86      1.0000 0.93712  0.84530  0.95655  Biso   1.000  C
  C87      1.0000 0.87934  0.87180  0.91980  Biso   1.000  C
  C88      1.0000 0.98251  0.81020  0.92899  Biso   1.000  C
  H74      1.0000 0.84660  0.89320  0.93610  Biso   1.000  H
  C89      1.0000 0.87124  0.86580  0.85929  Biso   1.000  C
  C90      1.0000 0.97025  0.80560  0.86828  Biso   1.000  C
  H75      1.0000 0.02150  0.78970  0.95170  Biso   1.000  H
  N15      1.0000 0.91559  0.83470  0.83284  Biso   1.000  N
  H76      1.0000 0.83250  0.88450  0.83540  Biso   1.000  H
  H77      1.0000 0.00150  0.78100  0.85080  Biso   1.000  H
  N16      1.0000 0.87054  0.18454  0.12614  Biso   1.000  N
  C91      1.0000 0.84760  0.10330  0.09113  Biso   1.000  C
  C92      1.0000 0.87103  0.27900  0.09978  Biso   1.000  C
  H78      1.0000 0.84460  0.03770  0.10860  Biso   1.000  H
  C93      1.0000 0.82810  0.11140  0.03032  Biso   1.000  C
  C94      1.0000 0.85153  0.29260  0.03921  Biso   1.000  C
  H79      1.0000 0.88510  0.33780  0.12340  Biso   1.000  H
  H80      1.0000 0.81330  0.05160  0.00790  Biso   1.000  H
  C95      1.0000 0.83022  0.20700  0.00249  Biso   1.000  C
  H81      1.0000 0.85270  0.35970  0.02290  Biso   1.000  H
  C96      1.0000 0.81010  0.21780  0.93604  Biso   1.000  C
  H82      1.0000 0.79830  0.29000  0.92590  Biso   1.000  H
  H83      1.0000 0.77500  0.17200  0.92100  Biso   1.000  H
  H84      1.0000 0.84400  0.19830  0.91880  Biso   1.000  H
  O13      1.0000 0.40056  0.61748  0.75591  Biso   1.000  O
  Cd5      1.0000 0.40248  0.33225  0.72940  Biso   1.000  Cd
  C97      1.0000 0.35006  0.56890  0.74091  Biso   1.000  C
  O14      1.0000 0.34241  0.47842  0.71931  Biso   1.000  O
  O15      1.0000 0.44917  0.17393  0.72875  Biso   1.000  O
  N17      1.0000 0.18853  0.73363  0.76670  Biso   1.000  N
  C98      1.0000 0.29321  0.62720  0.74995  Biso   1.000  C
  C99      1.0000 0.29871  0.72360  0.77845  Biso   1.000  C
  C100     1.0000 0.23419  0.58470  0.72991  Biso   1.000  C
  H85      1.0000 0.33770  0.75480  0.79220  Biso   1.000  H
  C101     1.0000 0.24533  0.77340  0.78629  Biso   1.000  C
  C102     1.0000 0.18374  0.64030  0.73886  Biso   1.000  C
  H86      1.0000 0.22880  0.51950  0.71070  Biso   1.000  H
  C103     1.0000 0.44687  0.95360  0.72327  Biso   1.000  C
  H87      1.0000 0.24950  0.83800  0.80630  Biso   1.000  H
  H88      1.0000 0.14410  0.61140  0.72480  Biso   1.000  H
  H89      1.0000 0.41040  0.98890  0.70470  Biso   1.000  H
  C104     1.0000 0.44887  0.84460  0.72458  Biso   1.000  C
  H90      1.0000 0.41270  0.80750  0.70680  Biso   1.000  H
  N18      1.0000 0.47397  0.61254  0.64486  Biso   1.000  N
  C105     1.0000 0.41805  0.64470  0.61299  Biso   1.000  C
  C106     1.0000 0.51789  0.59680  0.61473  Biso   1.000  C
  H91      1.0000 0.38690  0.65750  0.63300  Biso   1.000  H
  C107     1.0000 0.40392  0.66000  0.55262  Biso   1.000  C
  C108     1.0000 0.50783  0.61080  0.55454  Biso   1.000  C
  H92      1.0000 0.55740  0.57520  0.63570  Biso   1.000  H
  H93      1.0000 0.36410  0.68190  0.53280  Biso   1.000  H
  C109     1.0000 0.44952  0.64260  0.52159  Biso   1.000  C
  H94      1.0000 0.54010  0.59910  0.53580  Biso   1.000  H
  C110     1.0000 0.43712  0.65470  0.45655  Biso   1.000  C
  C111     1.0000 0.37934  0.62820  0.41980  Biso   1.000  C
  C112     1.0000 0.48251  0.68980  0.42899  Biso   1.000  C
  H95      1.0000 0.34660  0.60680  0.43610  Biso   1.000  H
  C113     1.0000 0.37124  0.63420  0.35929  Biso   1.000  C
  C114     1.0000 0.47025  0.69440  0.36828  Biso   1.000  C
  H96      1.0000 0.52150  0.71030  0.45170  Biso   1.000  H
  N19      1.0000 0.41559  0.66530  0.33284  Biso   1.000  N
  H97      1.0000 0.33250  0.61550  0.33540  Biso   1.000  H
  H98      1.0000 0.50150  0.71900  0.35080  Biso   1.000  H
  N20      1.0000 0.37054  0.31546  0.62614  Biso   1.000  N
  C115     1.0000 0.34760  0.39670  0.59113  Biso   1.000  C
  C116     1.0000 0.37103  0.22100  0.59978  Biso   1.000  C
  H99      1.0000 0.34460  0.46230  0.60860  Biso   1.000  H
  C117     1.0000 0.32810  0.38860  0.53032  Biso   1.000  C
  C118     1.0000 0.35153  0.20740  0.53921  Biso   1.000  C
  H100     1.0000 0.38510  0.16220  0.62340  Biso   1.000  H
  H101     1.0000 0.31330  0.44840  0.50790  Biso   1.000  H
  C119     1.0000 0.33022  0.29300  0.50249  Biso   1.000  C
  H102     1.0000 0.35270  0.14030  0.52290  Biso   1.000  H
  C120     1.0000 0.31010  0.28220  0.43604  Biso   1.000  C
  H103     1.0000 0.29830  0.21000  0.42590  Biso   1.000  H
  H104     1.0000 0.27500  0.32800  0.42100  Biso   1.000  H
  H105     1.0000 0.34400  0.30170  0.41880  Biso   1.000  H
  O16      1.0000 0.90056  0.11748  0.75591  Biso   1.000  O
  Cd6      1.0000 0.90247  0.83225  0.72940  Biso   1.000  Cd
  C121     1.0000 0.85006  0.06890  0.74091  Biso   1.000  C
  O17      1.0000 0.84241  0.97842  0.71931  Biso   1.000  O
  O18      1.0000 0.94917  0.67393  0.72875  Biso   1.000  O
  N21      1.0000 0.68853  0.23363  0.76670  Biso   1.000  N
  C122     1.0000 0.79321  0.12720  0.74995  Biso   1.000  C
  C123     1.0000 0.79871  0.22360  0.77845  Biso   1.000  C
  C124     1.0000 0.73419  0.08470  0.72991  Biso   1.000  C
  H106     1.0000 0.83770  0.25480  0.79220  Biso   1.000  H
  C125     1.0000 0.74533  0.27340  0.78629  Biso   1.000  C
  C126     1.0000 0.68374  0.14030  0.73886  Biso   1.000  C
  H107     1.0000 0.72880  0.01950  0.71070  Biso   1.000  H
  C127     1.0000 0.94687  0.45360  0.72327  Biso   1.000  C
  H108     1.0000 0.74950  0.33800  0.80630  Biso   1.000  H
  H109     1.0000 0.64410  0.11140  0.72480  Biso   1.000  H
  H110     1.0000 0.91040  0.48890  0.70470  Biso   1.000  H
  C128     1.0000 0.94887  0.34460  0.72458  Biso   1.000  C
  H111     1.0000 0.91270  0.30750  0.70680  Biso   1.000  H
  N22      1.0000 0.97397  0.11254  0.64486  Biso   1.000  N
  C129     1.0000 0.91805  0.14470  0.61299  Biso   1.000  C
  C130     1.0000 0.01789  0.09680  0.61473  Biso   1.000  C
  H112     1.0000 0.88690  0.15750  0.63300  Biso   1.000  H
  C131     1.0000 0.90392  0.16000  0.55262  Biso   1.000  C
  C132     1.0000 0.00783  0.11080  0.55454  Biso   1.000  C
  H113     1.0000 0.05740  0.07520  0.63570  Biso   1.000  H
  H114     1.0000 0.86410  0.18190  0.53280  Biso   1.000  H
  C133     1.0000 0.94952  0.14260  0.52159  Biso   1.000  C
  H115     1.0000 0.04010  0.09910  0.53580  Biso   1.000  H
  C134     1.0000 0.93712  0.15470  0.45655  Biso   1.000  C
  C135     1.0000 0.87934  0.12820  0.41980  Biso   1.000  C
  C136     1.0000 0.98251  0.18980  0.42899  Biso   1.000  C
  H116     1.0000 0.84660  0.10680  0.43610  Biso   1.000  H
  C137     1.0000 0.87124  0.13420  0.35929  Biso   1.000  C
  C138     1.0000 0.97025  0.19440  0.36828  Biso   1.000  C
  H117     1.0000 0.02150  0.21030  0.45170  Biso   1.000  H
  N23      1.0000 0.91559  0.16530  0.33284  Biso   1.000  N
  H118     1.0000 0.83250  0.11550  0.33540  Biso   1.000  H
  H119     1.0000 0.00150  0.21900  0.35080  Biso   1.000  H
  N24      1.0000 0.87054  0.81546  0.62614  Biso   1.000  N
  C139     1.0000 0.84760  0.89670  0.59113  Biso   1.000  C
  C140     1.0000 0.87103  0.72100  0.59978  Biso   1.000  C
  H120     1.0000 0.84460  0.96230  0.60860  Biso   1.000  H
  C141     1.0000 0.82810  0.88860  0.53032  Biso   1.000  C
  C142     1.0000 0.85153  0.70740  0.53921  Biso   1.000  C
  H121     1.0000 0.88510  0.66220  0.62340  Biso   1.000  H
  H122     1.0000 0.81330  0.94840  0.50790  Biso   1.000  H
  C143     1.0000 0.83022  0.79300  0.50249  Biso   1.000  C
  H123     1.0000 0.85270  0.64030  0.52290  Biso   1.000  H
  C144     1.0000 0.81010  0.78220  0.43604  Biso   1.000  C
  H124     1.0000 0.79830  0.71000  0.42590  Biso   1.000  H
  H125     1.0000 0.77500  0.82800  0.42100  Biso   1.000  H
  H126     1.0000 0.84400  0.80170  0.41880  Biso   1.000  H
  O19      1.0000 0.59944  0.61748  0.74409  Biso   1.000  O
  Cd7      1.0000 0.59752  0.33225  0.77060  Biso   1.000  Cd
  C145     1.0000 0.64994  0.56890  0.75909  Biso   1.000  C
  O20      1.0000 0.65759  0.47842  0.78069  Biso   1.000  O
  O21      1.0000 0.55083  0.17393  0.77125  Biso   1.000  O
  N25      1.0000 0.81147  0.73363  0.73330  Biso   1.000  N
  C146     1.0000 0.70679  0.62720  0.75005  Biso   1.000  C
  C147     1.0000 0.70129  0.72360  0.72155  Biso   1.000  C
  C148     1.0000 0.76581  0.58470  0.77009  Biso   1.000  C
  H127     1.0000 0.66230  0.75480  0.70780  Biso   1.000  H
  C149     1.0000 0.75467  0.77340  0.71371  Biso   1.000  C
  C150     1.0000 0.81626  0.64030  0.76114  Biso   1.000  C
  H128     1.0000 0.77120  0.51950  0.78930  Biso   1.000  H
  C151     1.0000 0.55313  0.95360  0.77673  Biso   1.000  C
  H129     1.0000 0.75050  0.83800  0.69370  Biso   1.000  H
  H130     1.0000 0.85590  0.61140  0.77520  Biso   1.000  H
  H131     1.0000 0.58960  0.98890  0.79530  Biso   1.000  H
  C152     1.0000 0.55113  0.84460  0.77542  Biso   1.000  C
  H132     1.0000 0.58730  0.80750  0.79320  Biso   1.000  H
  N26      1.0000 0.52603  0.61254  0.85514  Biso   1.000  N
  C153     1.0000 0.58195  0.64470  0.88701  Biso   1.000  C
  C154     1.0000 0.48211  0.59680  0.88527  Biso   1.000  C
  H133     1.0000 0.61310  0.65750  0.86700  Biso   1.000  H
  C155     1.0000 0.59608  0.66000  0.94738  Biso   1.000  C
  C156     1.0000 0.49217  0.61080  0.94546  Biso   1.000  C
  H134     1.0000 0.44260  0.57520  0.86430  Biso   1.000  H
  H135     1.0000 0.63590  0.68190  0.96720  Biso   1.000  H
  C157     1.0000 0.55048  0.64260  0.97841  Biso   1.000  C
  H136     1.0000 0.45990  0.59910  0.96420  Biso   1.000  H
  C158     1.0000 0.56288  0.65470  0.04345  Biso   1.000  C
  C159     1.0000 0.62066  0.62820  0.08020  Biso   1.000  C
  C160     1.0000 0.51749  0.68980  0.07101  Biso   1.000  C
  H137     1.0000 0.65340  0.60680  0.06390  Biso   1.000  H
  C161     1.0000 0.62876  0.63420  0.14071  Biso   1.000  C
  C162     1.0000 0.52975  0.69440  0.13172  Biso   1.000  C
  H138     1.0000 0.47850  0.71030  0.04830  Biso   1.000  H
  N27      1.0000 0.58441  0.66530  0.16716  Biso   1.000  N
  H139     1.0000 0.66750  0.61550  0.16460  Biso   1.000  H
  H140     1.0000 0.49850  0.71900  0.14920  Biso   1.000  H
  N28      1.0000 0.62946  0.31546  0.87386  Biso   1.000  N
  C163     1.0000 0.65240  0.39670  0.90887  Biso   1.000  C
  C164     1.0000 0.62897  0.22100  0.90022  Biso   1.000  C
  H141     1.0000 0.65540  0.46230  0.89140  Biso   1.000  H
  C165     1.0000 0.67190  0.38860  0.96968  Biso   1.000  C
  C166     1.0000 0.64847  0.20740  0.96079  Biso   1.000  C
  H142     1.0000 0.61490  0.16220  0.87660  Biso   1.000  H
  H143     1.0000 0.68670  0.44840  0.99210  Biso   1.000  H
  C167     1.0000 0.66978  0.29300  0.99751  Biso   1.000  C
  H144     1.0000 0.64730  0.14030  0.97710  Biso   1.000  H
  C168     1.0000 0.68990  0.28220  0.06396  Biso   1.000  C
  H145     1.0000 0.70170  0.21000  0.07410  Biso   1.000  H
  H146     1.0000 0.72500  0.32800  0.07900  Biso   1.000  H
  H147     1.0000 0.65600  0.30170  0.08120  Biso   1.000  H
  O22      1.0000 0.09944  0.11748  0.74409  Biso   1.000  O
  Cd8      1.0000 0.09752  0.83225  0.77060  Biso   1.000  Cd
  C169     1.0000 0.14994  0.06890  0.75909  Biso   1.000  C
  O23      1.0000 0.15759  0.97842  0.78069  Biso   1.000  O
  O24      1.0000 0.05083  0.67393  0.77125  Biso   1.000  O
  N29      1.0000 0.31147  0.23363  0.73330  Biso   1.000  N
  C170     1.0000 0.20679  0.12720  0.75005  Biso   1.000  C
  C171     1.0000 0.20129  0.22360  0.72155  Biso   1.000  C
  C172     1.0000 0.26581  0.08470  0.77009  Biso   1.000  C
  H148     1.0000 0.16230  0.25480  0.70780  Biso   1.000  H
  C173     1.0000 0.25467  0.27340  0.71371  Biso   1.000  C
  C174     1.0000 0.31626  0.14030  0.76114  Biso   1.000  C
  H149     1.0000 0.27120  0.01950  0.78930  Biso   1.000  H
  C175     1.0000 0.05313  0.45360  0.77673  Biso   1.000  C
  H150     1.0000 0.25050  0.33800  0.69370  Biso   1.000  H
  H151     1.0000 0.35590  0.11140  0.77520  Biso   1.000  H
  H152     1.0000 0.08960  0.48890  0.79530  Biso   1.000  H
  C176     1.0000 0.05113  0.34460  0.77542  Biso   1.000  C
  H153     1.0000 0.08730  0.30750  0.79320  Biso   1.000  H
  N30      1.0000 0.02603  0.11254  0.85514  Biso   1.000  N
  C177     1.0000 0.08195  0.14470  0.88701  Biso   1.000  C
  C178     1.0000 0.98211  0.09680  0.88527  Biso   1.000  C
  H154     1.0000 0.11310  0.15750  0.86700  Biso   1.000  H
  C179     1.0000 0.09608  0.16000  0.94738  Biso   1.000  C
  C180     1.0000 0.99217  0.11080  0.94546  Biso   1.000  C
  H155     1.0000 0.94260  0.07520  0.86430  Biso   1.000  H
  H156     1.0000 0.13590  0.18190  0.96720  Biso   1.000  H
  C181     1.0000 0.05048  0.14260  0.97841  Biso   1.000  C
  H157     1.0000 0.95990  0.09910  0.96420  Biso   1.000  H
  C182     1.0000 0.06288  0.15470  0.04345  Biso   1.000  C
  C183     1.0000 0.12066  0.12820  0.08020  Biso   1.000  C
  C184     1.0000 0.01749  0.18980  0.07101  Biso   1.000  C
  H158     1.0000 0.15340  0.10680  0.06390  Biso   1.000  H
  C185     1.0000 0.12876  0.13420  0.14071  Biso   1.000  C
  C186     1.0000 0.02975  0.19440  0.13172  Biso   1.000  C
  H159     1.0000 0.97850  0.21030  0.04830  Biso   1.000  H
  N31      1.0000 0.08441  0.16530  0.16716  Biso   1.000  N
  H160     1.0000 0.16750  0.11550  0.16460  Biso   1.000  H
  H161     1.0000 0.99850  0.21900  0.14920  Biso   1.000  H
  N32      1.0000 0.12946  0.81546  0.87386  Biso   1.000  N
  C187     1.0000 0.15240  0.89670  0.90887  Biso   1.000  C
  C188     1.0000 0.12897  0.72100  0.90022  Biso   1.000  C
  H162     1.0000 0.15540  0.96230  0.89140  Biso   1.000  H
  C189     1.0000 0.17190  0.88860  0.96968  Biso   1.000  C
  C190     1.0000 0.14847  0.70740  0.96079  Biso   1.000  C
  H163     1.0000 0.11490  0.66220  0.87660  Biso   1.000  H
  H164     1.0000 0.18670  0.94840  0.99210  Biso   1.000  H
  C191     1.0000 0.16978  0.79300  0.99751  Biso   1.000  C
  H165     1.0000 0.14730  0.64030  0.97710  Biso   1.000  H
  C192     1.0000 0.18990  0.78220  0.06396  Biso   1.000  C
  H166     1.0000 0.20170  0.71000  0.07410  Biso   1.000  H
  H167     1.0000 0.22500  0.82800  0.07900  Biso   1.000  H
  H168     1.0000 0.15600  0.80170  0.08120  Biso   1.000  H
  Cd9      1.0000 0.50000  0.40081  0.25000  Biso   1.000  Cd
  F1       1.0000 0.50000  0.58244  0.25000  Biso   1.000  F
  N33      1.0000 0.50000  0.21100  0.25000  Biso   1.000  N
  C193     1.0000 0.50000  0.87060  0.25000  Biso   1.000  C
  C194     1.0000 0.50000  0.99010  0.25000  Biso   1.000  C
  Cd10     1.0000 0.00000  0.90081  0.25000  Biso   1.000  Cd
  F2       1.0000 0.00000  0.08244  0.25000  Biso   1.000  F
  N34      1.0000 0.00000  0.71100  0.25000  Biso   1.000  N
  C195     1.0000 0.00000  0.37060  0.25000  Biso   1.000  C
  C196     1.0000 0.00000  0.49010  0.25000  Biso   1.000  C
  Cd11     1.0000 0.50000  0.59919  0.75000  Biso   1.000  Cd
  F3       1.0000 0.50000  0.41756  0.75000  Biso   1.000  F
  N35      1.0000 0.50000  0.78900  0.75000  Biso   1.000  N
  C197     1.0000 0.50000  0.12940  0.75000  Biso   1.000  C
  C198     1.0000 0.50000  0.00990  0.75000  Biso   1.000  C
  Cd12     1.0000 0.00000  0.09919  0.75000  Biso   1.000  Cd
  F4       1.0000 0.00000  0.91756  0.75000  Biso   1.000  F
  N36      1.0000 0.00000  0.28900  0.75000  Biso   1.000  N
  C199     1.0000 0.00000  0.62940  0.75000  Biso   1.000  C
  C200     1.0000 0.00000  0.50990  0.75000  Biso   1.000  C
