data_LIHSIF_clean
_audit_creation_date              2014-07-02
_audit_creation_method            'Materials Studio'
_symmetry_space_group_name_H-M    'P1'
_symmetry_Int_Tables_number       1
_symmetry_cell_setting            triclinic
loop_
_symmetry_equiv_pos_as_xyz
  x,y,z
_cell_length_a                    13.1233
_cell_length_b                    13.1233
_cell_length_c                    13.8790
_cell_angle_alpha                 89.2144
_cell_angle_beta                  89.2144
_cell_angle_gamma                 82.7563
loop_
_atom_site_label
_atom_site_type_symbol
_atom_site_fract_x
_atom_site_fract_y
_atom_site_fract_z
_atom_site_U_iso_or_equiv
_atom_site_adp_type
_atom_site_occupancy
Cd1    Cd    0.82580   0.35136   0.67747   0.01267  Uiso   1.00
Cd2    Cd    0.75473   0.96569   0.39963   0.01267  Uiso   1.00
Cd3    Cd    0.64864   0.17420   0.82253   0.01267  Uiso   1.00
Cd4    Cd    0.03431   0.24527   0.10037   0.01267  Uiso   1.00
Cd5    Cd    0.17420   0.64864   0.32253   0.01267  Uiso   1.00
Cd6    Cd    0.24527   0.03431   0.60037   0.01267  Uiso   1.00
Cd7    Cd    0.35136   0.82580   0.17747   0.01267  Uiso   1.00
Cd8    Cd    0.96569   0.75473   0.89963   0.01267  Uiso   1.00
Cd9    Cd    0.37546   0.62454   0.75000   0.01267  Uiso   1.00
Cd10   Cd    0.62454   0.37546   0.25000   0.01267  Uiso   1.00
Cd11   Cd    0.50000  -0.00000  -0.00000   0.01267  Uiso   1.00
Cd12   Cd    0.00000   0.50000   0.50000   0.01267  Uiso   1.00
H1     H     0.62500   0.55060   0.68350   0.01267  Uiso   1.00
H2     H     0.66510   0.00390   0.62870   0.01267  Uiso   1.00
H3     H     0.84660   0.17260   0.49350   0.01267  Uiso   1.00
H4     H     0.35040   0.64980   0.99390   0.01267  Uiso   1.00
H5     H     0.49980   0.81920   0.82130   0.01267  Uiso   1.00
H6     H     0.83830   0.54570   0.85210   0.01267  Uiso   1.00
H7     H     0.01320   0.68000   0.67350   0.01267  Uiso   1.00
H8     H     0.17960   0.27800   0.49510   0.01267  Uiso   1.00
H9     H     0.01610   0.14810   0.68370   0.01267  Uiso   1.00
H10    H     0.00240   0.02200   0.40860   0.01267  Uiso   1.00
H11    H     0.44940   0.37500   0.81650   0.01267  Uiso   1.00
H12    H     0.99610   0.33490   0.87130   0.01267  Uiso   1.00
H13    H     0.82740   0.15340   0.00650   0.01267  Uiso   1.00
H14    H     0.35020   0.64960   0.50610   0.01267  Uiso   1.00
H15    H     0.18080   0.50020   0.67870   0.01267  Uiso   1.00
H16    H     0.45430   0.16170   0.64790   0.01267  Uiso   1.00
H17    H     0.32000   0.98680   0.82650   0.01267  Uiso   1.00
H18    H     0.72200   0.82040   0.00490   0.01267  Uiso   1.00
H19    H     0.85190   0.98390   0.81630   0.01267  Uiso   1.00
H20    H     0.97800   0.99760   0.09140   0.01267  Uiso   1.00
H21    H     0.37500   0.44940   0.31650   0.01267  Uiso   1.00
H22    H     0.33490   0.99610   0.37130   0.01267  Uiso   1.00
H23    H     0.15340   0.82740   0.50650   0.01267  Uiso   1.00
H24    H     0.64960   0.35020   0.00610   0.01267  Uiso   1.00
H25    H     0.50020   0.18080   0.17870   0.01267  Uiso   1.00
H26    H     0.16170   0.45430   0.14790   0.01267  Uiso   1.00
H27    H     0.98680   0.32000   0.32650   0.01267  Uiso   1.00
H28    H     0.82040   0.72200   0.50490   0.01267  Uiso   1.00
H29    H     0.98390   0.85190   0.31630   0.01267  Uiso   1.00
H30    H     0.99760   0.97800   0.59140   0.01267  Uiso   1.00
H31    H     0.55060   0.62500   0.18350   0.01267  Uiso   1.00
H32    H     0.00390   0.66510   0.12870   0.01267  Uiso   1.00
H33    H     0.17260   0.84660   0.99350   0.01267  Uiso   1.00
H34    H     0.64980   0.35040   0.49390   0.01267  Uiso   1.00
H35    H     0.81920   0.49980   0.32130   0.01267  Uiso   1.00
H36    H     0.54570   0.83830   0.35210   0.01267  Uiso   1.00
H37    H     0.68000   0.01320   0.17350   0.01267  Uiso   1.00
H38    H     0.27800   0.17960   0.99510   0.01267  Uiso   1.00
H39    H     0.14810   0.01610   0.18370   0.01267  Uiso   1.00
H40    H     0.02200   0.00240   0.90860   0.01267  Uiso   1.00
H41    H     0.83000   0.17000   0.25000   0.01267  Uiso   1.00
H42    H     0.17000   0.83000   0.75000   0.01267  Uiso   1.00
C1     C     0.60070   0.49310   0.71430   0.01267  Uiso   1.00
C2     C     0.70620   0.05660   0.61300   0.01267  Uiso   1.00
C3     C     0.80310   0.14710   0.54080   0.01267  Uiso   1.00
C4     C     0.38710   0.70270   0.96950   0.01267  Uiso   1.00
C5     C     0.46730   0.79370   0.87660   0.01267  Uiso   1.00
C6     C     0.87660   0.56180   0.79660   0.01267  Uiso   1.00
C7     C     0.97050   0.63370   0.70070   0.01267  Uiso   1.00
C8     C     0.12630   0.26510   0.53900   0.01267  Uiso   1.00
C9     C     0.03940   0.19600   0.63930   0.01267  Uiso   1.00
C10    C     0.97710   0.05610   0.35130   0.01267  Uiso   1.00
C11    C     0.50690   0.39930   0.78570   0.01267  Uiso   1.00
C12    C     0.94340   0.29380   0.88700   0.01267  Uiso   1.00
C13    C     0.85290   0.19690   0.95920   0.01267  Uiso   1.00
C14    C     0.29730   0.61290   0.53050   0.01267  Uiso   1.00
C15    C     0.20630   0.53270   0.62340   0.01267  Uiso   1.00
C16    C     0.43820   0.12340   0.70340   0.01267  Uiso   1.00
C17    C     0.36630   0.02950   0.79930   0.01267  Uiso   1.00
C18    C     0.73490   0.87370   0.96100   0.01267  Uiso   1.00
C19    C     0.80400   0.96060   0.86070   0.01267  Uiso   1.00
C20    C     0.94390   0.02290   0.14870   0.01267  Uiso   1.00
C21    C     0.39930   0.50690   0.28570   0.01267  Uiso   1.00
C22    C     0.29380   0.94340   0.38700   0.01267  Uiso   1.00
C23    C     0.19690   0.85290   0.45920   0.01267  Uiso   1.00
C24    C     0.61290   0.29730   0.03050   0.01267  Uiso   1.00
C25    C     0.53270   0.20630   0.12340   0.01267  Uiso   1.00
C26    C     0.12340   0.43820   0.20340   0.01267  Uiso   1.00
C27    C     0.02950   0.36630   0.29930   0.01267  Uiso   1.00
C28    C     0.87370   0.73490   0.46100   0.01267  Uiso   1.00
C29    C     0.96060   0.80400   0.36070   0.01267  Uiso   1.00
C30    C     0.02290   0.94390   0.64870   0.01267  Uiso   1.00
C31    C     0.49310   0.60070   0.21430   0.01267  Uiso   1.00
C32    C     0.05660   0.70620   0.11300   0.01267  Uiso   1.00
C33    C     0.14710   0.80310   0.04080   0.01267  Uiso   1.00
C34    C     0.70270   0.38710   0.46950   0.01267  Uiso   1.00
C35    C     0.79370   0.46730   0.37660   0.01267  Uiso   1.00
C36    C     0.56180   0.87660   0.29660   0.01267  Uiso   1.00
C37    C     0.63370   0.97050   0.20070   0.01267  Uiso   1.00
C38    C     0.26510   0.12630   0.03900   0.01267  Uiso   1.00
C39    C     0.19600   0.03940   0.13930   0.01267  Uiso   1.00
C40    C     0.05610   0.97710   0.85130   0.01267  Uiso   1.00
C41    C     0.88480   0.11520   0.25000   0.01267  Uiso   1.00
C42    C     0.11520   0.88480   0.75000   0.01267  Uiso   1.00
N1     N     0.65800   0.40300   0.72640   0.01267  Uiso   1.00
N2     N     0.77980   0.19300   0.62290   0.01267  Uiso   1.00
N3     N     0.71650   0.13350   0.67030   0.01267  Uiso   1.00
N4     N     0.75980   0.06040   0.52950   0.01267  Uiso   1.00
N5     N     0.41260   0.77740   0.02240   0.01267  Uiso   1.00
N6     N     0.41840   0.70860   0.87650   0.01267  Uiso   1.00
N7     N     0.46440   0.83700   0.96200   0.01267  Uiso   1.00
N8     N     0.88350   0.50710   0.71690   0.01267  Uiso   1.00
N9     N     0.93020   0.64340   0.79030   0.01267  Uiso   1.00
N10    N     0.94490   0.55390   0.65430   0.01267  Uiso   1.00
N11    N     0.04560   0.33200   0.55550   0.01267  Uiso   1.00
N12    N     0.12770   0.17750   0.58890   0.01267  Uiso   1.00
N13    N     0.98810   0.28690   0.62120   0.01267  Uiso   1.00
N14    N     0.88080   0.05260   0.32050   0.01267  Uiso   1.00
N15    N     0.03330   0.10990   0.29650   0.01267  Uiso   1.00
N16    N     0.59700   0.34200   0.77360   0.01267  Uiso   1.00
N17    N     0.80700   0.22020   0.87710   0.01267  Uiso   1.00
N18    N     0.86650   0.28350   0.82970   0.01267  Uiso   1.00
N19    N     0.93960   0.24020   0.97050   0.01267  Uiso   1.00
N20    N     0.22260   0.58740   0.47760   0.01267  Uiso   1.00
N21    N     0.29140   0.58160   0.62350   0.01267  Uiso   1.00
N22    N     0.16300   0.53560   0.53800   0.01267  Uiso   1.00
N23    N     0.49290   0.11650   0.78310   0.01267  Uiso   1.00
N24    N     0.35660   0.06980   0.70970   0.01267  Uiso   1.00
N25    N     0.44610   0.05510   0.84570   0.01267  Uiso   1.00
N26    N     0.66800   0.95440   0.94450   0.01267  Uiso   1.00
N27    N     0.82250   0.87230   0.91110   0.01267  Uiso   1.00
N28    N     0.71310   0.01190   0.87880   0.01267  Uiso   1.00
N29    N     0.94740   0.11920   0.17950   0.01267  Uiso   1.00
N30    N     0.89010   0.96670   0.20350   0.01267  Uiso   1.00
N31    N     0.34200   0.59700   0.27360   0.01267  Uiso   1.00
N32    N     0.22020   0.80700   0.37710   0.01267  Uiso   1.00
N33    N     0.28350   0.86650   0.32970   0.01267  Uiso   1.00
N34    N     0.24020   0.93960   0.47050   0.01267  Uiso   1.00
N35    N     0.58740   0.22260   0.97760   0.01267  Uiso   1.00
N36    N     0.58160   0.29140   0.12350   0.01267  Uiso   1.00
N37    N     0.53560   0.16300   0.03800   0.01267  Uiso   1.00
N38    N     0.11650   0.49290   0.28310   0.01267  Uiso   1.00
N39    N     0.06980   0.35660   0.20970   0.01267  Uiso   1.00
N40    N     0.05510   0.44610   0.34570   0.01267  Uiso   1.00
N41    N     0.95440   0.66800   0.44450   0.01267  Uiso   1.00
N42    N     0.87230   0.82250   0.41110   0.01267  Uiso   1.00
N43    N     0.01190   0.71310   0.37880   0.01267  Uiso   1.00
N44    N     0.11920   0.94740   0.67950   0.01267  Uiso   1.00
N45    N     0.96670   0.89010   0.70350   0.01267  Uiso   1.00
N46    N     0.40300   0.65800   0.22640   0.01267  Uiso   1.00
N47    N     0.19300   0.77980   0.12290   0.01267  Uiso   1.00
N48    N     0.13350   0.71650   0.17030   0.01267  Uiso   1.00
N49    N     0.06040   0.75980   0.02950   0.01267  Uiso   1.00
N50    N     0.77740   0.41260   0.52240   0.01267  Uiso   1.00
N51    N     0.70860   0.41840   0.37650   0.01267  Uiso   1.00
N52    N     0.83700   0.46440   0.46200   0.01267  Uiso   1.00
N53    N     0.50710   0.88350   0.21690   0.01267  Uiso   1.00
N54    N     0.64340   0.93020   0.29030   0.01267  Uiso   1.00
N55    N     0.55390   0.94490   0.15430   0.01267  Uiso   1.00
N56    N     0.33200   0.04560   0.05550   0.01267  Uiso   1.00
N57    N     0.17750   0.12770   0.08890   0.01267  Uiso   1.00
N58    N     0.28690   0.98810   0.12120   0.01267  Uiso   1.00
N59    N     0.05260   0.88080   0.82050   0.01267  Uiso   1.00
N60    N     0.10990   0.03330   0.79650   0.01267  Uiso   1.00
N61    N     0.50550   0.49450   0.75000   0.01267  Uiso   1.00
N62    N     0.49450   0.50550   0.25000   0.01267  Uiso   1.00
