data_LIKFOB_clean
_audit_creation_date              2014-07-02
_audit_creation_method            'Materials Studio'
_symmetry_space_group_name_H-M    'P1'
_symmetry_Int_Tables_number       1
_symmetry_cell_setting            triclinic
loop_
_symmetry_equiv_pos_as_xyz
  x,y,z
_cell_length_a                    6.9235
_cell_length_b                    7.4268
_cell_length_c                    8.2517
_cell_angle_alpha                 90.1180
_cell_angle_beta                  109.7740
_cell_angle_gamma                 93.3290
loop_
_atom_site_label
_atom_site_type_symbol
_atom_site_fract_x
_atom_site_fract_y
_atom_site_fract_z
_atom_site_U_iso_or_equiv
_atom_site_adp_type
_atom_site_occupancy
Zn1    Zn    0.50000   0.00000   0.50000   0.01267  Uiso   1.00
Zn2    Zn    0.00000   0.50000   0.50000   0.01267  Uiso   1.00
H1     H     0.57060   0.20450   0.96300   0.01267  Uiso   1.00
H2     H     0.42940   0.79550   0.03700   0.01267  Uiso   1.00
C1     C     0.54210   0.32300   0.97820   0.01267  Uiso   1.00
C2     C     0.58130   0.39180   0.14380   0.01267  Uiso   1.00
C3     C     0.54030   0.56990   0.16740   0.01267  Uiso   1.00
C4     C     0.58090   0.66200   0.33970   0.01267  Uiso   1.00
C5     C     0.64740   0.26030   0.28810   0.01267  Uiso   1.00
C6     C     0.45790   0.67700   0.02180   0.01267  Uiso   1.00
C7     C     0.41870   0.60820   0.85620   0.01267  Uiso   1.00
C8     C     0.45970   0.43010   0.83260   0.01267  Uiso   1.00
C9     C     0.41910   0.33800   0.66030   0.01267  Uiso   1.00
C10    C     0.35260   0.73970   0.71190   0.01267  Uiso   1.00
O1     O     0.51052   0.14152   0.28891   0.01267  Uiso   1.00
O2     O     0.82763   0.27024   0.39431   0.01267  Uiso   1.00
O3     O     0.44762   0.76601   0.35007   0.01267  Uiso   1.00
O4     O     0.74538   0.63864   0.46217   0.01267  Uiso   1.00
O5     O     0.48948   0.85848   0.71109   0.01267  Uiso   1.00
O6     O     0.17237   0.72976   0.60569   0.01267  Uiso   1.00
O7     O     0.55238   0.23399   0.64993   0.01267  Uiso   1.00
O8     O     0.25462   0.36136   0.53783   0.01267  Uiso   1.00
