data_image0
_cell_length_a       21.146
_cell_length_b       21.146
_cell_length_c       21.146
_cell_angle_alpha    90
_cell_angle_beta     90
_cell_angle_gamma    90

_symmetry_space_group_name_H-M    "P 1"
_symmetry_int_tables_number       1

loop_
  _symmetry_equiv_pos_as_xyz
  'x, y, z'

loop_
  _atom_site_label
  _atom_site_occupancy
  _atom_site_fract_x
  _atom_site_fract_y
  _atom_site_fract_z
  _atom_site_thermal_displace_type
  _atom_site_B_iso_or_equiv
  _atom_site_type_symbol
  N1       1.0000 0.74270  0.60950  0.78860  Biso   1.000  N
  C1       1.0000 0.75660  0.56610  0.82850  Biso   1.000  C
  H1       1.0000 0.73300  0.55580  0.86410  Biso   1.000  H
  N2       1.0000 0.24270  0.10950  0.28860  Biso   1.000  N
  C2       1.0000 0.25660  0.06610  0.32850  Biso   1.000  C
  H2       1.0000 0.23300  0.05580  0.36410  Biso   1.000  H
  N3       1.0000 0.25730  0.39050  0.78860  Biso   1.000  N
  C3       1.0000 0.24340  0.43390  0.82850  Biso   1.000  C
  H3       1.0000 0.26700  0.44420  0.86410  Biso   1.000  H
  N4       1.0000 0.75730  0.89050  0.28860  Biso   1.000  N
  C4       1.0000 0.74340  0.93390  0.32850  Biso   1.000  C
  H4       1.0000 0.76700  0.94420  0.36410  Biso   1.000  H
  N5       1.0000 0.25730  0.60950  0.21140  Biso   1.000  N
  C5       1.0000 0.24340  0.56610  0.17150  Biso   1.000  C
  H5       1.0000 0.26700  0.55580  0.13590  Biso   1.000  H
  N6       1.0000 0.75730  0.10950  0.71140  Biso   1.000  N
  C6       1.0000 0.74340  0.06610  0.67150  Biso   1.000  C
  H6       1.0000 0.76700  0.05580  0.63590  Biso   1.000  H
  N7       1.0000 0.74270  0.39050  0.21140  Biso   1.000  N
  C7       1.0000 0.75660  0.43390  0.17150  Biso   1.000  C
  H7       1.0000 0.73300  0.44420  0.13590  Biso   1.000  H
  N8       1.0000 0.24270  0.89050  0.71140  Biso   1.000  N
  C8       1.0000 0.25660  0.93390  0.67150  Biso   1.000  C
  H8       1.0000 0.23300  0.94420  0.63590  Biso   1.000  H
  N9       1.0000 0.78860  0.74270  0.60950  Biso   1.000  N
  C9       1.0000 0.82850  0.75660  0.56610  Biso   1.000  C
  H9       1.0000 0.86410  0.73300  0.55580  Biso   1.000  H
  N10      1.0000 0.28860  0.24270  0.10950  Biso   1.000  N
  C10      1.0000 0.32850  0.25660  0.06610  Biso   1.000  C
  H10      1.0000 0.36410  0.23300  0.05580  Biso   1.000  H
  N11      1.0000 0.78860  0.25730  0.39050  Biso   1.000  N
  C11      1.0000 0.82850  0.24340  0.43390  Biso   1.000  C
  H11      1.0000 0.86410  0.26700  0.44420  Biso   1.000  H
  N12      1.0000 0.28860  0.75730  0.89050  Biso   1.000  N
  C12      1.0000 0.32850  0.74340  0.93390  Biso   1.000  C
  H12      1.0000 0.36410  0.76700  0.94420  Biso   1.000  H
  N13      1.0000 0.21140  0.25730  0.60950  Biso   1.000  N
  C13      1.0000 0.17150  0.24340  0.56610  Biso   1.000  C
  H13      1.0000 0.13590  0.26700  0.55580  Biso   1.000  H
  N14      1.0000 0.71140  0.75730  0.10950  Biso   1.000  N
  C14      1.0000 0.67150  0.74340  0.06610  Biso   1.000  C
  H14      1.0000 0.63590  0.76700  0.05580  Biso   1.000  H
  N15      1.0000 0.21140  0.74270  0.39050  Biso   1.000  N
  C15      1.0000 0.17150  0.75660  0.43390  Biso   1.000  C
  H15      1.0000 0.13590  0.73300  0.44420  Biso   1.000  H
  N16      1.0000 0.71140  0.24270  0.89050  Biso   1.000  N
  C16      1.0000 0.67150  0.25660  0.93390  Biso   1.000  C
  H16      1.0000 0.63590  0.23300  0.94420  Biso   1.000  H
  N17      1.0000 0.60950  0.78860  0.74270  Biso   1.000  N
  C17      1.0000 0.56610  0.82850  0.75660  Biso   1.000  C
  H17      1.0000 0.55580  0.86410  0.73300  Biso   1.000  H
  N18      1.0000 0.10950  0.28860  0.24270  Biso   1.000  N
  C18      1.0000 0.06610  0.32850  0.25660  Biso   1.000  C
  H18      1.0000 0.05580  0.36410  0.23300  Biso   1.000  H
  N19      1.0000 0.39050  0.78860  0.25730  Biso   1.000  N
  C19      1.0000 0.43390  0.82850  0.24340  Biso   1.000  C
  H19      1.0000 0.44420  0.86410  0.26700  Biso   1.000  H
  N20      1.0000 0.89050  0.28860  0.75730  Biso   1.000  N
  C20      1.0000 0.93390  0.32850  0.74340  Biso   1.000  C
  H20      1.0000 0.94420  0.36410  0.76700  Biso   1.000  H
  N21      1.0000 0.60950  0.21140  0.25730  Biso   1.000  N
  C21      1.0000 0.56610  0.17150  0.24340  Biso   1.000  C
  H21      1.0000 0.55580  0.13590  0.26700  Biso   1.000  H
  N22      1.0000 0.10950  0.71140  0.75730  Biso   1.000  N
  C22      1.0000 0.06610  0.67150  0.74340  Biso   1.000  C
  H22      1.0000 0.05580  0.63590  0.76700  Biso   1.000  H
  N23      1.0000 0.39050  0.21140  0.74270  Biso   1.000  N
  C23      1.0000 0.43390  0.17150  0.75660  Biso   1.000  C
  H23      1.0000 0.44420  0.13590  0.73300  Biso   1.000  H
  N24      1.0000 0.89050  0.71140  0.24270  Biso   1.000  N
  C24      1.0000 0.93390  0.67150  0.25660  Biso   1.000  C
  H24      1.0000 0.94420  0.63590  0.23300  Biso   1.000  H
  N25      1.0000 0.60950  0.74270  0.78860  Biso   1.000  N
  C25      1.0000 0.56610  0.75660  0.82850  Biso   1.000  C
  H25      1.0000 0.55580  0.73300  0.86410  Biso   1.000  H
  N26      1.0000 0.10950  0.24270  0.28860  Biso   1.000  N
  C26      1.0000 0.06610  0.25660  0.32850  Biso   1.000  C
  H26      1.0000 0.05580  0.23300  0.36410  Biso   1.000  H
  N27      1.0000 0.39050  0.25730  0.78860  Biso   1.000  N
  C27      1.0000 0.43390  0.24340  0.82850  Biso   1.000  C
  H27      1.0000 0.44420  0.26700  0.86410  Biso   1.000  H
  N28      1.0000 0.89050  0.75730  0.28860  Biso   1.000  N
  C28      1.0000 0.93390  0.74340  0.32850  Biso   1.000  C
  H28      1.0000 0.94420  0.76700  0.36410  Biso   1.000  H
  N29      1.0000 0.60950  0.25730  0.21140  Biso   1.000  N
  C29      1.0000 0.56610  0.24340  0.17150  Biso   1.000  C
  H29      1.0000 0.55580  0.26700  0.13590  Biso   1.000  H
  N30      1.0000 0.10950  0.75730  0.71140  Biso   1.000  N
  C30      1.0000 0.06610  0.74340  0.67150  Biso   1.000  C
  H30      1.0000 0.05580  0.76700  0.63590  Biso   1.000  H
  N31      1.0000 0.39050  0.74270  0.21140  Biso   1.000  N
  C31      1.0000 0.43390  0.75660  0.17150  Biso   1.000  C
  H31      1.0000 0.44420  0.73300  0.13590  Biso   1.000  H
  N32      1.0000 0.89050  0.24270  0.71140  Biso   1.000  N
  C32      1.0000 0.93390  0.25660  0.67150  Biso   1.000  C
  H32      1.0000 0.94420  0.23300  0.63590  Biso   1.000  H
  N33      1.0000 0.74270  0.78860  0.60950  Biso   1.000  N
  C33      1.0000 0.75660  0.82850  0.56610  Biso   1.000  C
  H33      1.0000 0.73300  0.86410  0.55580  Biso   1.000  H
  N34      1.0000 0.24270  0.28860  0.10950  Biso   1.000  N
  C34      1.0000 0.25660  0.32850  0.06610  Biso   1.000  C
  H34      1.0000 0.23300  0.36410  0.05580  Biso   1.000  H
  N35      1.0000 0.25730  0.78860  0.39050  Biso   1.000  N
  C35      1.0000 0.24340  0.82850  0.43390  Biso   1.000  C
  H35      1.0000 0.26700  0.86410  0.44420  Biso   1.000  H
  N36      1.0000 0.75730  0.28860  0.89050  Biso   1.000  N
  C36      1.0000 0.74340  0.32850  0.93390  Biso   1.000  C
  H36      1.0000 0.76700  0.36410  0.94420  Biso   1.000  H
  N37      1.0000 0.25730  0.21140  0.60950  Biso   1.000  N
  C37      1.0000 0.24340  0.17150  0.56610  Biso   1.000  C
  H37      1.0000 0.26700  0.13590  0.55580  Biso   1.000  H
  N38      1.0000 0.75730  0.71140  0.10950  Biso   1.000  N
  C38      1.0000 0.74340  0.67150  0.06610  Biso   1.000  C
  H38      1.0000 0.76700  0.63590  0.05580  Biso   1.000  H
  N39      1.0000 0.74270  0.21140  0.39050  Biso   1.000  N
  C39      1.0000 0.75660  0.17150  0.43390  Biso   1.000  C
  H39      1.0000 0.73300  0.13590  0.44420  Biso   1.000  H
  N40      1.0000 0.24270  0.71140  0.89050  Biso   1.000  N
  C40      1.0000 0.25660  0.67150  0.93390  Biso   1.000  C
  H40      1.0000 0.23300  0.63590  0.94420  Biso   1.000  H
  N41      1.0000 0.78860  0.60950  0.74270  Biso   1.000  N
  C41      1.0000 0.82850  0.56610  0.75660  Biso   1.000  C
  H41      1.0000 0.86410  0.55580  0.73300  Biso   1.000  H
  N42      1.0000 0.28860  0.10950  0.24270  Biso   1.000  N
  C42      1.0000 0.32850  0.06610  0.25660  Biso   1.000  C
  H42      1.0000 0.36410  0.05580  0.23300  Biso   1.000  H
  N43      1.0000 0.78860  0.39050  0.25730  Biso   1.000  N
  C43      1.0000 0.82850  0.43390  0.24340  Biso   1.000  C
  H43      1.0000 0.86410  0.44420  0.26700  Biso   1.000  H
  N44      1.0000 0.28860  0.89050  0.75730  Biso   1.000  N
  C44      1.0000 0.32850  0.93390  0.74340  Biso   1.000  C
  H44      1.0000 0.36410  0.94420  0.76700  Biso   1.000  H
  N45      1.0000 0.21140  0.60950  0.25730  Biso   1.000  N
  C45      1.0000 0.17150  0.56610  0.24340  Biso   1.000  C
  H45      1.0000 0.13590  0.55580  0.26700  Biso   1.000  H
  N46      1.0000 0.71140  0.10950  0.75730  Biso   1.000  N
  C46      1.0000 0.67150  0.06610  0.74340  Biso   1.000  C
  H46      1.0000 0.63590  0.05580  0.76700  Biso   1.000  H
  N47      1.0000 0.21140  0.39050  0.74270  Biso   1.000  N
  C47      1.0000 0.17150  0.43390  0.75660  Biso   1.000  C
  H47      1.0000 0.13590  0.44420  0.73300  Biso   1.000  H
  N48      1.0000 0.71140  0.89050  0.24270  Biso   1.000  N
  C48      1.0000 0.67150  0.93390  0.25660  Biso   1.000  C
  H48      1.0000 0.63590  0.94420  0.23300  Biso   1.000  H
  Cu1      1.0000 0.67417  0.67417  0.78738  Biso   1.000  Cu
  Cu2      1.0000 0.17417  0.17417  0.28738  Biso   1.000  Cu
  Cu3      1.0000 0.32583  0.32583  0.78738  Biso   1.000  Cu
  Cu4      1.0000 0.82583  0.82583  0.28738  Biso   1.000  Cu
  Cu5      1.0000 0.32583  0.67417  0.21262  Biso   1.000  Cu
  Cu6      1.0000 0.82583  0.17417  0.71262  Biso   1.000  Cu
  Cu7      1.0000 0.67417  0.32583  0.21262  Biso   1.000  Cu
  Cu8      1.0000 0.17417  0.82583  0.71262  Biso   1.000  Cu
  Cu9      1.0000 0.78738  0.67417  0.67417  Biso   1.000  Cu
  Cu10     1.0000 0.28738  0.17417  0.17417  Biso   1.000  Cu
  Cu11     1.0000 0.78738  0.32583  0.32583  Biso   1.000  Cu
  Cu12     1.0000 0.28738  0.82583  0.82583  Biso   1.000  Cu
  Cu13     1.0000 0.21262  0.32583  0.67417  Biso   1.000  Cu
  Cu14     1.0000 0.71262  0.82583  0.17417  Biso   1.000  Cu
  Cu15     1.0000 0.21262  0.67417  0.32583  Biso   1.000  Cu
  Cu16     1.0000 0.71262  0.17417  0.82583  Biso   1.000  Cu
  Cu17     1.0000 0.67417  0.78738  0.67417  Biso   1.000  Cu
  Cu18     1.0000 0.17417  0.28738  0.17417  Biso   1.000  Cu
  Cu19     1.0000 0.32583  0.78738  0.32583  Biso   1.000  Cu
  Cu20     1.0000 0.82583  0.28738  0.82583  Biso   1.000  Cu
  Cu21     1.0000 0.67417  0.21262  0.32583  Biso   1.000  Cu
  Cu22     1.0000 0.17417  0.71262  0.82583  Biso   1.000  Cu
  Cu23     1.0000 0.32583  0.21262  0.67417  Biso   1.000  Cu
  Cu24     1.0000 0.82583  0.71262  0.17417  Biso   1.000  Cu
  O1       1.0000 0.70020  0.70020  0.70020  Biso   1.000  O
  O2       1.0000 0.20020  0.20020  0.20020  Biso   1.000  O
  O3       1.0000 0.29980  0.29980  0.70020  Biso   1.000  O
  O4       1.0000 0.79980  0.79980  0.20020  Biso   1.000  O
  O5       1.0000 0.29980  0.70020  0.29980  Biso   1.000  O
  O6       1.0000 0.79980  0.20020  0.79980  Biso   1.000  O
  O7       1.0000 0.70020  0.29980  0.29980  Biso   1.000  O
  O8       1.0000 0.20020  0.79980  0.79980  Biso   1.000  O
  N49      1.0000 0.85250  0.37440  0.85250  Biso   1.000  N
  N50      1.0000 0.81090  0.53740  0.81090  Biso   1.000  N
  C49      1.0000 0.82550  0.42480  0.82550  Biso   1.000  C
  H49      1.0000 0.79460  0.41900  0.79460  Biso   1.000  H
  C50      1.0000 0.89670  0.38480  0.89670  Biso   1.000  C
  H50      1.0000 0.91580  0.35020  0.91580  Biso   1.000  H
  C51      1.0000 0.91460  0.44260  0.91460  Biso   1.000  C
  H51      1.0000 0.94550  0.44770  0.94550  Biso   1.000  H
  C52      1.0000 0.88620  0.49580  0.88620  Biso   1.000  C
  H52      1.0000 0.89760  0.53670  0.89760  Biso   1.000  H
  C53      1.0000 0.84250  0.48490  0.84250  Biso   1.000  C
  N51      1.0000 0.35250  0.87440  0.35250  Biso   1.000  N
  N52      1.0000 0.31090  0.03740  0.31090  Biso   1.000  N
  C54      1.0000 0.32550  0.92480  0.32550  Biso   1.000  C
  H53      1.0000 0.29460  0.91900  0.29460  Biso   1.000  H
  C55      1.0000 0.39670  0.88480  0.39670  Biso   1.000  C
  H54      1.0000 0.41580  0.85020  0.41580  Biso   1.000  H
  C56      1.0000 0.41460  0.94260  0.41460  Biso   1.000  C
  H55      1.0000 0.44550  0.94770  0.44550  Biso   1.000  H
  C57      1.0000 0.38620  0.99580  0.38620  Biso   1.000  C
  H56      1.0000 0.39760  0.03670  0.39760  Biso   1.000  H
  C58      1.0000 0.34250  0.98490  0.34250  Biso   1.000  C
  N53      1.0000 0.14750  0.62560  0.85250  Biso   1.000  N
  N54      1.0000 0.18910  0.46260  0.81090  Biso   1.000  N
  C59      1.0000 0.17450  0.57520  0.82550  Biso   1.000  C
  H57      1.0000 0.20540  0.58100  0.79460  Biso   1.000  H
  C60      1.0000 0.10330  0.61520  0.89670  Biso   1.000  C
  H58      1.0000 0.08420  0.64980  0.91580  Biso   1.000  H
  C61      1.0000 0.08540  0.55740  0.91460  Biso   1.000  C
  H59      1.0000 0.05450  0.55230  0.94550  Biso   1.000  H
  C62      1.0000 0.11380  0.50420  0.88620  Biso   1.000  C
  H60      1.0000 0.10240  0.46330  0.89760  Biso   1.000  H
  C63      1.0000 0.15750  0.51510  0.84250  Biso   1.000  C
  N55      1.0000 0.64750  0.12560  0.35250  Biso   1.000  N
  N56      1.0000 0.68910  0.96260  0.31090  Biso   1.000  N
  C64      1.0000 0.67450  0.07520  0.32550  Biso   1.000  C
  H61      1.0000 0.70540  0.08100  0.29460  Biso   1.000  H
  C65      1.0000 0.60330  0.11520  0.39670  Biso   1.000  C
  H62      1.0000 0.58420  0.14980  0.41580  Biso   1.000  H
  C66      1.0000 0.58540  0.05740  0.41460  Biso   1.000  C
  H63      1.0000 0.55450  0.05230  0.44550  Biso   1.000  H
  C67      1.0000 0.61380  0.00420  0.38620  Biso   1.000  C
  H64      1.0000 0.60240  0.96330  0.39760  Biso   1.000  H
  C68      1.0000 0.65750  0.01510  0.34250  Biso   1.000  C
  N57      1.0000 0.14750  0.37440  0.14750  Biso   1.000  N
  N58      1.0000 0.18910  0.53740  0.18910  Biso   1.000  N
  C69      1.0000 0.17450  0.42480  0.17450  Biso   1.000  C
  H65      1.0000 0.20540  0.41900  0.20540  Biso   1.000  H
  C70      1.0000 0.10330  0.38480  0.10330  Biso   1.000  C
  H66      1.0000 0.08420  0.35020  0.08420  Biso   1.000  H
  C71      1.0000 0.08540  0.44260  0.08540  Biso   1.000  C
  H67      1.0000 0.05450  0.44770  0.05450  Biso   1.000  H
  C72      1.0000 0.11380  0.49580  0.11380  Biso   1.000  C
  H68      1.0000 0.10240  0.53670  0.10240  Biso   1.000  H
  C73      1.0000 0.15750  0.48490  0.15750  Biso   1.000  C
  N59      1.0000 0.64750  0.87440  0.64750  Biso   1.000  N
  N60      1.0000 0.68910  0.03740  0.68910  Biso   1.000  N
  C74      1.0000 0.67450  0.92480  0.67450  Biso   1.000  C
  H69      1.0000 0.70540  0.91900  0.70540  Biso   1.000  H
  C75      1.0000 0.60330  0.88480  0.60330  Biso   1.000  C
  H70      1.0000 0.58420  0.85020  0.58420  Biso   1.000  H
  C76      1.0000 0.58540  0.94260  0.58540  Biso   1.000  C
  H71      1.0000 0.55450  0.94770  0.55450  Biso   1.000  H
  C77      1.0000 0.61380  0.99580  0.61380  Biso   1.000  C
  H72      1.0000 0.60240  0.03670  0.60240  Biso   1.000  H
  C78      1.0000 0.65750  0.98490  0.65750  Biso   1.000  C
  N61      1.0000 0.85250  0.62560  0.14750  Biso   1.000  N
  N62      1.0000 0.81090  0.46260  0.18910  Biso   1.000  N
  C79      1.0000 0.82550  0.57520  0.17450  Biso   1.000  C
  H73      1.0000 0.79460  0.58100  0.20540  Biso   1.000  H
  C80      1.0000 0.89670  0.61520  0.10330  Biso   1.000  C
  H74      1.0000 0.91580  0.64980  0.08420  Biso   1.000  H
  C81      1.0000 0.91460  0.55740  0.08540  Biso   1.000  C
  H75      1.0000 0.94550  0.55230  0.05450  Biso   1.000  H
  C82      1.0000 0.88620  0.50420  0.11380  Biso   1.000  C
  H76      1.0000 0.89760  0.46330  0.10240  Biso   1.000  H
  C83      1.0000 0.84250  0.51510  0.15750  Biso   1.000  C
  N63      1.0000 0.35250  0.12560  0.64750  Biso   1.000  N
  N64      1.0000 0.31090  0.96260  0.68910  Biso   1.000  N
  C84      1.0000 0.32550  0.07520  0.67450  Biso   1.000  C
  H77      1.0000 0.29460  0.08100  0.70540  Biso   1.000  H
  C85      1.0000 0.39670  0.11520  0.60330  Biso   1.000  C
  H78      1.0000 0.41580  0.14980  0.58420  Biso   1.000  H
  C86      1.0000 0.41460  0.05740  0.58540  Biso   1.000  C
  H79      1.0000 0.44550  0.05230  0.55450  Biso   1.000  H
  C87      1.0000 0.38620  0.00420  0.61380  Biso   1.000  C
  H80      1.0000 0.39760  0.96330  0.60240  Biso   1.000  H
  C88      1.0000 0.34250  0.01510  0.65750  Biso   1.000  C
  N65      1.0000 0.85250  0.85250  0.37440  Biso   1.000  N
  N66      1.0000 0.81090  0.81090  0.53740  Biso   1.000  N
  C89      1.0000 0.82550  0.82550  0.42480  Biso   1.000  C
  H81      1.0000 0.79460  0.79460  0.41900  Biso   1.000  H
  C90      1.0000 0.89670  0.89670  0.38480  Biso   1.000  C
  H82      1.0000 0.91580  0.91580  0.35020  Biso   1.000  H
  C91      1.0000 0.91460  0.91460  0.44260  Biso   1.000  C
  H83      1.0000 0.94550  0.94550  0.44770  Biso   1.000  H
  C92      1.0000 0.88620  0.88620  0.49580  Biso   1.000  C
  H84      1.0000 0.89760  0.89760  0.53670  Biso   1.000  H
  C93      1.0000 0.84250  0.84250  0.48490  Biso   1.000  C
  N67      1.0000 0.35250  0.35250  0.87440  Biso   1.000  N
  N68      1.0000 0.31090  0.31090  0.03740  Biso   1.000  N
  C94      1.0000 0.32550  0.32550  0.92480  Biso   1.000  C
  H85      1.0000 0.29460  0.29460  0.91900  Biso   1.000  H
  C95      1.0000 0.39670  0.39670  0.88480  Biso   1.000  C
  H86      1.0000 0.41580  0.41580  0.85020  Biso   1.000  H
  C96      1.0000 0.41460  0.41460  0.94260  Biso   1.000  C
  H87      1.0000 0.44550  0.44550  0.94770  Biso   1.000  H
  C97      1.0000 0.38620  0.38620  0.99580  Biso   1.000  C
  H88      1.0000 0.39760  0.39760  0.03670  Biso   1.000  H
  C98      1.0000 0.34250  0.34250  0.98490  Biso   1.000  C
  N69      1.0000 0.85250  0.14750  0.62560  Biso   1.000  N
  N70      1.0000 0.81090  0.18910  0.46260  Biso   1.000  N
  C99      1.0000 0.82550  0.17450  0.57520  Biso   1.000  C
  H89      1.0000 0.79460  0.20540  0.58100  Biso   1.000  H
  C100     1.0000 0.89670  0.10330  0.61520  Biso   1.000  C
  H90      1.0000 0.91580  0.08420  0.64980  Biso   1.000  H
  C101     1.0000 0.91460  0.08540  0.55740  Biso   1.000  C
  H91      1.0000 0.94550  0.05450  0.55230  Biso   1.000  H
  C102     1.0000 0.88620  0.11380  0.50420  Biso   1.000  C
  H92      1.0000 0.89760  0.10240  0.46330  Biso   1.000  H
  C103     1.0000 0.84250  0.15750  0.51510  Biso   1.000  C
  N71      1.0000 0.35250  0.64750  0.12560  Biso   1.000  N
  N72      1.0000 0.31090  0.68910  0.96260  Biso   1.000  N
  C104     1.0000 0.32550  0.67450  0.07520  Biso   1.000  C
  H93      1.0000 0.29460  0.70540  0.08100  Biso   1.000  H
  C105     1.0000 0.39670  0.60330  0.11520  Biso   1.000  C
  H94      1.0000 0.41580  0.58420  0.14980  Biso   1.000  H
  C106     1.0000 0.41460  0.58540  0.05740  Biso   1.000  C
  H95      1.0000 0.44550  0.55450  0.05230  Biso   1.000  H
  C107     1.0000 0.38620  0.61380  0.00420  Biso   1.000  C
  H96      1.0000 0.39760  0.60240  0.96330  Biso   1.000  H
  C108     1.0000 0.34250  0.65750  0.01510  Biso   1.000  C
  N73      1.0000 0.14750  0.14750  0.37440  Biso   1.000  N
  N74      1.0000 0.18910  0.18910  0.53740  Biso   1.000  N
  C109     1.0000 0.17450  0.17450  0.42480  Biso   1.000  C
  H97      1.0000 0.20540  0.20540  0.41900  Biso   1.000  H
  C110     1.0000 0.10330  0.10330  0.38480  Biso   1.000  C
  H98      1.0000 0.08420  0.08420  0.35020  Biso   1.000  H
  C111     1.0000 0.08540  0.08540  0.44260  Biso   1.000  C
  H99      1.0000 0.05450  0.05450  0.44770  Biso   1.000  H
  C112     1.0000 0.11380  0.11380  0.49580  Biso   1.000  C
  H100     1.0000 0.10240  0.10240  0.53670  Biso   1.000  H
  C113     1.0000 0.15750  0.15750  0.48490  Biso   1.000  C
  N75      1.0000 0.64750  0.64750  0.87440  Biso   1.000  N
  N76      1.0000 0.68910  0.68910  0.03740  Biso   1.000  N
  C114     1.0000 0.67450  0.67450  0.92480  Biso   1.000  C
  H101     1.0000 0.70540  0.70540  0.91900  Biso   1.000  H
  C115     1.0000 0.60330  0.60330  0.88480  Biso   1.000  C
  H102     1.0000 0.58420  0.58420  0.85020  Biso   1.000  H
  C116     1.0000 0.58540  0.58540  0.94260  Biso   1.000  C
  H103     1.0000 0.55450  0.55450  0.94770  Biso   1.000  H
  C117     1.0000 0.61380  0.61380  0.99580  Biso   1.000  C
  H104     1.0000 0.60240  0.60240  0.03670  Biso   1.000  H
  C118     1.0000 0.65750  0.65750  0.98490  Biso   1.000  C
  N77      1.0000 0.14750  0.85250  0.62560  Biso   1.000  N
  N78      1.0000 0.18910  0.81090  0.46260  Biso   1.000  N
  C119     1.0000 0.17450  0.82550  0.57520  Biso   1.000  C
  H105     1.0000 0.20540  0.79460  0.58100  Biso   1.000  H
  C120     1.0000 0.10330  0.89670  0.61520  Biso   1.000  C
  H106     1.0000 0.08420  0.91580  0.64980  Biso   1.000  H
  C121     1.0000 0.08540  0.91460  0.55740  Biso   1.000  C
  H107     1.0000 0.05450  0.94550  0.55230  Biso   1.000  H
  C122     1.0000 0.11380  0.88620  0.50420  Biso   1.000  C
  H108     1.0000 0.10240  0.89760  0.46330  Biso   1.000  H
  C123     1.0000 0.15750  0.84250  0.51510  Biso   1.000  C
  N79      1.0000 0.64750  0.35250  0.12560  Biso   1.000  N
  N80      1.0000 0.68910  0.31090  0.96260  Biso   1.000  N
  C124     1.0000 0.67450  0.32550  0.07520  Biso   1.000  C
  H109     1.0000 0.70540  0.29460  0.08100  Biso   1.000  H
  C125     1.0000 0.60330  0.39670  0.11520  Biso   1.000  C
  H110     1.0000 0.58420  0.41580  0.14980  Biso   1.000  H
  C126     1.0000 0.58540  0.41460  0.05740  Biso   1.000  C
  H111     1.0000 0.55450  0.44550  0.05230  Biso   1.000  H
  C127     1.0000 0.61380  0.38620  0.00420  Biso   1.000  C
  H112     1.0000 0.60240  0.39760  0.96330  Biso   1.000  H
  C128     1.0000 0.65750  0.34250  0.01510  Biso   1.000  C
  N81      1.0000 0.37440  0.85250  0.85250  Biso   1.000  N
  N82      1.0000 0.53740  0.81090  0.81090  Biso   1.000  N
  C129     1.0000 0.42480  0.82550  0.82550  Biso   1.000  C
  H113     1.0000 0.41900  0.79460  0.79460  Biso   1.000  H
  C130     1.0000 0.38480  0.89670  0.89670  Biso   1.000  C
  H114     1.0000 0.35020  0.91580  0.91580  Biso   1.000  H
  C131     1.0000 0.44260  0.91460  0.91460  Biso   1.000  C
  H115     1.0000 0.44770  0.94550  0.94550  Biso   1.000  H
  C132     1.0000 0.49580  0.88620  0.88620  Biso   1.000  C
  H116     1.0000 0.53670  0.89760  0.89760  Biso   1.000  H
  C133     1.0000 0.48490  0.84250  0.84250  Biso   1.000  C
  N83      1.0000 0.87440  0.35250  0.35250  Biso   1.000  N
  N84      1.0000 0.03740  0.31090  0.31090  Biso   1.000  N
  C134     1.0000 0.92480  0.32550  0.32550  Biso   1.000  C
  H117     1.0000 0.91900  0.29460  0.29460  Biso   1.000  H
  C135     1.0000 0.88480  0.39670  0.39670  Biso   1.000  C
  H118     1.0000 0.85020  0.41580  0.41580  Biso   1.000  H
  C136     1.0000 0.94260  0.41460  0.41460  Biso   1.000  C
  H119     1.0000 0.94770  0.44550  0.44550  Biso   1.000  H
  C137     1.0000 0.99580  0.38620  0.38620  Biso   1.000  C
  H120     1.0000 0.03670  0.39760  0.39760  Biso   1.000  H
  C138     1.0000 0.98490  0.34250  0.34250  Biso   1.000  C
  N85      1.0000 0.62560  0.85250  0.14750  Biso   1.000  N
  N86      1.0000 0.46260  0.81090  0.18910  Biso   1.000  N
  C139     1.0000 0.57520  0.82550  0.17450  Biso   1.000  C
  H121     1.0000 0.58100  0.79460  0.20540  Biso   1.000  H
  C140     1.0000 0.61520  0.89670  0.10330  Biso   1.000  C
  H122     1.0000 0.64980  0.91580  0.08420  Biso   1.000  H
  C141     1.0000 0.55740  0.91460  0.08540  Biso   1.000  C
  H123     1.0000 0.55230  0.94550  0.05450  Biso   1.000  H
  C142     1.0000 0.50420  0.88620  0.11380  Biso   1.000  C
  H124     1.0000 0.46330  0.89760  0.10240  Biso   1.000  H
  C143     1.0000 0.51510  0.84250  0.15750  Biso   1.000  C
  N87      1.0000 0.12560  0.35250  0.64750  Biso   1.000  N
  N88      1.0000 0.96260  0.31090  0.68910  Biso   1.000  N
  C144     1.0000 0.07520  0.32550  0.67450  Biso   1.000  C
  H125     1.0000 0.08100  0.29460  0.70540  Biso   1.000  H
  C145     1.0000 0.11520  0.39670  0.60330  Biso   1.000  C
  H126     1.0000 0.14980  0.41580  0.58420  Biso   1.000  H
  C146     1.0000 0.05740  0.41460  0.58540  Biso   1.000  C
  H127     1.0000 0.05230  0.44550  0.55450  Biso   1.000  H
  C147     1.0000 0.00420  0.38620  0.61380  Biso   1.000  C
  H128     1.0000 0.96330  0.39760  0.60240  Biso   1.000  H
  C148     1.0000 0.01510  0.34250  0.65750  Biso   1.000  C
  N89      1.0000 0.37440  0.14750  0.14750  Biso   1.000  N
  N90      1.0000 0.53740  0.18910  0.18910  Biso   1.000  N
  C149     1.0000 0.42480  0.17450  0.17450  Biso   1.000  C
  H129     1.0000 0.41900  0.20540  0.20540  Biso   1.000  H
  C150     1.0000 0.38480  0.10330  0.10330  Biso   1.000  C
  H130     1.0000 0.35020  0.08420  0.08420  Biso   1.000  H
  C151     1.0000 0.44260  0.08540  0.08540  Biso   1.000  C
  H131     1.0000 0.44770  0.05450  0.05450  Biso   1.000  H
  C152     1.0000 0.49580  0.11380  0.11380  Biso   1.000  C
  H132     1.0000 0.53670  0.10240  0.10240  Biso   1.000  H
  C153     1.0000 0.48490  0.15750  0.15750  Biso   1.000  C
  N91      1.0000 0.87440  0.64750  0.64750  Biso   1.000  N
  N92      1.0000 0.03740  0.68910  0.68910  Biso   1.000  N
  C154     1.0000 0.92480  0.67450  0.67450  Biso   1.000  C
  H133     1.0000 0.91900  0.70540  0.70540  Biso   1.000  H
  C155     1.0000 0.88480  0.60330  0.60330  Biso   1.000  C
  H134     1.0000 0.85020  0.58420  0.58420  Biso   1.000  H
  C156     1.0000 0.94260  0.58540  0.58540  Biso   1.000  C
  H135     1.0000 0.94770  0.55450  0.55450  Biso   1.000  H
  C157     1.0000 0.99580  0.61380  0.61380  Biso   1.000  C
  H136     1.0000 0.03670  0.60240  0.60240  Biso   1.000  H
  C158     1.0000 0.98490  0.65750  0.65750  Biso   1.000  C
  N93      1.0000 0.62560  0.14750  0.85250  Biso   1.000  N
  N94      1.0000 0.46260  0.18910  0.81090  Biso   1.000  N
  C159     1.0000 0.57520  0.17450  0.82550  Biso   1.000  C
  H137     1.0000 0.58100  0.20540  0.79460  Biso   1.000  H
  C160     1.0000 0.61520  0.10330  0.89670  Biso   1.000  C
  H138     1.0000 0.64980  0.08420  0.91580  Biso   1.000  H
  C161     1.0000 0.55740  0.08540  0.91460  Biso   1.000  C
  H139     1.0000 0.55230  0.05450  0.94550  Biso   1.000  H
  C162     1.0000 0.50420  0.11380  0.88620  Biso   1.000  C
  H140     1.0000 0.46330  0.10240  0.89760  Biso   1.000  H
  C163     1.0000 0.51510  0.15750  0.84250  Biso   1.000  C
  N95      1.0000 0.12560  0.64750  0.35250  Biso   1.000  N
  N96      1.0000 0.96260  0.68910  0.31090  Biso   1.000  N
  C164     1.0000 0.07520  0.67450  0.32550  Biso   1.000  C
  H141     1.0000 0.08100  0.70540  0.29460  Biso   1.000  H
  C165     1.0000 0.11520  0.60330  0.39670  Biso   1.000  C
  H142     1.0000 0.14980  0.58420  0.41580  Biso   1.000  H
  C166     1.0000 0.05740  0.58540  0.41460  Biso   1.000  C
  H143     1.0000 0.05230  0.55450  0.44550  Biso   1.000  H
  C167     1.0000 0.00420  0.61380  0.38620  Biso   1.000  C
  H144     1.0000 0.96330  0.60240  0.39760  Biso   1.000  H
  C168     1.0000 0.01510  0.65750  0.34250  Biso   1.000  C
