data_image0
_cell_length_a       21.1318
_cell_length_b       21.1318
_cell_length_c       21.1318
_cell_angle_alpha    90
_cell_angle_beta     90
_cell_angle_gamma    90

_symmetry_space_group_name_H-M    "P 1"
_symmetry_int_tables_number       1

loop_
  _symmetry_equiv_pos_as_xyz
  'x, y, z'

loop_
  _atom_site_label
  _atom_site_occupancy
  _atom_site_fract_x
  _atom_site_fract_y
  _atom_site_fract_z
  _atom_site_thermal_displace_type
  _atom_site_B_iso_or_equiv
  _atom_site_type_symbol
  C1       1.0000 0.67110  0.93400  0.74350  Biso   1.000  C
  H1       1.0000 0.63540  0.94390  0.76720  Biso   1.000  H
  N1       1.0000 0.71180  0.89080  0.75730  Biso   1.000  N
  C2       1.0000 0.17110  0.43400  0.24350  Biso   1.000  C
  H2       1.0000 0.13540  0.44390  0.26720  Biso   1.000  H
  N2       1.0000 0.21180  0.39080  0.25730  Biso   1.000  N
  C3       1.0000 0.32890  0.06600  0.74350  Biso   1.000  C
  H3       1.0000 0.36460  0.05610  0.76720  Biso   1.000  H
  N3       1.0000 0.28820  0.10920  0.75730  Biso   1.000  N
  C4       1.0000 0.82890  0.56600  0.24350  Biso   1.000  C
  H4       1.0000 0.86460  0.55610  0.26720  Biso   1.000  H
  N4       1.0000 0.78820  0.60920  0.25730  Biso   1.000  N
  C5       1.0000 0.32890  0.93400  0.25650  Biso   1.000  C
  H5       1.0000 0.36460  0.94390  0.23280  Biso   1.000  H
  N5       1.0000 0.28820  0.89080  0.24270  Biso   1.000  N
  C6       1.0000 0.82890  0.43400  0.75650  Biso   1.000  C
  H6       1.0000 0.86460  0.44390  0.73280  Biso   1.000  H
  N6       1.0000 0.78820  0.39080  0.74270  Biso   1.000  N
  C7       1.0000 0.67110  0.06600  0.25650  Biso   1.000  C
  H7       1.0000 0.63540  0.05610  0.23280  Biso   1.000  H
  N7       1.0000 0.71180  0.10920  0.24270  Biso   1.000  N
  C8       1.0000 0.17110  0.56600  0.75650  Biso   1.000  C
  H8       1.0000 0.13540  0.55610  0.73280  Biso   1.000  H
  N8       1.0000 0.21180  0.60920  0.74270  Biso   1.000  N
  C9       1.0000 0.74350  0.67110  0.93400  Biso   1.000  C
  H9       1.0000 0.76720  0.63540  0.94390  Biso   1.000  H
  N9       1.0000 0.75730  0.71180  0.89080  Biso   1.000  N
  C10      1.0000 0.24350  0.17110  0.43400  Biso   1.000  C
  H10      1.0000 0.26720  0.13540  0.44390  Biso   1.000  H
  N10      1.0000 0.25730  0.21180  0.39080  Biso   1.000  N
  C11      1.0000 0.74350  0.32890  0.06600  Biso   1.000  C
  H11      1.0000 0.76720  0.36460  0.05610  Biso   1.000  H
  N11      1.0000 0.75730  0.28820  0.10920  Biso   1.000  N
  C12      1.0000 0.24350  0.82890  0.56600  Biso   1.000  C
  H12      1.0000 0.26720  0.86460  0.55610  Biso   1.000  H
  N12      1.0000 0.25730  0.78820  0.60920  Biso   1.000  N
  C13      1.0000 0.25650  0.32890  0.93400  Biso   1.000  C
  H13      1.0000 0.23280  0.36460  0.94390  Biso   1.000  H
  N13      1.0000 0.24270  0.28820  0.89080  Biso   1.000  N
  C14      1.0000 0.75650  0.82890  0.43400  Biso   1.000  C
  H14      1.0000 0.73280  0.86460  0.44390  Biso   1.000  H
  N14      1.0000 0.74270  0.78820  0.39080  Biso   1.000  N
  C15      1.0000 0.25650  0.67110  0.06600  Biso   1.000  C
  H15      1.0000 0.23280  0.63540  0.05610  Biso   1.000  H
  N15      1.0000 0.24270  0.71180  0.10920  Biso   1.000  N
  C16      1.0000 0.75650  0.17110  0.56600  Biso   1.000  C
  H16      1.0000 0.73280  0.13540  0.55610  Biso   1.000  H
  N16      1.0000 0.74270  0.21180  0.60920  Biso   1.000  N
  C17      1.0000 0.93400  0.74350  0.67110  Biso   1.000  C
  H17      1.0000 0.94390  0.76720  0.63540  Biso   1.000  H
  N17      1.0000 0.89080  0.75730  0.71180  Biso   1.000  N
  C18      1.0000 0.43400  0.24350  0.17110  Biso   1.000  C
  H18      1.0000 0.44390  0.26720  0.13540  Biso   1.000  H
  N18      1.0000 0.39080  0.25730  0.21180  Biso   1.000  N
  C19      1.0000 0.06600  0.74350  0.32890  Biso   1.000  C
  H19      1.0000 0.05610  0.76720  0.36460  Biso   1.000  H
  N19      1.0000 0.10920  0.75730  0.28820  Biso   1.000  N
  C20      1.0000 0.56600  0.24350  0.82890  Biso   1.000  C
  H20      1.0000 0.55610  0.26720  0.86460  Biso   1.000  H
  N20      1.0000 0.60920  0.25730  0.78820  Biso   1.000  N
  C21      1.0000 0.93400  0.25650  0.32890  Biso   1.000  C
  H21      1.0000 0.94390  0.23280  0.36460  Biso   1.000  H
  N21      1.0000 0.89080  0.24270  0.28820  Biso   1.000  N
  C22      1.0000 0.43400  0.75650  0.82890  Biso   1.000  C
  H22      1.0000 0.44390  0.73280  0.86460  Biso   1.000  H
  N22      1.0000 0.39080  0.74270  0.78820  Biso   1.000  N
  C23      1.0000 0.06600  0.25650  0.67110  Biso   1.000  C
  H23      1.0000 0.05610  0.23280  0.63540  Biso   1.000  H
  N23      1.0000 0.10920  0.24270  0.71180  Biso   1.000  N
  C24      1.0000 0.56600  0.75650  0.17110  Biso   1.000  C
  H24      1.0000 0.55610  0.73280  0.13540  Biso   1.000  H
  N24      1.0000 0.60920  0.74270  0.21180  Biso   1.000  N
  C25      1.0000 0.93400  0.67110  0.74350  Biso   1.000  C
  H25      1.0000 0.94390  0.63540  0.76720  Biso   1.000  H
  N25      1.0000 0.89080  0.71180  0.75730  Biso   1.000  N
  C26      1.0000 0.43400  0.17110  0.24350  Biso   1.000  C
  H26      1.0000 0.44390  0.13540  0.26720  Biso   1.000  H
  N26      1.0000 0.39080  0.21180  0.25730  Biso   1.000  N
  C27      1.0000 0.06600  0.32890  0.74350  Biso   1.000  C
  H27      1.0000 0.05610  0.36460  0.76720  Biso   1.000  H
  N27      1.0000 0.10920  0.28820  0.75730  Biso   1.000  N
  C28      1.0000 0.56600  0.82890  0.24350  Biso   1.000  C
  H28      1.0000 0.55610  0.86460  0.26720  Biso   1.000  H
  N28      1.0000 0.60920  0.78820  0.25730  Biso   1.000  N
  C29      1.0000 0.93400  0.32890  0.25650  Biso   1.000  C
  H29      1.0000 0.94390  0.36460  0.23280  Biso   1.000  H
  N29      1.0000 0.89080  0.28820  0.24270  Biso   1.000  N
  C30      1.0000 0.43400  0.82890  0.75650  Biso   1.000  C
  H30      1.0000 0.44390  0.86460  0.73280  Biso   1.000  H
  N30      1.0000 0.39080  0.78820  0.74270  Biso   1.000  N
  C31      1.0000 0.06600  0.67110  0.25650  Biso   1.000  C
  H31      1.0000 0.05610  0.63540  0.23280  Biso   1.000  H
  N31      1.0000 0.10920  0.71180  0.24270  Biso   1.000  N
  C32      1.0000 0.56600  0.17110  0.75650  Biso   1.000  C
  H32      1.0000 0.55610  0.13540  0.73280  Biso   1.000  H
  N32      1.0000 0.60920  0.21180  0.74270  Biso   1.000  N
  C33      1.0000 0.67110  0.74350  0.93400  Biso   1.000  C
  H33      1.0000 0.63540  0.76720  0.94390  Biso   1.000  H
  N33      1.0000 0.71180  0.75730  0.89080  Biso   1.000  N
  C34      1.0000 0.17110  0.24350  0.43400  Biso   1.000  C
  H34      1.0000 0.13540  0.26720  0.44390  Biso   1.000  H
  N34      1.0000 0.21180  0.25730  0.39080  Biso   1.000  N
  C35      1.0000 0.32890  0.74350  0.06600  Biso   1.000  C
  H35      1.0000 0.36460  0.76720  0.05610  Biso   1.000  H
  N35      1.0000 0.28820  0.75730  0.10920  Biso   1.000  N
  C36      1.0000 0.82890  0.24350  0.56600  Biso   1.000  C
  H36      1.0000 0.86460  0.26720  0.55610  Biso   1.000  H
  N36      1.0000 0.78820  0.25730  0.60920  Biso   1.000  N
  C37      1.0000 0.32890  0.25650  0.93400  Biso   1.000  C
  H37      1.0000 0.36460  0.23280  0.94390  Biso   1.000  H
  N37      1.0000 0.28820  0.24270  0.89080  Biso   1.000  N
  C38      1.0000 0.82890  0.75650  0.43400  Biso   1.000  C
  H38      1.0000 0.86460  0.73280  0.44390  Biso   1.000  H
  N38      1.0000 0.78820  0.74270  0.39080  Biso   1.000  N
  C39      1.0000 0.67110  0.25650  0.06600  Biso   1.000  C
  H39      1.0000 0.63540  0.23280  0.05610  Biso   1.000  H
  N39      1.0000 0.71180  0.24270  0.10920  Biso   1.000  N
  C40      1.0000 0.17110  0.75650  0.56600  Biso   1.000  C
  H40      1.0000 0.13540  0.73280  0.55610  Biso   1.000  H
  N40      1.0000 0.21180  0.74270  0.60920  Biso   1.000  N
  C41      1.0000 0.74350  0.93400  0.67110  Biso   1.000  C
  H41      1.0000 0.76720  0.94390  0.63540  Biso   1.000  H
  N41      1.0000 0.75730  0.89080  0.71180  Biso   1.000  N
  C42      1.0000 0.24350  0.43400  0.17110  Biso   1.000  C
  H42      1.0000 0.26720  0.44390  0.13540  Biso   1.000  H
  N42      1.0000 0.25730  0.39080  0.21180  Biso   1.000  N
  C43      1.0000 0.74350  0.06600  0.32890  Biso   1.000  C
  H43      1.0000 0.76720  0.05610  0.36460  Biso   1.000  H
  N43      1.0000 0.75730  0.10920  0.28820  Biso   1.000  N
  C44      1.0000 0.24350  0.56600  0.82890  Biso   1.000  C
  H44      1.0000 0.26720  0.55610  0.86460  Biso   1.000  H
  N44      1.0000 0.25730  0.60920  0.78820  Biso   1.000  N
  C45      1.0000 0.25650  0.93400  0.32890  Biso   1.000  C
  H45      1.0000 0.23280  0.94390  0.36460  Biso   1.000  H
  N45      1.0000 0.24270  0.89080  0.28820  Biso   1.000  N
  C46      1.0000 0.75650  0.43400  0.82890  Biso   1.000  C
  H46      1.0000 0.73280  0.44390  0.86460  Biso   1.000  H
  N46      1.0000 0.74270  0.39080  0.78820  Biso   1.000  N
  C47      1.0000 0.25650  0.06600  0.67110  Biso   1.000  C
  H47      1.0000 0.23280  0.05610  0.63540  Biso   1.000  H
  N47      1.0000 0.24270  0.10920  0.71180  Biso   1.000  N
  C48      1.0000 0.75650  0.56600  0.17110  Biso   1.000  C
  H48      1.0000 0.73280  0.55610  0.13540  Biso   1.000  H
  N48      1.0000 0.74270  0.60920  0.21180  Biso   1.000  N
  Cu1      1.0000 0.71390  0.82825  0.82825  Biso   1.000  Cu
  Cu2      1.0000 0.21390  0.32825  0.32825  Biso   1.000  Cu
  Cu3      1.0000 0.28610  0.17175  0.82825  Biso   1.000  Cu
  Cu4      1.0000 0.78610  0.67175  0.32825  Biso   1.000  Cu
  Cu5      1.0000 0.28610  0.82825  0.17175  Biso   1.000  Cu
  Cu6      1.0000 0.78610  0.32825  0.67175  Biso   1.000  Cu
  Cu7      1.0000 0.71390  0.17175  0.17175  Biso   1.000  Cu
  Cu8      1.0000 0.21390  0.67175  0.67175  Biso   1.000  Cu
  Cu9      1.0000 0.82825  0.71390  0.82825  Biso   1.000  Cu
  Cu10     1.0000 0.32825  0.21390  0.32825  Biso   1.000  Cu
  Cu11     1.0000 0.82825  0.28610  0.17175  Biso   1.000  Cu
  Cu12     1.0000 0.32825  0.78610  0.67175  Biso   1.000  Cu
  Cu13     1.0000 0.17175  0.28610  0.82825  Biso   1.000  Cu
  Cu14     1.0000 0.67175  0.78610  0.32825  Biso   1.000  Cu
  Cu15     1.0000 0.17175  0.71390  0.17175  Biso   1.000  Cu
  Cu16     1.0000 0.67175  0.21390  0.67175  Biso   1.000  Cu
  Cu17     1.0000 0.82825  0.82825  0.71390  Biso   1.000  Cu
  Cu18     1.0000 0.32825  0.32825  0.21390  Biso   1.000  Cu
  Cu19     1.0000 0.17175  0.82825  0.28610  Biso   1.000  Cu
  Cu20     1.0000 0.67175  0.32825  0.78610  Biso   1.000  Cu
  Cu21     1.0000 0.82825  0.17175  0.28610  Biso   1.000  Cu
  Cu22     1.0000 0.32825  0.67175  0.78610  Biso   1.000  Cu
  Cu23     1.0000 0.17175  0.17175  0.71390  Biso   1.000  Cu
  Cu24     1.0000 0.67175  0.67175  0.21390  Biso   1.000  Cu
  O1       1.0000 0.80070  0.80070  0.80070  Biso   1.000  O
  O2       1.0000 0.30070  0.30070  0.30070  Biso   1.000  O
  O3       1.0000 0.19930  0.19930  0.80070  Biso   1.000  O
  O4       1.0000 0.69930  0.69930  0.30070  Biso   1.000  O
  O5       1.0000 0.19930  0.80070  0.19930  Biso   1.000  O
  O6       1.0000 0.69930  0.30070  0.69930  Biso   1.000  O
  O7       1.0000 0.80070  0.19930  0.19930  Biso   1.000  O
  O8       1.0000 0.30070  0.69930  0.69930  Biso   1.000  O
  C49      1.0000 0.60180  0.11510  0.60180  Biso   1.000  C
  H49      1.0000 0.58230  0.14940  0.58230  Biso   1.000  H
  C50      1.0000 0.58490  0.05620  0.58490  Biso   1.000  C
  H50      1.0000 0.55400  0.05060  0.55400  Biso   1.000  H
  C51      1.0000 0.61270  0.00360  0.61270  Biso   1.000  C
  H51      1.0000 0.60130  0.96270  0.60130  Biso   1.000  H
  C52      1.0000 0.65700  0.01480  0.65700  Biso   1.000  C
  C53      1.0000 0.67390  0.07600  0.67390  Biso   1.000  C
  H52      1.0000 0.70460  0.08290  0.70460  Biso   1.000  H
  N49      1.0000 0.64540  0.12560  0.64540  Biso   1.000  N
  N50      1.0000 0.68870  0.96310  0.68870  Biso   1.000  N
  C54      1.0000 0.10180  0.61510  0.10180  Biso   1.000  C
  H53      1.0000 0.08230  0.64940  0.08230  Biso   1.000  H
  C55      1.0000 0.08490  0.55620  0.08490  Biso   1.000  C
  H54      1.0000 0.05400  0.55060  0.05400  Biso   1.000  H
  C56      1.0000 0.11270  0.50360  0.11270  Biso   1.000  C
  H55      1.0000 0.10130  0.46270  0.10130  Biso   1.000  H
  C57      1.0000 0.15700  0.51480  0.15700  Biso   1.000  C
  C58      1.0000 0.17390  0.57600  0.17390  Biso   1.000  C
  H56      1.0000 0.20460  0.58290  0.20460  Biso   1.000  H
  N51      1.0000 0.14540  0.62560  0.14540  Biso   1.000  N
  N52      1.0000 0.18870  0.46310  0.18870  Biso   1.000  N
  C59      1.0000 0.39820  0.88490  0.60180  Biso   1.000  C
  H57      1.0000 0.41770  0.85060  0.58230  Biso   1.000  H
  C60      1.0000 0.41510  0.94380  0.58490  Biso   1.000  C
  H58      1.0000 0.44600  0.94940  0.55400  Biso   1.000  H
  C61      1.0000 0.38730  0.99640  0.61270  Biso   1.000  C
  H59      1.0000 0.39870  0.03730  0.60130  Biso   1.000  H
  C62      1.0000 0.34300  0.98520  0.65700  Biso   1.000  C
  C63      1.0000 0.32610  0.92400  0.67390  Biso   1.000  C
  H60      1.0000 0.29540  0.91710  0.70460  Biso   1.000  H
  N53      1.0000 0.35460  0.87440  0.64540  Biso   1.000  N
  N54      1.0000 0.31130  0.03690  0.68870  Biso   1.000  N
  C64      1.0000 0.89820  0.38490  0.10180  Biso   1.000  C
  H61      1.0000 0.91770  0.35060  0.08230  Biso   1.000  H
  C65      1.0000 0.91510  0.44380  0.08490  Biso   1.000  C
  H62      1.0000 0.94600  0.44940  0.05400  Biso   1.000  H
  C66      1.0000 0.88730  0.49640  0.11270  Biso   1.000  C
  H63      1.0000 0.89870  0.53730  0.10130  Biso   1.000  H
  C67      1.0000 0.84300  0.48520  0.15700  Biso   1.000  C
  C68      1.0000 0.82610  0.42400  0.17390  Biso   1.000  C
  H64      1.0000 0.79540  0.41710  0.20460  Biso   1.000  H
  N55      1.0000 0.85460  0.37440  0.14540  Biso   1.000  N
  N56      1.0000 0.81130  0.53690  0.18870  Biso   1.000  N
  C69      1.0000 0.39820  0.11510  0.39820  Biso   1.000  C
  H65      1.0000 0.41770  0.14940  0.41770  Biso   1.000  H
  C70      1.0000 0.41510  0.05620  0.41510  Biso   1.000  C
  H66      1.0000 0.44600  0.05060  0.44600  Biso   1.000  H
  C71      1.0000 0.38730  0.00360  0.38730  Biso   1.000  C
  H67      1.0000 0.39870  0.96270  0.39870  Biso   1.000  H
  C72      1.0000 0.34300  0.01480  0.34300  Biso   1.000  C
  C73      1.0000 0.32610  0.07600  0.32610  Biso   1.000  C
  H68      1.0000 0.29540  0.08290  0.29540  Biso   1.000  H
  N57      1.0000 0.35460  0.12560  0.35460  Biso   1.000  N
  N58      1.0000 0.31130  0.96310  0.31130  Biso   1.000  N
  C74      1.0000 0.89820  0.61510  0.89820  Biso   1.000  C
  H69      1.0000 0.91770  0.64940  0.91770  Biso   1.000  H
  C75      1.0000 0.91510  0.55620  0.91510  Biso   1.000  C
  H70      1.0000 0.94600  0.55060  0.94600  Biso   1.000  H
  C76      1.0000 0.88730  0.50360  0.88730  Biso   1.000  C
  H71      1.0000 0.89870  0.46270  0.89870  Biso   1.000  H
  C77      1.0000 0.84300  0.51480  0.84300  Biso   1.000  C
  C78      1.0000 0.82610  0.57600  0.82610  Biso   1.000  C
  H72      1.0000 0.79540  0.58290  0.79540  Biso   1.000  H
  N59      1.0000 0.85460  0.62560  0.85460  Biso   1.000  N
  N60      1.0000 0.81130  0.46310  0.81130  Biso   1.000  N
  C79      1.0000 0.60180  0.88490  0.39820  Biso   1.000  C
  H73      1.0000 0.58230  0.85060  0.41770  Biso   1.000  H
  C80      1.0000 0.58490  0.94380  0.41510  Biso   1.000  C
  H74      1.0000 0.55400  0.94940  0.44600  Biso   1.000  H
  C81      1.0000 0.61270  0.99640  0.38730  Biso   1.000  C
  H75      1.0000 0.60130  0.03730  0.39870  Biso   1.000  H
  C82      1.0000 0.65700  0.98520  0.34300  Biso   1.000  C
  C83      1.0000 0.67390  0.92400  0.32610  Biso   1.000  C
  H76      1.0000 0.70460  0.91710  0.29540  Biso   1.000  H
  N61      1.0000 0.64540  0.87440  0.35460  Biso   1.000  N
  N62      1.0000 0.68870  0.03690  0.31130  Biso   1.000  N
  C84      1.0000 0.10180  0.38490  0.89820  Biso   1.000  C
  H77      1.0000 0.08230  0.35060  0.91770  Biso   1.000  H
  C85      1.0000 0.08490  0.44380  0.91510  Biso   1.000  C
  H78      1.0000 0.05400  0.44940  0.94600  Biso   1.000  H
  C86      1.0000 0.11270  0.49640  0.88730  Biso   1.000  C
  H79      1.0000 0.10130  0.53730  0.89870  Biso   1.000  H
  C87      1.0000 0.15700  0.48520  0.84300  Biso   1.000  C
  C88      1.0000 0.17390  0.42400  0.82610  Biso   1.000  C
  H80      1.0000 0.20460  0.41710  0.79540  Biso   1.000  H
  N63      1.0000 0.14540  0.37440  0.85460  Biso   1.000  N
  N64      1.0000 0.18870  0.53690  0.81130  Biso   1.000  N
  C89      1.0000 0.60180  0.60180  0.11510  Biso   1.000  C
  H81      1.0000 0.58230  0.58230  0.14940  Biso   1.000  H
  C90      1.0000 0.58490  0.58490  0.05620  Biso   1.000  C
  H82      1.0000 0.55400  0.55400  0.05060  Biso   1.000  H
  C91      1.0000 0.61270  0.61270  0.00360  Biso   1.000  C
  H83      1.0000 0.60130  0.60130  0.96270  Biso   1.000  H
  C92      1.0000 0.65700  0.65700  0.01480  Biso   1.000  C
  C93      1.0000 0.67390  0.67390  0.07600  Biso   1.000  C
  H84      1.0000 0.70460  0.70460  0.08290  Biso   1.000  H
  N65      1.0000 0.64540  0.64540  0.12560  Biso   1.000  N
  N66      1.0000 0.68870  0.68870  0.96310  Biso   1.000  N
  C94      1.0000 0.10180  0.10180  0.61510  Biso   1.000  C
  H85      1.0000 0.08230  0.08230  0.64940  Biso   1.000  H
  C95      1.0000 0.08490  0.08490  0.55620  Biso   1.000  C
  H86      1.0000 0.05400  0.05400  0.55060  Biso   1.000  H
  C96      1.0000 0.11270  0.11270  0.50360  Biso   1.000  C
  H87      1.0000 0.10130  0.10130  0.46270  Biso   1.000  H
  C97      1.0000 0.15700  0.15700  0.51480  Biso   1.000  C
  C98      1.0000 0.17390  0.17390  0.57600  Biso   1.000  C
  H88      1.0000 0.20460  0.20460  0.58290  Biso   1.000  H
  N67      1.0000 0.14540  0.14540  0.62560  Biso   1.000  N
  N68      1.0000 0.18870  0.18870  0.46310  Biso   1.000  N
  C99      1.0000 0.60180  0.39820  0.88490  Biso   1.000  C
  H89      1.0000 0.58230  0.41770  0.85060  Biso   1.000  H
  C100     1.0000 0.58490  0.41510  0.94380  Biso   1.000  C
  H90      1.0000 0.55400  0.44600  0.94940  Biso   1.000  H
  C101     1.0000 0.61270  0.38730  0.99640  Biso   1.000  C
  H91      1.0000 0.60130  0.39870  0.03730  Biso   1.000  H
  C102     1.0000 0.65700  0.34300  0.98520  Biso   1.000  C
  C103     1.0000 0.67390  0.32610  0.92400  Biso   1.000  C
  H92      1.0000 0.70460  0.29540  0.91710  Biso   1.000  H
  N69      1.0000 0.64540  0.35460  0.87440  Biso   1.000  N
  N70      1.0000 0.68870  0.31130  0.03690  Biso   1.000  N
  C104     1.0000 0.10180  0.89820  0.38490  Biso   1.000  C
  H93      1.0000 0.08230  0.91770  0.35060  Biso   1.000  H
  C105     1.0000 0.08490  0.91510  0.44380  Biso   1.000  C
  H94      1.0000 0.05400  0.94600  0.44940  Biso   1.000  H
  C106     1.0000 0.11270  0.88730  0.49640  Biso   1.000  C
  H95      1.0000 0.10130  0.89870  0.53730  Biso   1.000  H
  C107     1.0000 0.15700  0.84300  0.48520  Biso   1.000  C
  C108     1.0000 0.17390  0.82610  0.42400  Biso   1.000  C
  H96      1.0000 0.20460  0.79540  0.41710  Biso   1.000  H
  N71      1.0000 0.14540  0.85460  0.37440  Biso   1.000  N
  N72      1.0000 0.18870  0.81130  0.53690  Biso   1.000  N
  C109     1.0000 0.39820  0.39820  0.11510  Biso   1.000  C
  H97      1.0000 0.41770  0.41770  0.14940  Biso   1.000  H
  C110     1.0000 0.41510  0.41510  0.05620  Biso   1.000  C
  H98      1.0000 0.44600  0.44600  0.05060  Biso   1.000  H
  C111     1.0000 0.38730  0.38730  0.00360  Biso   1.000  C
  H99      1.0000 0.39870  0.39870  0.96270  Biso   1.000  H
  C112     1.0000 0.34300  0.34300  0.01480  Biso   1.000  C
  C113     1.0000 0.32610  0.32610  0.07600  Biso   1.000  C
  H100     1.0000 0.29540  0.29540  0.08290  Biso   1.000  H
  N73      1.0000 0.35460  0.35460  0.12560  Biso   1.000  N
  N74      1.0000 0.31130  0.31130  0.96310  Biso   1.000  N
  C114     1.0000 0.89820  0.89820  0.61510  Biso   1.000  C
  H101     1.0000 0.91770  0.91770  0.64940  Biso   1.000  H
  C115     1.0000 0.91510  0.91510  0.55620  Biso   1.000  C
  H102     1.0000 0.94600  0.94600  0.55060  Biso   1.000  H
  C116     1.0000 0.88730  0.88730  0.50360  Biso   1.000  C
  H103     1.0000 0.89870  0.89870  0.46270  Biso   1.000  H
  C117     1.0000 0.84300  0.84300  0.51480  Biso   1.000  C
  C118     1.0000 0.82610  0.82610  0.57600  Biso   1.000  C
  H104     1.0000 0.79540  0.79540  0.58290  Biso   1.000  H
  N75      1.0000 0.85460  0.85460  0.62560  Biso   1.000  N
  N76      1.0000 0.81130  0.81130  0.46310  Biso   1.000  N
  C119     1.0000 0.39820  0.60180  0.88490  Biso   1.000  C
  H105     1.0000 0.41770  0.58230  0.85060  Biso   1.000  H
  C120     1.0000 0.41510  0.58490  0.94380  Biso   1.000  C
  H106     1.0000 0.44600  0.55400  0.94940  Biso   1.000  H
  C121     1.0000 0.38730  0.61270  0.99640  Biso   1.000  C
  H107     1.0000 0.39870  0.60130  0.03730  Biso   1.000  H
  C122     1.0000 0.34300  0.65700  0.98520  Biso   1.000  C
  C123     1.0000 0.32610  0.67390  0.92400  Biso   1.000  C
  H108     1.0000 0.29540  0.70460  0.91710  Biso   1.000  H
  N77      1.0000 0.35460  0.64540  0.87440  Biso   1.000  N
  N78      1.0000 0.31130  0.68870  0.03690  Biso   1.000  N
  C124     1.0000 0.89820  0.10180  0.38490  Biso   1.000  C
  H109     1.0000 0.91770  0.08230  0.35060  Biso   1.000  H
  C125     1.0000 0.91510  0.08490  0.44380  Biso   1.000  C
  H110     1.0000 0.94600  0.05400  0.44940  Biso   1.000  H
  C126     1.0000 0.88730  0.11270  0.49640  Biso   1.000  C
  H111     1.0000 0.89870  0.10130  0.53730  Biso   1.000  H
  C127     1.0000 0.84300  0.15700  0.48520  Biso   1.000  C
  C128     1.0000 0.82610  0.17390  0.42400  Biso   1.000  C
  H112     1.0000 0.79540  0.20460  0.41710  Biso   1.000  H
  N79      1.0000 0.85460  0.14540  0.37440  Biso   1.000  N
  N80      1.0000 0.81130  0.18870  0.53690  Biso   1.000  N
  C129     1.0000 0.11510  0.60180  0.60180  Biso   1.000  C
  H113     1.0000 0.14940  0.58230  0.58230  Biso   1.000  H
  C130     1.0000 0.05620  0.58490  0.58490  Biso   1.000  C
  H114     1.0000 0.05060  0.55400  0.55400  Biso   1.000  H
  C131     1.0000 0.00360  0.61270  0.61270  Biso   1.000  C
  H115     1.0000 0.96270  0.60130  0.60130  Biso   1.000  H
  C132     1.0000 0.01480  0.65700  0.65700  Biso   1.000  C
  C133     1.0000 0.07600  0.67390  0.67390  Biso   1.000  C
  H116     1.0000 0.08290  0.70460  0.70460  Biso   1.000  H
  N81      1.0000 0.12560  0.64540  0.64540  Biso   1.000  N
  N82      1.0000 0.96310  0.68870  0.68870  Biso   1.000  N
  C134     1.0000 0.61510  0.10180  0.10180  Biso   1.000  C
  H117     1.0000 0.64940  0.08230  0.08230  Biso   1.000  H
  C135     1.0000 0.55620  0.08490  0.08490  Biso   1.000  C
  H118     1.0000 0.55060  0.05400  0.05400  Biso   1.000  H
  C136     1.0000 0.50360  0.11270  0.11270  Biso   1.000  C
  H119     1.0000 0.46270  0.10130  0.10130  Biso   1.000  H
  C137     1.0000 0.51480  0.15700  0.15700  Biso   1.000  C
  C138     1.0000 0.57600  0.17390  0.17390  Biso   1.000  C
  H120     1.0000 0.58290  0.20460  0.20460  Biso   1.000  H
  N83      1.0000 0.62560  0.14540  0.14540  Biso   1.000  N
  N84      1.0000 0.46310  0.18870  0.18870  Biso   1.000  N
  C139     1.0000 0.88490  0.60180  0.39820  Biso   1.000  C
  H121     1.0000 0.85060  0.58230  0.41770  Biso   1.000  H
  C140     1.0000 0.94380  0.58490  0.41510  Biso   1.000  C
  H122     1.0000 0.94940  0.55400  0.44600  Biso   1.000  H
  C141     1.0000 0.99640  0.61270  0.38730  Biso   1.000  C
  H123     1.0000 0.03730  0.60130  0.39870  Biso   1.000  H
  C142     1.0000 0.98520  0.65700  0.34300  Biso   1.000  C
  C143     1.0000 0.92400  0.67390  0.32610  Biso   1.000  C
  H124     1.0000 0.91710  0.70460  0.29540  Biso   1.000  H
  N85      1.0000 0.87440  0.64540  0.35460  Biso   1.000  N
  N86      1.0000 0.03690  0.68870  0.31130  Biso   1.000  N
  C144     1.0000 0.38490  0.10180  0.89820  Biso   1.000  C
  H125     1.0000 0.35060  0.08230  0.91770  Biso   1.000  H
  C145     1.0000 0.44380  0.08490  0.91510  Biso   1.000  C
  H126     1.0000 0.44940  0.05400  0.94600  Biso   1.000  H
  C146     1.0000 0.49640  0.11270  0.88730  Biso   1.000  C
  H127     1.0000 0.53730  0.10130  0.89870  Biso   1.000  H
  C147     1.0000 0.48520  0.15700  0.84300  Biso   1.000  C
  C148     1.0000 0.42400  0.17390  0.82610  Biso   1.000  C
  H128     1.0000 0.41710  0.20460  0.79540  Biso   1.000  H
  N87      1.0000 0.37440  0.14540  0.85460  Biso   1.000  N
  N88      1.0000 0.53690  0.18870  0.81130  Biso   1.000  N
  C149     1.0000 0.11510  0.39820  0.39820  Biso   1.000  C
  H129     1.0000 0.14940  0.41770  0.41770  Biso   1.000  H
  C150     1.0000 0.05620  0.41510  0.41510  Biso   1.000  C
  H130     1.0000 0.05060  0.44600  0.44600  Biso   1.000  H
  C151     1.0000 0.00360  0.38730  0.38730  Biso   1.000  C
  H131     1.0000 0.96270  0.39870  0.39870  Biso   1.000  H
  C152     1.0000 0.01480  0.34300  0.34300  Biso   1.000  C
  C153     1.0000 0.07600  0.32610  0.32610  Biso   1.000  C
  H132     1.0000 0.08290  0.29540  0.29540  Biso   1.000  H
  N89      1.0000 0.12560  0.35460  0.35460  Biso   1.000  N
  N90      1.0000 0.96310  0.31130  0.31130  Biso   1.000  N
  C154     1.0000 0.61510  0.89820  0.89820  Biso   1.000  C
  H133     1.0000 0.64940  0.91770  0.91770  Biso   1.000  H
  C155     1.0000 0.55620  0.91510  0.91510  Biso   1.000  C
  H134     1.0000 0.55060  0.94600  0.94600  Biso   1.000  H
  C156     1.0000 0.50360  0.88730  0.88730  Biso   1.000  C
  H135     1.0000 0.46270  0.89870  0.89870  Biso   1.000  H
  C157     1.0000 0.51480  0.84300  0.84300  Biso   1.000  C
  C158     1.0000 0.57600  0.82610  0.82610  Biso   1.000  C
  H136     1.0000 0.58290  0.79540  0.79540  Biso   1.000  H
  N91      1.0000 0.62560  0.85460  0.85460  Biso   1.000  N
  N92      1.0000 0.46310  0.81130  0.81130  Biso   1.000  N
  C159     1.0000 0.88490  0.39820  0.60180  Biso   1.000  C
  H137     1.0000 0.85060  0.41770  0.58230  Biso   1.000  H
  C160     1.0000 0.94380  0.41510  0.58490  Biso   1.000  C
  H138     1.0000 0.94940  0.44600  0.55400  Biso   1.000  H
  C161     1.0000 0.99640  0.38730  0.61270  Biso   1.000  C
  H139     1.0000 0.03730  0.39870  0.60130  Biso   1.000  H
  C162     1.0000 0.98520  0.34300  0.65700  Biso   1.000  C
  C163     1.0000 0.92400  0.32610  0.67390  Biso   1.000  C
  H140     1.0000 0.91710  0.29540  0.70460  Biso   1.000  H
  N93      1.0000 0.87440  0.35460  0.64540  Biso   1.000  N
  N94      1.0000 0.03690  0.31130  0.68870  Biso   1.000  N
  C164     1.0000 0.38490  0.89820  0.10180  Biso   1.000  C
  H141     1.0000 0.35060  0.91770  0.08230  Biso   1.000  H
  C165     1.0000 0.44380  0.91510  0.08490  Biso   1.000  C
  H142     1.0000 0.44940  0.94600  0.05400  Biso   1.000  H
  C166     1.0000 0.49640  0.88730  0.11270  Biso   1.000  C
  H143     1.0000 0.53730  0.89870  0.10130  Biso   1.000  H
  C167     1.0000 0.48520  0.84300  0.15700  Biso   1.000  C
  C168     1.0000 0.42400  0.82610  0.17390  Biso   1.000  C
  H144     1.0000 0.41710  0.79540  0.20460  Biso   1.000  H
  N95      1.0000 0.37440  0.85460  0.14540  Biso   1.000  N
  N96      1.0000 0.53690  0.81130  0.18870  Biso   1.000  N
