data_LIQCUK_clean
_audit_creation_date              2014-07-02
_audit_creation_method            'Materials Studio'
_symmetry_space_group_name_H-M    'P1'
_symmetry_Int_Tables_number       1
_symmetry_cell_setting            triclinic
loop_
_symmetry_equiv_pos_as_xyz
  x,y,z
_cell_length_a                    9.8743
_cell_length_b                    17.7315
_cell_length_c                    17.7315
_cell_angle_alpha                 63.3644
_cell_angle_beta                  79.3024
_cell_angle_gamma                 100.6980
loop_
_atom_site_label
_atom_site_type_symbol
_atom_site_fract_x
_atom_site_fract_y
_atom_site_fract_z
_atom_site_U_iso_or_equiv
_atom_site_adp_type
_atom_site_occupancy
Ag1    Ag    0.20545   0.24217   0.42517   0.01267  Uiso   1.00
Ag2    Ag    0.63062   0.42517   0.33266   0.01267  Uiso   1.00
Ag3    Ag    0.96328   0.33266   0.24217   0.01267  Uiso   1.00
Ag4    Ag    0.79455   0.75783   0.57483   0.01267  Uiso   1.00
Ag5    Ag    0.36938   0.57483   0.66734   0.01267  Uiso   1.00
Ag6    Ag    0.03672   0.66734   0.75783   0.01267  Uiso   1.00
H1     H     0.11520   0.17030   0.18030   0.01267  Uiso   1.00
H2     H     0.95810   0.17330   0.22050   0.01267  Uiso   1.00
H3     H     0.86980   0.01690   0.30350   0.01267  Uiso   1.00
H4     H     0.93910   0.04620   0.20170   0.01267  Uiso   1.00
H5     H     0.15140   0.01520   0.22890   0.01267  Uiso   1.00
H6     H     0.01560   0.92870   0.29570   0.01267  Uiso   1.00
H7     H     0.17510   0.95590   0.37240   0.01267  Uiso   1.00
H8     H     0.01860   0.96030   0.41100   0.01267  Uiso   1.00
H9     H     0.19450   0.08230   0.39200   0.01267  Uiso   1.00
H10    H     0.26700   0.11200   0.29030   0.01267  Uiso   1.00
H11    H     0.98150   0.10920   0.36280   0.01267  Uiso   1.00
H12    H     0.38100   0.33690   0.20830   0.01267  Uiso   1.00
H13    H     0.33360   0.25790   0.18870   0.01267  Uiso   1.00
H14    H     0.59300   0.41910   0.98810   0.01267  Uiso   1.00
H15    H     0.54220   0.36930   0.09430   0.01267  Uiso   1.00
H16    H     0.27810   0.48990   0.96830   0.01267  Uiso   1.00
H17    H     0.42640   0.49430   0.90850   0.01267  Uiso   1.00
H18    H     0.29550   0.18030   0.64940   0.01267  Uiso   1.00
H19    H     0.17860   0.22050   0.60620   0.01267  Uiso   1.00
H20    H     0.17330   0.30350   0.67960   0.01267  Uiso   1.00
H21    H     0.14080   0.20170   0.75210   0.01267  Uiso   1.00
H22    H     0.38030   0.22890   0.75590   0.01267  Uiso   1.00
H23    H     0.31130   0.29570   0.77560   0.01267  Uiso   1.00
H24    H     0.54750   0.37240   0.67170   0.01267  Uiso   1.00
H25    H     0.42960   0.41100   0.62870   0.01267  Uiso   1.00
H26    H     0.58650   0.39200   0.52570   0.01267  Uiso   1.00
H27    H     0.55730   0.29030   0.59770   0.01267  Uiso   1.00
H28    H     0.34430   0.36280   0.52800   0.01267  Uiso   1.00
H29    H     0.58930   0.20830   0.45480   0.01267  Uiso   1.00
H30    H     0.52230   0.18870   0.55340   0.01267  Uiso   1.00
H31    H     0.58110   0.98810   0.59280   0.01267  Uiso   1.00
H32    H     0.63650   0.09430   0.53640   0.01267  Uiso   1.00
H33    H     0.24640   0.96830   0.54180   0.01267  Uiso   1.00
H34    H     0.33490   0.90850   0.59720   0.01267  Uiso   1.00
H35    H     0.94490   0.64940   0.17030   0.01267  Uiso   1.00
H36    H     0.78480   0.60620   0.17330   0.01267  Uiso   1.00
H37    H     0.85290   0.67960   0.01690   0.01267  Uiso   1.00
H38    H     0.89290   0.75210   0.04620   0.01267  Uiso   1.00
H39    H     0.13620   0.75590   0.01520   0.01267  Uiso   1.00
H40    H     0.08690   0.77560   0.92870   0.01267  Uiso   1.00
H41    H     0.21920   0.67170   0.95590   0.01267  Uiso   1.00
H42    H     0.05830   0.62870   0.96030   0.01267  Uiso   1.00
H43    H     0.11220   0.52570   0.08230   0.01267  Uiso   1.00
H44    H     0.15500   0.59770   0.11200   0.01267  Uiso   1.00
H45    H     0.87230   0.52800   0.10920   0.01267  Uiso   1.00
H46    H     0.04410   0.45480   0.33690   0.01267  Uiso   1.00
H47    H     0.07570   0.55340   0.25790   0.01267  Uiso   1.00
H48    H     0.17390   0.59280   0.41910   0.01267  Uiso   1.00
H49    H     0.17290   0.53640   0.36930   0.01267  Uiso   1.00
H50    H     0.78820   0.54180   0.48990   0.01267  Uiso   1.00
H51    H     0.93210   0.59720   0.49430   0.01267  Uiso   1.00
H52    H     0.88480   0.82970   0.81970   0.01267  Uiso   1.00
H53    H     0.04190   0.82670   0.77950   0.01267  Uiso   1.00
H54    H     0.13020   0.98310   0.69650   0.01267  Uiso   1.00
H55    H     0.06090   0.95380   0.79830   0.01267  Uiso   1.00
H56    H     0.84860   0.98480   0.77110   0.01267  Uiso   1.00
H57    H     0.98440   0.07130   0.70430   0.01267  Uiso   1.00
H58    H     0.82490   0.04410   0.62760   0.01267  Uiso   1.00
H59    H     0.98140   0.03970   0.58900   0.01267  Uiso   1.00
H60    H     0.80550   0.91770   0.60800   0.01267  Uiso   1.00
H61    H     0.73300   0.88800   0.70970   0.01267  Uiso   1.00
H62    H     0.01850   0.89080   0.63720   0.01267  Uiso   1.00
H63    H     0.61900   0.66310   0.79170   0.01267  Uiso   1.00
H64    H     0.66640   0.74210   0.81130   0.01267  Uiso   1.00
H65    H     0.40700   0.58090   0.01190   0.01267  Uiso   1.00
H66    H     0.45780   0.63070   0.90570   0.01267  Uiso   1.00
H67    H     0.72190   0.51010   0.03170   0.01267  Uiso   1.00
H68    H     0.57360   0.50570   0.09150   0.01267  Uiso   1.00
H69    H     0.70450   0.81970   0.35060   0.01267  Uiso   1.00
H70    H     0.82140   0.77950   0.39380   0.01267  Uiso   1.00
H71    H     0.82670   0.69650   0.32040   0.01267  Uiso   1.00
H72    H     0.85920   0.79830   0.24790   0.01267  Uiso   1.00
H73    H     0.61970   0.77110   0.24410   0.01267  Uiso   1.00
H74    H     0.68870   0.70430   0.22440   0.01267  Uiso   1.00
H75    H     0.45250   0.62760   0.32830   0.01267  Uiso   1.00
H76    H     0.57040   0.58900   0.37130   0.01267  Uiso   1.00
H77    H     0.41350   0.60800   0.47430   0.01267  Uiso   1.00
H78    H     0.44270   0.70970   0.40230   0.01267  Uiso   1.00
H79    H     0.65570   0.63720   0.47200   0.01267  Uiso   1.00
H80    H     0.41070   0.79170   0.54520   0.01267  Uiso   1.00
H81    H     0.47770   0.81130   0.44660   0.01267  Uiso   1.00
H82    H     0.41890   0.01190   0.40720   0.01267  Uiso   1.00
H83    H     0.36350   0.90570   0.46360   0.01267  Uiso   1.00
H84    H     0.75360   0.03170   0.45820   0.01267  Uiso   1.00
H85    H     0.66510   0.09150   0.40280   0.01267  Uiso   1.00
H86    H     0.05510   0.35060   0.82970   0.01267  Uiso   1.00
H87    H     0.21520   0.39380   0.82670   0.01267  Uiso   1.00
H88    H     0.14710   0.32040   0.98310   0.01267  Uiso   1.00
H89    H     0.10710   0.24790   0.95380   0.01267  Uiso   1.00
H90    H     0.86380   0.24410   0.98480   0.01267  Uiso   1.00
H91    H     0.91310   0.22440   0.07130   0.01267  Uiso   1.00
H92    H     0.78080   0.32830   0.04410   0.01267  Uiso   1.00
H93    H     0.94170   0.37130   0.03970   0.01267  Uiso   1.00
H94    H     0.88780   0.47430   0.91770   0.01267  Uiso   1.00
H95    H     0.84500   0.40230   0.88800   0.01267  Uiso   1.00
H96    H     0.12770   0.47200   0.89080   0.01267  Uiso   1.00
H97    H     0.95590   0.54520   0.66310   0.01267  Uiso   1.00
H98    H     0.92430   0.44660   0.74210   0.01267  Uiso   1.00
H99    H     0.82610   0.40720   0.58090   0.01267  Uiso   1.00
H100   H     0.82710   0.46360   0.63070   0.01267  Uiso   1.00
H101   H     0.21180   0.45820   0.51010   0.01267  Uiso   1.00
H102   H     0.06790   0.40280   0.50570   0.01267  Uiso   1.00
C1     C     0.02887   0.14001   0.23350   0.01267  Uiso   1.00
C2     C     0.96161   0.04488   0.25435   0.01267  Uiso   1.00
C3     C     0.06320   0.99039   0.27999   0.01267  Uiso   1.00
C4     C     0.10562   0.99002   0.35846   0.01267  Uiso   1.00
C5     C     0.17407   0.08415   0.33874   0.01267  Uiso   1.00
C6     C     0.07227   0.13919   0.31158   0.01267  Uiso   1.00
C7     C     0.30179   0.30398   0.19731   0.01267  Uiso   1.00
C8     C     0.27483   0.36747   0.11308   0.01267  Uiso   1.00
C9     C     0.54166   0.42133   0.04025   0.01267  Uiso   1.00
C10    C     0.38106   0.49413   0.96335   0.01267  Uiso   1.00
C11    C     0.26237   0.23350   0.62649   0.01267  Uiso   1.00
C12    C     0.21596   0.25435   0.70077   0.01267  Uiso   1.00
C13    C     0.34319   0.27999   0.72962   0.01267  Uiso   1.00
C14    C     0.46408   0.35846   0.65152   0.01267  Uiso   1.00
C15    C     0.51281   0.33874   0.57711   0.01267  Uiso   1.00
C16    C     0.38385   0.31158   0.54923   0.01267  Uiso   1.00
C17    C     0.49910   0.19731   0.49871   0.01267  Uiso   1.00
C18    C     0.38791   0.11308   0.51945   0.01267  Uiso   1.00
C19    C     0.58191   0.04025   0.53842   0.01267  Uiso   1.00
C20    C     0.34441   0.96335   0.54252   0.01267  Uiso   1.00
C21    C     0.88886   0.62649   0.14001   0.01267  Uiso   1.00
C22    C     0.91673   0.70077   0.04488   0.01267  Uiso   1.00
C23    C     0.07281   0.72962   0.99039   0.01267  Uiso   1.00
C24    C     0.11560   0.65152   0.99002   0.01267  Uiso   1.00
C25    C     0.08992   0.57711   0.08415   0.01267  Uiso   1.00
C26    C     0.93308   0.54923   0.13919   0.01267  Uiso   1.00
C27    C     0.99781   0.49871   0.30398   0.01267  Uiso   1.00
C28    C     0.90736   0.51945   0.36747   0.01267  Uiso   1.00
C29    C     0.12033   0.53842   0.42133   0.01267  Uiso   1.00
C30    C     0.88693   0.54252   0.49413   0.01267  Uiso   1.00
C31    C     0.97113   0.85999   0.76650   0.01267  Uiso   1.00
C32    C     0.03839   0.95512   0.74565   0.01267  Uiso   1.00
C33    C     0.93680   0.00961   0.72001   0.01267  Uiso   1.00
C34    C     0.89438   0.00998   0.64154   0.01267  Uiso   1.00
C35    C     0.82593   0.91585   0.66126   0.01267  Uiso   1.00
C36    C     0.92773   0.86081   0.68842   0.01267  Uiso   1.00
C37    C     0.69821   0.69602   0.80269   0.01267  Uiso   1.00
C38    C     0.72517   0.63253   0.88692   0.01267  Uiso   1.00
C39    C     0.45834   0.57867   0.95975   0.01267  Uiso   1.00
C40    C     0.61894   0.50587   0.03665   0.01267  Uiso   1.00
C41    C     0.73763   0.76650   0.37351   0.01267  Uiso   1.00
C42    C     0.78404   0.74565   0.29923   0.01267  Uiso   1.00
C43    C     0.65681   0.72001   0.27038   0.01267  Uiso   1.00
C44    C     0.53592   0.64154   0.34848   0.01267  Uiso   1.00
C45    C     0.48719   0.66126   0.42289   0.01267  Uiso   1.00
C46    C     0.61615   0.68842   0.45077   0.01267  Uiso   1.00
C47    C     0.50090   0.80269   0.50129   0.01267  Uiso   1.00
C48    C     0.61209   0.88692   0.48055   0.01267  Uiso   1.00
C49    C     0.41809   0.95975   0.46158   0.01267  Uiso   1.00
C50    C     0.65559   0.03665   0.45748   0.01267  Uiso   1.00
C51    C     0.11114   0.37351   0.85999   0.01267  Uiso   1.00
C52    C     0.08327   0.29923   0.95512   0.01267  Uiso   1.00
C53    C     0.92719   0.27038   0.00961   0.01267  Uiso   1.00
C54    C     0.88440   0.34848   0.00998   0.01267  Uiso   1.00
C55    C     0.91008   0.42289   0.91585   0.01267  Uiso   1.00
C56    C     0.06692   0.45077   0.86081   0.01267  Uiso   1.00
C57    C     0.00219   0.50129   0.69602   0.01267  Uiso   1.00
C58    C     0.09264   0.48055   0.63253   0.01267  Uiso   1.00
C59    C     0.87967   0.46158   0.57867   0.01267  Uiso   1.00
C60    C     0.11307   0.45748   0.50587   0.01267  Uiso   1.00
S1     S     0.14257   0.25116   0.29338   0.01267  Uiso   1.00
S2     S     0.43595   0.29338   0.45546   0.01267  Uiso   1.00
S3     S     0.89141   0.45546   0.25116   0.01267  Uiso   1.00
S4     S     0.85743   0.74884   0.70662   0.01267  Uiso   1.00
S5     S     0.56405   0.70662   0.54454   0.01267  Uiso   1.00
S6     S     0.10859   0.54454   0.74884   0.01267  Uiso   1.00
N1     N     0.39173   0.41802   0.04111   0.01267  Uiso   1.00
N2     N     0.43284   0.04111   0.54087   0.01267  Uiso   1.00
N3     N     0.97371   0.54087   0.41802   0.01267  Uiso   1.00
N4     N     0.60827   0.58198   0.95889   0.01267  Uiso   1.00
N5     N     0.56716   0.95889   0.45913   0.01267  Uiso   1.00
N6     N     0.02629   0.45913   0.58198   0.01267  Uiso   1.00
O1     O     0.15269   0.37264   0.10979   0.01267  Uiso   1.00
O2     O     0.26248   0.10979   0.51757   0.01267  Uiso   1.00
O3     O     0.78005   0.51757   0.37264   0.01267  Uiso   1.00
O4     O     0.84731   0.62736   0.89021   0.01267  Uiso   1.00
O5     O     0.73752   0.89021   0.48243   0.01267  Uiso   1.00
O6     O     0.21995   0.48243   0.62736   0.01267  Uiso   1.00
