data_image0
_cell_length_a       20.171
_cell_length_b       20.171
_cell_length_c       26.197
_cell_angle_alpha    90
_cell_angle_beta     90
_cell_angle_gamma    120

_symmetry_space_group_name_H-M    "P 1"
_symmetry_int_tables_number       1

loop_
  _symmetry_equiv_pos_as_xyz
  'x, y, z'

loop_
  _atom_site_label
  _atom_site_occupancy
  _atom_site_fract_x
  _atom_site_fract_y
  _atom_site_fract_z
  _atom_site_thermal_displace_type
  _atom_site_B_iso_or_equiv
  _atom_site_type_symbol
  O1       1.0000 0.05838  0.10985  0.61408  Biso   1.000  O
  O2       1.0000 0.99365  0.08378  0.54160  Biso   1.000  O
  O3       1.0000 0.32279  0.49983  0.69112  Biso   1.000  O
  O4       1.0000 0.35089  0.59946  0.64177  Biso   1.000  O
  O5       1.0000 0.27247  0.57639  0.55713  Biso   1.000  O
  C1       1.0000 0.08139  0.21373  0.56153  Biso   1.000  C
  C2       1.0000 0.13240  0.26478  0.59568  Biso   1.000  C
  H1       1.0000 0.14250  0.24640  0.62640  Biso   1.000  H
  C3       1.0000 0.17036  0.34399  0.58637  Biso   1.000  C
  C4       1.0000 0.22188  0.39765  0.62097  Biso   1.000  C
  H2       1.0000 0.23280  0.38000  0.65170  Biso   1.000  H
  C5       1.0000 0.25726  0.47476  0.61215  Biso   1.000  C
  C6       1.0000 0.24191  0.50222  0.56535  Biso   1.000  C
  C7       1.0000 0.19146  0.45082  0.53080  Biso   1.000  C
  H3       1.0000 0.18050  0.46910  0.50040  Biso   1.000  H
  C8       1.0000 0.15560  0.37145  0.53956  Biso   1.000  C
  C9       1.0000 0.10210  0.31600  0.50457  Biso   1.000  C
  H4       1.0000 0.09170  0.33290  0.47330  Biso   1.000  H
  C10      1.0000 0.06615  0.24017  0.51484  Biso   1.000  C
  H5       1.0000 0.03080  0.20450  0.49100  Biso   1.000  H
  C11      1.0000 0.04160  0.13058  0.57250  Biso   1.000  C
  C12      1.0000 0.31223  0.52811  0.65036  Biso   1.000  C
  C13      1.0000 0.96343  0.92049  0.72036  Biso   1.000  C
  H6       1.0000 0.99180  0.89560  0.70760  Biso   1.000  H
  H7       1.0000 0.91020  0.89130  0.70750  Biso   1.000  H
  O6       1.0000 0.89015  0.94853  0.61408  Biso   1.000  O
  O7       1.0000 0.91622  0.90987  0.54160  Biso   1.000  O
  O8       1.0000 0.50017  0.82296  0.69112  Biso   1.000  O
  O9       1.0000 0.40054  0.75143  0.64177  Biso   1.000  O
  O10      1.0000 0.42361  0.69608  0.55713  Biso   1.000  O
  C14      1.0000 0.78627  0.86766  0.56153  Biso   1.000  C
  C15      1.0000 0.73522  0.86762  0.59568  Biso   1.000  C
  H8       1.0000 0.75360  0.89610  0.62640  Biso   1.000  H
  C16      1.0000 0.65601  0.82637  0.58637  Biso   1.000  C
  C17      1.0000 0.60235  0.82423  0.62097  Biso   1.000  C
  H9       1.0000 0.62000  0.85280  0.65170  Biso   1.000  H
  C18      1.0000 0.52524  0.78250  0.61215  Biso   1.000  C
  C19      1.0000 0.49778  0.73969  0.56535  Biso   1.000  C
  C20      1.0000 0.54918  0.74064  0.53080  Biso   1.000  C
  H10      1.0000 0.53090  0.71140  0.50040  Biso   1.000  H
  C21      1.0000 0.62855  0.78415  0.53956  Biso   1.000  C
  C22      1.0000 0.68400  0.78610  0.50457  Biso   1.000  C
  H11      1.0000 0.66710  0.75880  0.47330  Biso   1.000  H
  C23      1.0000 0.75983  0.82598  0.51484  Biso   1.000  C
  H12      1.0000 0.79550  0.82630  0.49100  Biso   1.000  H
  C24      1.0000 0.86942  0.91102  0.57250  Biso   1.000  C
  C25      1.0000 0.47189  0.78412  0.65036  Biso   1.000  C
  C26      1.0000 0.07951  0.04294  0.72036  Biso   1.000  C
  H13      1.0000 0.10440  0.09620  0.70760  Biso   1.000  H
  H14      1.0000 0.10870  0.01890  0.70750  Biso   1.000  H
  O11      1.0000 0.05147  0.94162  0.61408  Biso   1.000  O
  O12      1.0000 0.09013  0.00635  0.54160  Biso   1.000  O
  O13      1.0000 0.17704  0.67721  0.69112  Biso   1.000  O
  O14      1.0000 0.24857  0.64911  0.64177  Biso   1.000  O
  O15      1.0000 0.30392  0.72753  0.55713  Biso   1.000  O
  C27      1.0000 0.13234  0.91861  0.56153  Biso   1.000  C
  C28      1.0000 0.13238  0.86760  0.59568  Biso   1.000  C
  H15      1.0000 0.10390  0.85750  0.62640  Biso   1.000  H
  C29      1.0000 0.17363  0.82964  0.58637  Biso   1.000  C
  C30      1.0000 0.17577  0.77812  0.62097  Biso   1.000  C
  H16      1.0000 0.14720  0.76720  0.65170  Biso   1.000  H
  C31      1.0000 0.21750  0.74274  0.61215  Biso   1.000  C
  C32      1.0000 0.26031  0.75809  0.56535  Biso   1.000  C
  C33      1.0000 0.25936  0.80854  0.53080  Biso   1.000  C
  H17      1.0000 0.28860  0.81950  0.50040  Biso   1.000  H
  C34      1.0000 0.21585  0.84440  0.53956  Biso   1.000  C
  C35      1.0000 0.21390  0.89790  0.50457  Biso   1.000  C
  H18      1.0000 0.24120  0.90830  0.47330  Biso   1.000  H
  C36      1.0000 0.17402  0.93385  0.51484  Biso   1.000  C
  H19      1.0000 0.17370  0.96920  0.49100  Biso   1.000  H
  C37      1.0000 0.08898  0.95840  0.57250  Biso   1.000  C
  C38      1.0000 0.21588  0.68777  0.65036  Biso   1.000  C
  C39      1.0000 0.95706  0.03657  0.72036  Biso   1.000  C
  H20      1.0000 0.90380  0.00820  0.70760  Biso   1.000  H
  H21      1.0000 0.98110  0.08980  0.70750  Biso   1.000  H
  O16      1.0000 0.94162  0.89015  0.11408  Biso   1.000  O
  O17      1.0000 0.00635  0.91622  0.04160  Biso   1.000  O
  O18      1.0000 0.67721  0.50017  0.19112  Biso   1.000  O
  O19      1.0000 0.64911  0.40054  0.14177  Biso   1.000  O
  O20      1.0000 0.72753  0.42361  0.05713  Biso   1.000  O
  C40      1.0000 0.91861  0.78627  0.06153  Biso   1.000  C
  C41      1.0000 0.86760  0.73522  0.09568  Biso   1.000  C
  H22      1.0000 0.85750  0.75360  0.12640  Biso   1.000  H
  C42      1.0000 0.82964  0.65601  0.08637  Biso   1.000  C
  C43      1.0000 0.77812  0.60235  0.12097  Biso   1.000  C
  H23      1.0000 0.76720  0.62000  0.15170  Biso   1.000  H
  C44      1.0000 0.74274  0.52524  0.11215  Biso   1.000  C
  C45      1.0000 0.75809  0.49778  0.06535  Biso   1.000  C
  C46      1.0000 0.80854  0.54918  0.03080  Biso   1.000  C
  H24      1.0000 0.81950  0.53090  0.00040  Biso   1.000  H
  C47      1.0000 0.84440  0.62855  0.03956  Biso   1.000  C
  C48      1.0000 0.89790  0.68400  0.00457  Biso   1.000  C
  H25      1.0000 0.90830  0.66710  0.97330  Biso   1.000  H
  C49      1.0000 0.93385  0.75983  0.01484  Biso   1.000  C
  H26      1.0000 0.96920  0.79550  0.99100  Biso   1.000  H
  C50      1.0000 0.95840  0.86942  0.07250  Biso   1.000  C
  C51      1.0000 0.68777  0.47189  0.15036  Biso   1.000  C
  C52      1.0000 0.03657  0.07951  0.22036  Biso   1.000  C
  H27      1.0000 0.00820  0.10440  0.20760  Biso   1.000  H
  H28      1.0000 0.08980  0.10870  0.20750  Biso   1.000  H
  O21      1.0000 0.10985  0.05147  0.11408  Biso   1.000  O
  O22      1.0000 0.08378  0.09013  0.04160  Biso   1.000  O
  O23      1.0000 0.49983  0.17704  0.19112  Biso   1.000  O
  O24      1.0000 0.59946  0.24857  0.14177  Biso   1.000  O
  O25      1.0000 0.57639  0.30392  0.05713  Biso   1.000  O
  C53      1.0000 0.21373  0.13234  0.06153  Biso   1.000  C
  C54      1.0000 0.26478  0.13238  0.09568  Biso   1.000  C
  H29      1.0000 0.24640  0.10390  0.12640  Biso   1.000  H
  C55      1.0000 0.34399  0.17363  0.08637  Biso   1.000  C
  C56      1.0000 0.39765  0.17577  0.12097  Biso   1.000  C
  H30      1.0000 0.38000  0.14720  0.15170  Biso   1.000  H
  C57      1.0000 0.47476  0.21750  0.11215  Biso   1.000  C
  C58      1.0000 0.50222  0.26031  0.06535  Biso   1.000  C
  C59      1.0000 0.45082  0.25936  0.03080  Biso   1.000  C
  H31      1.0000 0.46910  0.28860  0.00040  Biso   1.000  H
  C60      1.0000 0.37145  0.21585  0.03956  Biso   1.000  C
  C61      1.0000 0.31600  0.21390  0.00457  Biso   1.000  C
  H32      1.0000 0.33290  0.24120  0.97330  Biso   1.000  H
  C62      1.0000 0.24017  0.17402  0.01484  Biso   1.000  C
  H33      1.0000 0.20450  0.17370  0.99100  Biso   1.000  H
  C63      1.0000 0.13058  0.08898  0.07250  Biso   1.000  C
  C64      1.0000 0.52811  0.21588  0.15036  Biso   1.000  C
  C65      1.0000 0.92049  0.95706  0.22036  Biso   1.000  C
  H34      1.0000 0.89560  0.90380  0.20760  Biso   1.000  H
  H35      1.0000 0.89130  0.98110  0.20750  Biso   1.000  H
  O26      1.0000 0.94853  0.05838  0.11408  Biso   1.000  O
  O27      1.0000 0.90987  0.99365  0.04160  Biso   1.000  O
  O28      1.0000 0.82296  0.32279  0.19112  Biso   1.000  O
  O29      1.0000 0.75143  0.35089  0.14177  Biso   1.000  O
  O30      1.0000 0.69608  0.27247  0.05713  Biso   1.000  O
  C66      1.0000 0.86766  0.08139  0.06153  Biso   1.000  C
  C67      1.0000 0.86762  0.13240  0.09568  Biso   1.000  C
  H36      1.0000 0.89610  0.14250  0.12640  Biso   1.000  H
  C68      1.0000 0.82637  0.17036  0.08637  Biso   1.000  C
  C69      1.0000 0.82423  0.22188  0.12097  Biso   1.000  C
  H37      1.0000 0.85280  0.23280  0.15170  Biso   1.000  H
  C70      1.0000 0.78250  0.25726  0.11215  Biso   1.000  C
  C71      1.0000 0.73969  0.24191  0.06535  Biso   1.000  C
  C72      1.0000 0.74064  0.19146  0.03080  Biso   1.000  C
  H38      1.0000 0.71140  0.18050  0.00040  Biso   1.000  H
  C73      1.0000 0.78415  0.15560  0.03956  Biso   1.000  C
  C74      1.0000 0.78610  0.10210  0.00457  Biso   1.000  C
  H39      1.0000 0.75880  0.09170  0.97330  Biso   1.000  H
  C75      1.0000 0.82598  0.06615  0.01484  Biso   1.000  C
  H40      1.0000 0.82630  0.03080  0.99100  Biso   1.000  H
  C76      1.0000 0.91102  0.04160  0.07250  Biso   1.000  C
  C77      1.0000 0.78412  0.31223  0.15036  Biso   1.000  C
  C78      1.0000 0.04294  0.96343  0.22036  Biso   1.000  C
  H41      1.0000 0.09620  0.99180  0.20760  Biso   1.000  H
  H42      1.0000 0.01890  0.91020  0.20750  Biso   1.000  H
  O31      1.0000 0.94162  0.89015  0.38592  Biso   1.000  O
  O32      1.0000 0.00635  0.91622  0.45840  Biso   1.000  O
  O33      1.0000 0.67721  0.50017  0.30888  Biso   1.000  O
  O34      1.0000 0.64911  0.40054  0.35823  Biso   1.000  O
  O35      1.0000 0.72753  0.42361  0.44287  Biso   1.000  O
  C79      1.0000 0.91861  0.78627  0.43847  Biso   1.000  C
  C80      1.0000 0.86760  0.73522  0.40432  Biso   1.000  C
  H43      1.0000 0.85750  0.75360  0.37360  Biso   1.000  H
  C81      1.0000 0.82964  0.65601  0.41363  Biso   1.000  C
  C82      1.0000 0.77812  0.60235  0.37903  Biso   1.000  C
  H44      1.0000 0.76720  0.62000  0.34830  Biso   1.000  H
  C83      1.0000 0.74274  0.52524  0.38785  Biso   1.000  C
  C84      1.0000 0.75809  0.49778  0.43465  Biso   1.000  C
  C85      1.0000 0.80854  0.54918  0.46920  Biso   1.000  C
  H45      1.0000 0.81950  0.53090  0.49960  Biso   1.000  H
  C86      1.0000 0.84440  0.62855  0.46044  Biso   1.000  C
  C87      1.0000 0.89790  0.68400  0.49543  Biso   1.000  C
  H46      1.0000 0.90830  0.66710  0.52670  Biso   1.000  H
  C88      1.0000 0.93385  0.75983  0.48516  Biso   1.000  C
  H47      1.0000 0.96920  0.79550  0.50900  Biso   1.000  H
  C89      1.0000 0.95840  0.86942  0.42750  Biso   1.000  C
  C90      1.0000 0.68777  0.47189  0.34964  Biso   1.000  C
  C91      1.0000 0.03657  0.07951  0.27964  Biso   1.000  C
  H48      1.0000 0.00820  0.10440  0.29240  Biso   1.000  H
  H49      1.0000 0.08980  0.10870  0.29250  Biso   1.000  H
  O36      1.0000 0.10985  0.05147  0.38592  Biso   1.000  O
  O37      1.0000 0.08378  0.09013  0.45840  Biso   1.000  O
  O38      1.0000 0.49983  0.17704  0.30888  Biso   1.000  O
  O39      1.0000 0.59946  0.24857  0.35823  Biso   1.000  O
  O40      1.0000 0.57639  0.30392  0.44287  Biso   1.000  O
  C92      1.0000 0.21373  0.13234  0.43847  Biso   1.000  C
  C93      1.0000 0.26478  0.13238  0.40432  Biso   1.000  C
  H50      1.0000 0.24640  0.10390  0.37360  Biso   1.000  H
  C94      1.0000 0.34399  0.17363  0.41363  Biso   1.000  C
  C95      1.0000 0.39765  0.17577  0.37903  Biso   1.000  C
  H51      1.0000 0.38000  0.14720  0.34830  Biso   1.000  H
  C96      1.0000 0.47476  0.21750  0.38785  Biso   1.000  C
  C97      1.0000 0.50222  0.26031  0.43465  Biso   1.000  C
  C98      1.0000 0.45082  0.25936  0.46920  Biso   1.000  C
  H52      1.0000 0.46910  0.28860  0.49960  Biso   1.000  H
  C99      1.0000 0.37145  0.21585  0.46044  Biso   1.000  C
  C100     1.0000 0.31600  0.21390  0.49543  Biso   1.000  C
  H53      1.0000 0.33290  0.24120  0.52670  Biso   1.000  H
  C101     1.0000 0.24017  0.17402  0.48516  Biso   1.000  C
  H54      1.0000 0.20450  0.17370  0.50900  Biso   1.000  H
  C102     1.0000 0.13058  0.08898  0.42750  Biso   1.000  C
  C103     1.0000 0.52811  0.21588  0.34964  Biso   1.000  C
  C104     1.0000 0.92049  0.95706  0.27964  Biso   1.000  C
  H55      1.0000 0.89560  0.90380  0.29240  Biso   1.000  H
  H56      1.0000 0.89130  0.98110  0.29250  Biso   1.000  H
  O41      1.0000 0.94853  0.05838  0.38592  Biso   1.000  O
  O42      1.0000 0.90987  0.99365  0.45840  Biso   1.000  O
  O43      1.0000 0.82296  0.32279  0.30888  Biso   1.000  O
  O44      1.0000 0.75143  0.35089  0.35823  Biso   1.000  O
  O45      1.0000 0.69608  0.27247  0.44287  Biso   1.000  O
  C105     1.0000 0.86766  0.08139  0.43847  Biso   1.000  C
  C106     1.0000 0.86762  0.13240  0.40432  Biso   1.000  C
  H57      1.0000 0.89610  0.14250  0.37360  Biso   1.000  H
  C107     1.0000 0.82637  0.17036  0.41363  Biso   1.000  C
  C108     1.0000 0.82423  0.22188  0.37903  Biso   1.000  C
  H58      1.0000 0.85280  0.23280  0.34830  Biso   1.000  H
  C109     1.0000 0.78250  0.25726  0.38785  Biso   1.000  C
  C110     1.0000 0.73969  0.24191  0.43465  Biso   1.000  C
  C111     1.0000 0.74064  0.19146  0.46920  Biso   1.000  C
  H59      1.0000 0.71140  0.18050  0.49960  Biso   1.000  H
  C112     1.0000 0.78415  0.15560  0.46044  Biso   1.000  C
  C113     1.0000 0.78610  0.10210  0.49543  Biso   1.000  C
  H60      1.0000 0.75880  0.09170  0.52670  Biso   1.000  H
  C114     1.0000 0.82598  0.06615  0.48516  Biso   1.000  C
  H61      1.0000 0.82630  0.03080  0.50900  Biso   1.000  H
  C115     1.0000 0.91102  0.04160  0.42750  Biso   1.000  C
  C116     1.0000 0.78412  0.31223  0.34964  Biso   1.000  C
  C117     1.0000 0.04294  0.96343  0.27964  Biso   1.000  C
  H62      1.0000 0.09620  0.99180  0.29240  Biso   1.000  H
  H63      1.0000 0.01890  0.91020  0.29250  Biso   1.000  H
  O46      1.0000 0.05838  0.10985  0.88592  Biso   1.000  O
  O47      1.0000 0.99365  0.08378  0.95840  Biso   1.000  O
  O48      1.0000 0.32279  0.49983  0.80888  Biso   1.000  O
  O49      1.0000 0.35089  0.59946  0.85823  Biso   1.000  O
  O50      1.0000 0.27247  0.57639  0.94287  Biso   1.000  O
  C118     1.0000 0.08139  0.21373  0.93847  Biso   1.000  C
  C119     1.0000 0.13240  0.26478  0.90432  Biso   1.000  C
  H64      1.0000 0.14250  0.24640  0.87360  Biso   1.000  H
  C120     1.0000 0.17036  0.34399  0.91363  Biso   1.000  C
  C121     1.0000 0.22188  0.39765  0.87903  Biso   1.000  C
  H65      1.0000 0.23280  0.38000  0.84830  Biso   1.000  H
  C122     1.0000 0.25726  0.47476  0.88785  Biso   1.000  C
  C123     1.0000 0.24191  0.50222  0.93465  Biso   1.000  C
  C124     1.0000 0.19146  0.45082  0.96920  Biso   1.000  C
  H66      1.0000 0.18050  0.46910  0.99960  Biso   1.000  H
  C125     1.0000 0.15560  0.37145  0.96044  Biso   1.000  C
  C126     1.0000 0.10210  0.31600  0.99543  Biso   1.000  C
  H67      1.0000 0.09170  0.33290  0.02670  Biso   1.000  H
  C127     1.0000 0.06615  0.24017  0.98516  Biso   1.000  C
  H68      1.0000 0.03080  0.20450  0.00900  Biso   1.000  H
  C128     1.0000 0.04160  0.13058  0.92750  Biso   1.000  C
  C129     1.0000 0.31223  0.52811  0.84964  Biso   1.000  C
  C130     1.0000 0.96343  0.92049  0.77964  Biso   1.000  C
  H69      1.0000 0.99180  0.89560  0.79240  Biso   1.000  H
  H70      1.0000 0.91020  0.89130  0.79250  Biso   1.000  H
  O51      1.0000 0.89015  0.94853  0.88592  Biso   1.000  O
  O52      1.0000 0.91622  0.90987  0.95840  Biso   1.000  O
  O53      1.0000 0.50017  0.82296  0.80888  Biso   1.000  O
  O54      1.0000 0.40054  0.75143  0.85823  Biso   1.000  O
  O55      1.0000 0.42361  0.69608  0.94287  Biso   1.000  O
  C131     1.0000 0.78627  0.86766  0.93847  Biso   1.000  C
  C132     1.0000 0.73522  0.86762  0.90432  Biso   1.000  C
  H71      1.0000 0.75360  0.89610  0.87360  Biso   1.000  H
  C133     1.0000 0.65601  0.82637  0.91363  Biso   1.000  C
  C134     1.0000 0.60235  0.82423  0.87903  Biso   1.000  C
  H72      1.0000 0.62000  0.85280  0.84830  Biso   1.000  H
  C135     1.0000 0.52524  0.78250  0.88785  Biso   1.000  C
  C136     1.0000 0.49778  0.73969  0.93465  Biso   1.000  C
  C137     1.0000 0.54918  0.74064  0.96920  Biso   1.000  C
  H73      1.0000 0.53090  0.71140  0.99960  Biso   1.000  H
  C138     1.0000 0.62855  0.78415  0.96044  Biso   1.000  C
  C139     1.0000 0.68400  0.78610  0.99543  Biso   1.000  C
  H74      1.0000 0.66710  0.75880  0.02670  Biso   1.000  H
  C140     1.0000 0.75983  0.82598  0.98516  Biso   1.000  C
  H75      1.0000 0.79550  0.82630  0.00900  Biso   1.000  H
  C141     1.0000 0.86942  0.91102  0.92750  Biso   1.000  C
  C142     1.0000 0.47189  0.78412  0.84964  Biso   1.000  C
  C143     1.0000 0.07951  0.04294  0.77964  Biso   1.000  C
  H76      1.0000 0.10440  0.09620  0.79240  Biso   1.000  H
  H77      1.0000 0.10870  0.01890  0.79250  Biso   1.000  H
  O56      1.0000 0.05147  0.94162  0.88592  Biso   1.000  O
  O57      1.0000 0.09013  0.00635  0.95840  Biso   1.000  O
  O58      1.0000 0.17704  0.67721  0.80888  Biso   1.000  O
  O59      1.0000 0.24857  0.64911  0.85823  Biso   1.000  O
  O60      1.0000 0.30392  0.72753  0.94287  Biso   1.000  O
  C144     1.0000 0.13234  0.91861  0.93847  Biso   1.000  C
  C145     1.0000 0.13238  0.86760  0.90432  Biso   1.000  C
  H78      1.0000 0.10390  0.85750  0.87360  Biso   1.000  H
  C146     1.0000 0.17363  0.82964  0.91363  Biso   1.000  C
  C147     1.0000 0.17577  0.77812  0.87903  Biso   1.000  C
  H79      1.0000 0.14720  0.76720  0.84830  Biso   1.000  H
  C148     1.0000 0.21750  0.74274  0.88785  Biso   1.000  C
  C149     1.0000 0.26031  0.75809  0.93465  Biso   1.000  C
  C150     1.0000 0.25936  0.80854  0.96920  Biso   1.000  C
  H80      1.0000 0.28860  0.81950  0.99960  Biso   1.000  H
  C151     1.0000 0.21585  0.84440  0.96044  Biso   1.000  C
  C152     1.0000 0.21390  0.89790  0.99543  Biso   1.000  C
  H81      1.0000 0.24120  0.90830  0.02670  Biso   1.000  H
  C153     1.0000 0.17402  0.93385  0.98516  Biso   1.000  C
  H82      1.0000 0.17370  0.96920  0.00900  Biso   1.000  H
  C154     1.0000 0.08898  0.95840  0.92750  Biso   1.000  C
  C155     1.0000 0.21588  0.68777  0.84964  Biso   1.000  C
  C156     1.0000 0.95706  0.03657  0.77964  Biso   1.000  C
  H83      1.0000 0.90380  0.00820  0.79240  Biso   1.000  H
  H84      1.0000 0.98110  0.08980  0.79250  Biso   1.000  H
  Zn1      1.0000 0.00000  0.00000  0.62405  Biso   1.000  Zn
  N1       1.0000 0.00000  0.00000  0.70179  Biso   1.000  N
  Zn2      1.0000 0.00000  0.00000  0.12405  Biso   1.000  Zn
  N2       1.0000 0.00000  0.00000  0.20179  Biso   1.000  N
  Zn3      1.0000 0.00000  0.00000  0.37595  Biso   1.000  Zn
  N3       1.0000 0.00000  0.00000  0.29821  Biso   1.000  N
  Zn4      1.0000 0.00000  0.00000  0.87595  Biso   1.000  Zn
  N4       1.0000 0.00000  0.00000  0.79821  Biso   1.000  N
  Zn5      1.0000 0.00000  0.00000  0.50000  Biso   1.000  Zn
  Zn6      1.0000 0.00000  0.00000  0.00000  Biso   1.000  Zn
  Zn7      1.0000 0.37811  0.56537  0.75000  Biso   1.000  Zn
  O61      1.0000 0.39786  0.66881  0.75000  Biso   1.000  O
  Zn8      1.0000 0.43463  0.81274  0.75000  Biso   1.000  Zn
  O62      1.0000 0.33119  0.72905  0.75000  Biso   1.000  O
  Zn9      1.0000 0.18726  0.62189  0.75000  Biso   1.000  Zn
  O63      1.0000 0.27095  0.60214  0.75000  Biso   1.000  O
  Zn10     1.0000 0.62189  0.43463  0.25000  Biso   1.000  Zn
  O64      1.0000 0.60214  0.33119  0.25000  Biso   1.000  O
  Zn11     1.0000 0.56537  0.18726  0.25000  Biso   1.000  Zn
  O65      1.0000 0.66881  0.27095  0.25000  Biso   1.000  O
  Zn12     1.0000 0.81274  0.37811  0.25000  Biso   1.000  Zn
  O66      1.0000 0.72905  0.39786  0.25000  Biso   1.000  O
  Ti1      1.0000 0.33333  0.66667  0.59294  Biso   1.000  Ti
  Ti2      1.0000 0.66667  0.33333  0.09294  Biso   1.000  Ti
  Ti3      1.0000 0.66667  0.33333  0.40706  Biso   1.000  Ti
  Ti4      1.0000 0.33333  0.66667  0.90706  Biso   1.000  Ti
  C157     1.0000 0.33333  0.66667  0.75000  Biso   1.000  C
  C158     1.0000 0.66667  0.33333  0.25000  Biso   1.000  C
