data_image0
_cell_length_a       15.4676
_cell_length_b       13.1962
_cell_length_c       26.497
_cell_angle_alpha    90
_cell_angle_beta     98.729
_cell_angle_gamma    90

_symmetry_space_group_name_H-M    "P 1"
_symmetry_int_tables_number       1

loop_
  _symmetry_equiv_pos_as_xyz
  'x, y, z'

loop_
  _atom_site_label
  _atom_site_occupancy
  _atom_site_fract_x
  _atom_site_fract_y
  _atom_site_fract_z
  _atom_site_thermal_displace_type
  _atom_site_B_iso_or_equiv
  _atom_site_type_symbol
  Cd1      1.0000 0.25407  0.81505  0.23937  Biso   1.000  Cd
  Cd2      1.0000 0.21126  0.67755  0.34551  Biso   1.000  Cd
  C1       1.0000 0.60890  0.19020  0.21695  Biso   1.000  C
  O1       1.0000 0.35152  0.96140  0.25114  Biso   1.000  O
  O2       1.0000 0.29562  0.90350  0.17431  Biso   1.000  O
  C2       1.0000 0.34840  0.95830  0.20325  Biso   1.000  C
  C3       1.0000 0.00390  0.49930  0.10985  Biso   1.000  C
  O3       1.0000 0.81890  0.34300  0.17884  Biso   1.000  O
  C4       1.0000 0.41920  0.00380  0.12805  Biso   1.000  C
  H1       1.0000 0.37760  0.96330  0.10860  Biso   1.000  H
  C5       1.0000 0.06460  0.55920  0.14011  Biso   1.000  C
  H2       1.0000 0.10510  0.59650  0.12520  Biso   1.000  H
  O4       1.0000 0.60130  0.21400  0.26130  Biso   1.000  O
  C6       1.0000 0.54090  0.12600  0.18551  Biso   1.000  C
  O5       1.0000 0.67404  0.21870  0.19645  Biso   1.000  O
  C7       1.0000 0.87470  0.39270  0.20768  Biso   1.000  C
  C8       1.0000 0.41390  0.01920  0.17911  Biso   1.000  C
  O6       1.0000 0.53300  0.66150  0.09116  Biso   1.000  O
  C9       1.0000 0.54550  0.10830  0.13467  Biso   1.000  C
  H3       1.0000 0.59000  0.13790  0.11980  Biso   1.000  H
  C10      1.0000 0.48460  0.04710  0.10536  Biso   1.000  C
  C11      1.0000 0.94300  0.44980  0.18500  Biso   1.000  C
  C12      1.0000 0.47400  0.08150  0.20775  Biso   1.000  C
  H4       1.0000 0.47000  0.09380  0.24190  Biso   1.000  H
  C13      1.0000 0.00250  0.49780  0.05298  Biso   1.000  C
  C14      1.0000 0.49290  0.02300  0.05123  Biso   1.000  C
  O7       1.0000 0.53440  0.62000  0.99681  Biso   1.000  O
  C15      1.0000 0.06400  0.44260  0.03140  Biso   1.000  C
  C16      1.0000 0.00410  0.50990  0.21510  Biso   1.000  C
  H5       1.0000 0.00380  0.51360  0.25010  Biso   1.000  H
  C17      1.0000 0.93780  0.55440  0.02240  Biso   1.000  C
  C18      1.0000 0.12800  0.38150  0.06146  Biso   1.000  C
  H6       1.0000 0.12940  0.37920  0.09670  Biso   1.000  H
  O8       1.0000 0.87300  0.40120  0.25430  Biso   1.000  O
  C19      1.0000 0.94380  0.44380  0.13252  Biso   1.000  C
  H7       1.0000 0.90370  0.40230  0.11250  Biso   1.000  H
  C20      1.0000 0.52430  0.74440  0.05914  Biso   1.000  C
  C21      1.0000 0.52700  0.71950  0.00714  Biso   1.000  C
  C22      1.0000 0.06530  0.56410  0.19337  Biso   1.000  C
  C23      1.0000 0.18680  0.32680  0.03995  Biso   1.000  C
  C24      1.0000 0.50640  0.92250  0.03724  Biso   1.000  C
  C25      1.0000 0.87340  0.61290  0.04367  Biso   1.000  C
  H8       1.0000 0.87300  0.61150  0.07870  Biso   1.000  H
  C26      1.0000 0.52420  0.79590  0.97201  Biso   1.000  C
  H9       1.0000 0.53030  0.78000  0.93850  Biso   1.000  H
  C27      1.0000 0.51480  0.84190  0.07378  Biso   1.000  C
  H10      1.0000 0.51380  0.85640  0.10800  Biso   1.000  H
  C28      1.0000 0.48780  0.10120  0.01479  Biso   1.000  C
  C29      1.0000 0.53830  0.68280  0.14501  Biso   1.000  C
  H11      1.0000 0.48570  0.71600  0.15120  Biso   1.000  H
  H12      1.0000 0.58760  0.72590  0.15580  Biso   1.000  H
  H13      1.0000 0.54520  0.62040  0.16390  Biso   1.000  H
  O9       1.0000 0.24960  0.26410  0.06512  Biso   1.000  O
  C30      1.0000 0.18600  0.33070  0.98612  Biso   1.000  C
  O10      1.0000 0.24980  0.27250  0.96932  Biso   1.000  O
  O11      1.0000 0.17790  0.68550  0.20243  Biso   1.000  O
  O12      1.0000 0.12990  0.62920  0.27264  Biso   1.000  O
  C31      1.0000 0.12930  0.63130  0.22548  Biso   1.000  C
  C32      1.0000 0.53820  0.59290  0.94530  Biso   1.000  C
  H14      1.0000 0.48680  0.61730  0.92380  Biso   1.000  H
  H15      1.0000 0.54110  0.52050  0.94250  Biso   1.000  H
  H16      1.0000 0.58920  0.62260  0.93470  Biso   1.000  H
  C33      1.0000 0.25230  0.27560  0.91510  Biso   1.000  C
  H17      1.0000 0.19420  0.26730  0.89690  Biso   1.000  H
  H18      1.0000 0.28890  0.22190  0.90610  Biso   1.000  H
  H19      1.0000 0.27550  0.33960  0.90630  Biso   1.000  H
  C34      1.0000 0.25080  0.24750  0.11740  Biso   1.000  C
  H20      1.0000 0.19490  0.22240  0.12310  Biso   1.000  H
  H21      1.0000 0.26320  0.31000  0.13550  Biso   1.000  H
  H22      1.0000 0.29530  0.19860  0.12930  Biso   1.000  H
  Cd3      1.0000 0.74593  0.31505  0.26063  Biso   1.000  Cd
  Cd4      1.0000 0.78874  0.17755  0.15449  Biso   1.000  Cd
  C35      1.0000 0.39110  0.69020  0.28305  Biso   1.000  C
  O13      1.0000 0.64848  0.46140  0.24886  Biso   1.000  O
  O14      1.0000 0.70438  0.40350  0.32569  Biso   1.000  O
  C36      1.0000 0.65160  0.45830  0.29675  Biso   1.000  C
  C37      1.0000 0.99610  0.99930  0.39015  Biso   1.000  C
  O15      1.0000 0.18110  0.84300  0.32116  Biso   1.000  O
  C38      1.0000 0.58080  0.50380  0.37195  Biso   1.000  C
  H23      1.0000 0.62240  0.46330  0.39140  Biso   1.000  H
  C39      1.0000 0.93540  0.05920  0.35989  Biso   1.000  C
  H24      1.0000 0.89490  0.09650  0.37480  Biso   1.000  H
  O16      1.0000 0.39870  0.71400  0.23870  Biso   1.000  O
  C40      1.0000 0.45910  0.62600  0.31449  Biso   1.000  C
  O17      1.0000 0.32596  0.71870  0.30355  Biso   1.000  O
  C41      1.0000 0.12530  0.89270  0.29232  Biso   1.000  C
  C42      1.0000 0.58610  0.51920  0.32089  Biso   1.000  C
  O18      1.0000 0.46700  0.16150  0.40884  Biso   1.000  O
  C43      1.0000 0.45450  0.60830  0.36533  Biso   1.000  C
  H25      1.0000 0.41000  0.63790  0.38020  Biso   1.000  H
  C44      1.0000 0.51540  0.54710  0.39464  Biso   1.000  C
  C45      1.0000 0.05700  0.94980  0.31500  Biso   1.000  C
  C46      1.0000 0.52600  0.58150  0.29225  Biso   1.000  C
  H26      1.0000 0.53000  0.59380  0.25810  Biso   1.000  H
  C47      1.0000 0.99750  0.99780  0.44702  Biso   1.000  C
  C48      1.0000 0.50710  0.52300  0.44877  Biso   1.000  C
  O19      1.0000 0.46560  0.12000  0.50319  Biso   1.000  O
  C49      1.0000 0.93600  0.94260  0.46860  Biso   1.000  C
  C50      1.0000 0.99590  0.00990  0.28490  Biso   1.000  C
  H27      1.0000 0.99620  0.01360  0.24990  Biso   1.000  H
  C51      1.0000 0.06220  0.05440  0.47760  Biso   1.000  C
  C52      1.0000 0.87200  0.88150  0.43854  Biso   1.000  C
  H28      1.0000 0.87060  0.87920  0.40330  Biso   1.000  H
  O20      1.0000 0.12700  0.90120  0.24570  Biso   1.000  O
  C53      1.0000 0.05620  0.94380  0.36748  Biso   1.000  C
  H29      1.0000 0.09630  0.90230  0.38750  Biso   1.000  H
  C54      1.0000 0.47570  0.24440  0.44086  Biso   1.000  C
  C55      1.0000 0.47300  0.21950  0.49286  Biso   1.000  C
  C56      1.0000 0.93470  0.06410  0.30663  Biso   1.000  C
  C57      1.0000 0.81320  0.82680  0.46005  Biso   1.000  C
  C58      1.0000 0.49360  0.42250  0.46276  Biso   1.000  C
  C59      1.0000 0.12660  0.11290  0.45633  Biso   1.000  C
  H30      1.0000 0.12700  0.11150  0.42130  Biso   1.000  H
  C60      1.0000 0.47580  0.29590  0.52799  Biso   1.000  C
  H31      1.0000 0.46970  0.28000  0.56150  Biso   1.000  H
  C61      1.0000 0.48520  0.34190  0.42622  Biso   1.000  C
  H32      1.0000 0.48620  0.35640  0.39200  Biso   1.000  H
  C62      1.0000 0.51220  0.60120  0.48521  Biso   1.000  C
  C63      1.0000 0.46170  0.18280  0.35499  Biso   1.000  C
  H33      1.0000 0.51430  0.21600  0.34880  Biso   1.000  H
  H34      1.0000 0.41240  0.22590  0.34420  Biso   1.000  H
  H35      1.0000 0.45480  0.12040  0.33610  Biso   1.000  H
  O21      1.0000 0.75040  0.76410  0.43488  Biso   1.000  O
  C64      1.0000 0.81400  0.83070  0.51388  Biso   1.000  C
  O22      1.0000 0.75020  0.77250  0.53068  Biso   1.000  O
  O23      1.0000 0.82210  0.18550  0.29757  Biso   1.000  O
  O24      1.0000 0.87010  0.12920  0.22736  Biso   1.000  O
  C65      1.0000 0.87070  0.13130  0.27452  Biso   1.000  C
  C66      1.0000 0.46180  0.09290  0.55470  Biso   1.000  C
  H36      1.0000 0.51320  0.11730  0.57620  Biso   1.000  H
  H37      1.0000 0.45890  0.02050  0.55750  Biso   1.000  H
  H38      1.0000 0.41080  0.12260  0.56530  Biso   1.000  H
  C67      1.0000 0.74770  0.77560  0.58490  Biso   1.000  C
  H39      1.0000 0.80580  0.76730  0.60310  Biso   1.000  H
  H40      1.0000 0.71110  0.72190  0.59390  Biso   1.000  H
  H41      1.0000 0.72450  0.83960  0.59370  Biso   1.000  H
  C68      1.0000 0.74920  0.74750  0.38260  Biso   1.000  C
  H42      1.0000 0.80510  0.72240  0.37690  Biso   1.000  H
  H43      1.0000 0.73680  0.81000  0.36450  Biso   1.000  H
  H44      1.0000 0.70470  0.69860  0.37070  Biso   1.000  H
  Cd5      1.0000 0.74593  0.18495  0.76063  Biso   1.000  Cd
  Cd6      1.0000 0.78874  0.32245  0.65449  Biso   1.000  Cd
  C69      1.0000 0.39110  0.80980  0.78305  Biso   1.000  C
  O25      1.0000 0.64848  0.03860  0.74886  Biso   1.000  O
  O26      1.0000 0.70438  0.09650  0.82569  Biso   1.000  O
  C70      1.0000 0.65160  0.04170  0.79675  Biso   1.000  C
  C71      1.0000 0.99610  0.50070  0.89015  Biso   1.000  C
  O27      1.0000 0.18110  0.65700  0.82116  Biso   1.000  O
  C72      1.0000 0.58080  0.99620  0.87195  Biso   1.000  C
  H45      1.0000 0.62240  0.03670  0.89140  Biso   1.000  H
  C73      1.0000 0.93540  0.44080  0.85989  Biso   1.000  C
  H46      1.0000 0.89490  0.40350  0.87480  Biso   1.000  H
  O28      1.0000 0.39870  0.78600  0.73870  Biso   1.000  O
  C74      1.0000 0.45910  0.87400  0.81449  Biso   1.000  C
  O29      1.0000 0.32596  0.78130  0.80355  Biso   1.000  O
  C75      1.0000 0.12530  0.60730  0.79232  Biso   1.000  C
  C76      1.0000 0.58610  0.98080  0.82089  Biso   1.000  C
  O30      1.0000 0.46700  0.33850  0.90884  Biso   1.000  O
  C77      1.0000 0.45450  0.89170  0.86533  Biso   1.000  C
  H47      1.0000 0.41000  0.86210  0.88020  Biso   1.000  H
  C78      1.0000 0.51540  0.95290  0.89464  Biso   1.000  C
  C79      1.0000 0.05700  0.55020  0.81500  Biso   1.000  C
  C80      1.0000 0.52600  0.91850  0.79225  Biso   1.000  C
  H48      1.0000 0.53000  0.90620  0.75810  Biso   1.000  H
  C81      1.0000 0.99750  0.50220  0.94702  Biso   1.000  C
  C82      1.0000 0.50710  0.97700  0.94877  Biso   1.000  C
  O31      1.0000 0.46560  0.38000  0.00319  Biso   1.000  O
  C83      1.0000 0.93600  0.55740  0.96860  Biso   1.000  C
  C84      1.0000 0.99590  0.49010  0.78490  Biso   1.000  C
  H49      1.0000 0.99620  0.48640  0.74990  Biso   1.000  H
  C85      1.0000 0.06220  0.44560  0.97760  Biso   1.000  C
  C86      1.0000 0.87200  0.61850  0.93854  Biso   1.000  C
  H50      1.0000 0.87060  0.62080  0.90330  Biso   1.000  H
  O32      1.0000 0.12700  0.59880  0.74570  Biso   1.000  O
  C87      1.0000 0.05620  0.55620  0.86748  Biso   1.000  C
  H51      1.0000 0.09630  0.59770  0.88750  Biso   1.000  H
  C88      1.0000 0.47570  0.25560  0.94086  Biso   1.000  C
  C89      1.0000 0.47300  0.28050  0.99286  Biso   1.000  C
  C90      1.0000 0.93470  0.43590  0.80663  Biso   1.000  C
  C91      1.0000 0.81320  0.67320  0.96005  Biso   1.000  C
  C92      1.0000 0.49360  0.07750  0.96276  Biso   1.000  C
  C93      1.0000 0.12660  0.38710  0.95633  Biso   1.000  C
  H52      1.0000 0.12700  0.38850  0.92130  Biso   1.000  H
  C94      1.0000 0.47580  0.20410  0.02799  Biso   1.000  C
  H53      1.0000 0.46970  0.22000  0.06150  Biso   1.000  H
  C95      1.0000 0.48520  0.15810  0.92622  Biso   1.000  C
  H54      1.0000 0.48620  0.14360  0.89200  Biso   1.000  H
  C96      1.0000 0.51220  0.89880  0.98521  Biso   1.000  C
  C97      1.0000 0.46170  0.31720  0.85499  Biso   1.000  C
  H55      1.0000 0.51430  0.28400  0.84880  Biso   1.000  H
  H56      1.0000 0.41240  0.27410  0.84420  Biso   1.000  H
  H57      1.0000 0.45480  0.37960  0.83610  Biso   1.000  H
  O33      1.0000 0.75040  0.73590  0.93488  Biso   1.000  O
  C98      1.0000 0.81400  0.66930  0.01388  Biso   1.000  C
  O34      1.0000 0.75020  0.72750  0.03068  Biso   1.000  O
  O35      1.0000 0.82210  0.31450  0.79757  Biso   1.000  O
  O36      1.0000 0.87010  0.37080  0.72736  Biso   1.000  O
  C99      1.0000 0.87070  0.36870  0.77452  Biso   1.000  C
  C100     1.0000 0.46180  0.40710  0.05470  Biso   1.000  C
  H58      1.0000 0.51320  0.38270  0.07620  Biso   1.000  H
  H59      1.0000 0.45890  0.47950  0.05750  Biso   1.000  H
  H60      1.0000 0.41080  0.37740  0.06530  Biso   1.000  H
  C101     1.0000 0.74770  0.72440  0.08490  Biso   1.000  C
  H61      1.0000 0.80580  0.73270  0.10310  Biso   1.000  H
  H62      1.0000 0.71110  0.77810  0.09390  Biso   1.000  H
  H63      1.0000 0.72450  0.66040  0.09370  Biso   1.000  H
  C102     1.0000 0.74920  0.75250  0.88260  Biso   1.000  C
  H64      1.0000 0.80510  0.77760  0.87690  Biso   1.000  H
  H65      1.0000 0.73680  0.69000  0.86450  Biso   1.000  H
  H66      1.0000 0.70470  0.80140  0.87070  Biso   1.000  H
  Cd7      1.0000 0.25407  0.68495  0.73937  Biso   1.000  Cd
  Cd8      1.0000 0.21126  0.82245  0.84551  Biso   1.000  Cd
  C103     1.0000 0.60890  0.30980  0.71695  Biso   1.000  C
  O37      1.0000 0.35152  0.53860  0.75114  Biso   1.000  O
  O38      1.0000 0.29562  0.59650  0.67431  Biso   1.000  O
  C104     1.0000 0.34840  0.54170  0.70325  Biso   1.000  C
  C105     1.0000 0.00390  0.00070  0.60985  Biso   1.000  C
  O39      1.0000 0.81890  0.15700  0.67884  Biso   1.000  O
  C106     1.0000 0.41920  0.49620  0.62805  Biso   1.000  C
  H67      1.0000 0.37760  0.53670  0.60860  Biso   1.000  H
  C107     1.0000 0.06460  0.94080  0.64011  Biso   1.000  C
  H68      1.0000 0.10510  0.90350  0.62520  Biso   1.000  H
  O40      1.0000 0.60130  0.28600  0.76130  Biso   1.000  O
  C108     1.0000 0.54090  0.37400  0.68551  Biso   1.000  C
  O41      1.0000 0.67404  0.28130  0.69645  Biso   1.000  O
  C109     1.0000 0.87470  0.10730  0.70768  Biso   1.000  C
  C110     1.0000 0.41390  0.48080  0.67911  Biso   1.000  C
  O42      1.0000 0.53300  0.83850  0.59116  Biso   1.000  O
  C111     1.0000 0.54550  0.39170  0.63467  Biso   1.000  C
  H69      1.0000 0.59000  0.36210  0.61980  Biso   1.000  H
  C112     1.0000 0.48460  0.45290  0.60536  Biso   1.000  C
  C113     1.0000 0.94300  0.05020  0.68500  Biso   1.000  C
  C114     1.0000 0.47400  0.41850  0.70775  Biso   1.000  C
  H70      1.0000 0.47000  0.40620  0.74190  Biso   1.000  H
  C115     1.0000 0.00250  0.00220  0.55298  Biso   1.000  C
  C116     1.0000 0.49290  0.47700  0.55123  Biso   1.000  C
  O43      1.0000 0.53440  0.88000  0.49681  Biso   1.000  O
  C117     1.0000 0.06400  0.05740  0.53140  Biso   1.000  C
  C118     1.0000 0.00410  0.99010  0.71510  Biso   1.000  C
  H71      1.0000 0.00380  0.98640  0.75010  Biso   1.000  H
  C119     1.0000 0.93780  0.94560  0.52240  Biso   1.000  C
  C120     1.0000 0.12800  0.11850  0.56146  Biso   1.000  C
  H72      1.0000 0.12940  0.12080  0.59670  Biso   1.000  H
  O44      1.0000 0.87300  0.09880  0.75430  Biso   1.000  O
  C121     1.0000 0.94380  0.05620  0.63252  Biso   1.000  C
  H73      1.0000 0.90370  0.09770  0.61250  Biso   1.000  H
  C122     1.0000 0.52430  0.75560  0.55914  Biso   1.000  C
  C123     1.0000 0.52700  0.78050  0.50714  Biso   1.000  C
  C124     1.0000 0.06530  0.93590  0.69337  Biso   1.000  C
  C125     1.0000 0.18680  0.17320  0.53995  Biso   1.000  C
  C126     1.0000 0.50640  0.57750  0.53724  Biso   1.000  C
  C127     1.0000 0.87340  0.88710  0.54367  Biso   1.000  C
  H74      1.0000 0.87300  0.88850  0.57870  Biso   1.000  H
  C128     1.0000 0.52420  0.70410  0.47201  Biso   1.000  C
  H75      1.0000 0.53030  0.72000  0.43850  Biso   1.000  H
  C129     1.0000 0.51480  0.65810  0.57378  Biso   1.000  C
  H76      1.0000 0.51380  0.64360  0.60800  Biso   1.000  H
  C130     1.0000 0.48780  0.39880  0.51479  Biso   1.000  C
  C131     1.0000 0.53830  0.81720  0.64501  Biso   1.000  C
  H77      1.0000 0.48570  0.78400  0.65120  Biso   1.000  H
  H78      1.0000 0.58760  0.77410  0.65580  Biso   1.000  H
  H79      1.0000 0.54520  0.87960  0.66390  Biso   1.000  H
  O45      1.0000 0.24960  0.23590  0.56512  Biso   1.000  O
  C132     1.0000 0.18600  0.16930  0.48612  Biso   1.000  C
  O46      1.0000 0.24980  0.22750  0.46932  Biso   1.000  O
  O47      1.0000 0.17790  0.81450  0.70243  Biso   1.000  O
  O48      1.0000 0.12990  0.87080  0.77264  Biso   1.000  O
  C133     1.0000 0.12930  0.86870  0.72548  Biso   1.000  C
  C134     1.0000 0.53820  0.90710  0.44530  Biso   1.000  C
  H80      1.0000 0.48680  0.88270  0.42380  Biso   1.000  H
  H81      1.0000 0.54110  0.97950  0.44250  Biso   1.000  H
  H82      1.0000 0.58920  0.87740  0.43470  Biso   1.000  H
  C135     1.0000 0.25230  0.22440  0.41510  Biso   1.000  C
  H83      1.0000 0.19420  0.23270  0.39690  Biso   1.000  H
  H84      1.0000 0.28890  0.27810  0.40610  Biso   1.000  H
  H85      1.0000 0.27550  0.16040  0.40630  Biso   1.000  H
  C136     1.0000 0.25080  0.25250  0.61740  Biso   1.000  C
  H86      1.0000 0.19490  0.27760  0.62310  Biso   1.000  H
  H87      1.0000 0.26320  0.19000  0.63550  Biso   1.000  H
  H88      1.0000 0.29530  0.30140  0.62930  Biso   1.000  H
