data_image0
_cell_length_a       11.08
_cell_length_b       16.583
_cell_length_c       16.6
_cell_angle_alpha    68.533
_cell_angle_beta     89.208
_cell_angle_gamma    89.167

_symmetry_space_group_name_H-M    "P 1"
_symmetry_int_tables_number       1

loop_
  _symmetry_equiv_pos_as_xyz
  'x, y, z'

loop_
  _atom_site_label
  _atom_site_occupancy
  _atom_site_fract_x
  _atom_site_fract_y
  _atom_site_fract_z
  _atom_site_thermal_displace_type
  _atom_site_B_iso_or_equiv
  _atom_site_type_symbol
  Ni1      1.0000 0.64014  0.00459  0.49658  Biso   1.000  Ni
  Ni2      1.0000 0.49827  0.81226  0.50446  Biso   1.000  Ni
  O1       1.0000 0.35680  0.90845  0.62862  Biso   1.000  O
  C1       1.0000 0.10820  0.72170  0.48720  Biso   1.000  C
  H1       1.0000 0.18120  0.69350  0.48670  Biso   1.000  H
  C2       1.0000 0.03790  0.52040  0.57120  Biso   1.000  C
  C3       1.0000 0.00210  0.58570  0.49640  Biso   1.000  C
  C4       1.0000 0.03510  0.43100  0.57610  Biso   1.000  C
  C5       1.0000 0.40810  0.83610  0.66680  Biso   1.000  C
  C6       1.0000 0.39510  0.79730  0.76300  Biso   1.000  C
  C7       1.0000 0.57850  0.55690  0.93980  Biso   1.000  C
  C8       1.0000 0.42540  0.71100  0.80840  Biso   1.000  C
  H2       1.0000 0.44800  0.67610  0.77770  Biso   1.000  H
  C9       1.0000 0.46060  0.58370  0.94920  Biso   1.000  C
  O2       1.0000 0.85730  0.62830  0.80650  Biso   1.000  O
  C10      1.0000 0.00040  0.67740  0.49210  Biso   1.000  C
  C11      1.0000 0.06960  0.36540  0.65540  Biso   1.000  C
  H3       1.0000 0.06600  0.30790  0.65990  Biso   1.000  H
  C12      1.0000 0.07880  0.53520  0.64570  Biso   1.000  C
  H4       1.0000 0.08230  0.59190  0.64380  Biso   1.000  H
  O3       1.0000 0.15700  0.47900  0.79150  Biso   1.000  O
  C13      1.0000 0.61870  0.47280  0.99180  Biso   1.000  C
  O4       1.0000 0.93350  0.48190  0.91000  Biso   1.000  O
  C14      1.0000 0.42290  0.67540  0.89770  Biso   1.000  C
  C15      1.0000 0.35900  0.84850  0.80890  Biso   1.000  C
  H5       1.0000 0.33940  0.90650  0.77900  Biso   1.000  H
  O5       1.0000 0.31890  0.80585  0.48530  Biso   1.000  O
  C16      1.0000 0.11260  0.47050  0.71850  Biso   1.000  C
  O6       1.0000 0.13350  0.32280  0.80290  Biso   1.000  O
  C17      1.0000 0.38700  0.72960  0.94200  Biso   1.000  C
  H6       1.0000 0.38680  0.70760  0.00220  Biso   1.000  H
  C18      1.0000 0.10700  0.38210  0.72410  Biso   1.000  C
  C19      1.0000 0.74100  0.44700  0.98330  Biso   1.000  C
  H7       1.0000 0.76850  0.39270  0.01940  Biso   1.000  H
  C20      1.0000 0.66360  0.61180  0.87810  Biso   1.000  C
  H8       1.0000 0.64070  0.66830  0.84490  Biso   1.000  H
  C21      1.0000 0.31260  0.86730  0.95050  Biso   1.000  C
  C22      1.0000 0.77540  0.58370  0.86730  Biso   1.000  C
  C23      1.0000 0.81720  0.50090  0.92310  Biso   1.000  C
  C24      1.0000 0.80880  0.70500  0.73500  Biso   1.000  C
  H9       1.0000 0.86720  0.72420  0.68880  Biso   1.000  H
  H10      1.0000 0.79210  0.75080  0.75610  Biso   1.000  H
  H11      1.0000 0.73570  0.68960  0.71400  Biso   1.000  H
  O7       1.0000 0.28310  0.94700  0.90650  Biso   1.000  O
  H12      1.0000 0.26250  0.97110  0.93970  Biso   1.000  H
  C25      1.0000 0.16790  0.56560  0.78880  Biso   1.000  C
  H13      1.0000 0.22000  0.59750  0.74150  Biso   1.000  H
  H14      1.0000 0.20140  0.56470  0.84210  Biso   1.000  H
  H15      1.0000 0.08970  0.59290  0.78080  Biso   1.000  H
  O8       1.0000 0.30090  0.83410  0.02900  Biso   1.000  O
  C26      1.0000 0.97530  0.39680  0.96300  Biso   1.000  C
  H16      1.0000 0.06070  0.39240  0.95480  Biso   1.000  H
  H17      1.0000 0.93470  0.35430  0.94680  Biso   1.000  H
  H18      1.0000 0.95840  0.38690  0.02270  Biso   1.000  H
  C27      1.0000 0.35160  0.81530  0.89830  Biso   1.000  C
  C28      1.0000 0.11760  0.23430  0.81540  Biso   1.000  C
  H19      1.0000 0.17430  0.21790  0.77980  Biso   1.000  H
  H20      1.0000 0.03690  0.22590  0.79990  Biso   1.000  H
  H21      1.0000 0.13080  0.19920  0.87510  Biso   1.000  H
  C29      1.0000 0.89180  0.72040  0.49380  Biso   1.000  C
  H22      1.0000 0.81940  0.69160  0.49730  Biso   1.000  H
  C30      1.0000 0.88960  0.80550  0.49020  Biso   1.000  C
  C31      1.0000 0.99940  0.84820  0.48500  Biso   1.000  C
  H23      1.0000 0.99880  0.90510  0.48290  Biso   1.000  H
  C32      1.0000 0.10890  0.80730  0.48310  Biso   1.000  C
  O9       1.0000 0.47010  0.79492  0.63160  Biso   1.000  O
  O10      1.0000 0.50240  0.93993  0.46513  Biso   1.000  O
  H24      1.0000 0.50010  0.96150  0.40170  Biso   1.000  H
  O11      1.0000 0.22330  0.92800  0.47540  Biso   1.000  O
  C33      1.0000 0.77100  0.84820  0.49290  Biso   1.000  C
  O12      1.0000 0.76990  0.93023  0.46610  Biso   1.000  O
  O13      1.0000 0.68290  0.79949  0.52400  Biso   1.000  O
  C34      1.0000 0.22590  0.85060  0.48200  Biso   1.000  C
  Ni3      1.0000 0.35986  0.99541  0.50342  Biso   1.000  Ni
  Ni4      1.0000 0.50173  0.18774  0.49554  Biso   1.000  Ni
  O14      1.0000 0.64320  0.09155  0.37138  Biso   1.000  O
  C35      1.0000 0.89180  0.27830  0.51280  Biso   1.000  C
  H25      1.0000 0.81880  0.30650  0.51330  Biso   1.000  H
  C36      1.0000 0.96210  0.47960  0.42880  Biso   1.000  C
  C37      1.0000 0.99790  0.41430  0.50360  Biso   1.000  C
  C38      1.0000 0.96490  0.56900  0.42390  Biso   1.000  C
  C39      1.0000 0.59190  0.16390  0.33320  Biso   1.000  C
  C40      1.0000 0.60490  0.20270  0.23700  Biso   1.000  C
  C41      1.0000 0.42150  0.44310  0.06020  Biso   1.000  C
  C42      1.0000 0.57460  0.28900  0.19160  Biso   1.000  C
  H26      1.0000 0.55200  0.32390  0.22230  Biso   1.000  H
  C43      1.0000 0.53940  0.41630  0.05080  Biso   1.000  C
  O15      1.0000 0.14270  0.37170  0.19350  Biso   1.000  O
  C44      1.0000 0.99960  0.32260  0.50790  Biso   1.000  C
  C45      1.0000 0.93040  0.63460  0.34460  Biso   1.000  C
  H27      1.0000 0.93400  0.69210  0.34010  Biso   1.000  H
  C46      1.0000 0.92120  0.46480  0.35430  Biso   1.000  C
  H28      1.0000 0.91770  0.40810  0.35620  Biso   1.000  H
  O16      1.0000 0.84300  0.52100  0.20850  Biso   1.000  O
  C47      1.0000 0.38130  0.52720  0.00820  Biso   1.000  C
  O17      1.0000 0.06650  0.51810  0.09000  Biso   1.000  O
  C48      1.0000 0.57710  0.32460  0.10230  Biso   1.000  C
  C49      1.0000 0.64100  0.15150  0.19110  Biso   1.000  C
  H29      1.0000 0.66060  0.09350  0.22100  Biso   1.000  H
  O18      1.0000 0.68110  0.19415  0.51470  Biso   1.000  O
  C50      1.0000 0.88740  0.52950  0.28150  Biso   1.000  C
  O19      1.0000 0.86650  0.67720  0.19710  Biso   1.000  O
  C51      1.0000 0.61300  0.27040  0.05800  Biso   1.000  C
  H30      1.0000 0.61320  0.29240  0.99780  Biso   1.000  H
  C52      1.0000 0.89300  0.61790  0.27590  Biso   1.000  C
  C53      1.0000 0.25900  0.55300  0.01670  Biso   1.000  C
  H31      1.0000 0.23150  0.60730  0.98060  Biso   1.000  H
  C54      1.0000 0.33640  0.38820  0.12190  Biso   1.000  C
  H32      1.0000 0.35930  0.33170  0.15510  Biso   1.000  H
  C55      1.0000 0.68740  0.13270  0.04950  Biso   1.000  C
  C56      1.0000 0.22460  0.41630  0.13270  Biso   1.000  C
  C57      1.0000 0.18280  0.49910  0.07690  Biso   1.000  C
  C58      1.0000 0.19120  0.29500  0.26500  Biso   1.000  C
  H33      1.0000 0.13280  0.27580  0.31120  Biso   1.000  H
  H34      1.0000 0.20790  0.24920  0.24390  Biso   1.000  H
  H35      1.0000 0.26430  0.31040  0.28600  Biso   1.000  H
  O20      1.0000 0.71690  0.05300  0.09350  Biso   1.000  O
  H36      1.0000 0.73750  0.02890  0.06030  Biso   1.000  H
  C59      1.0000 0.83210  0.43440  0.21120  Biso   1.000  C
  H37      1.0000 0.78000  0.40250  0.25850  Biso   1.000  H
  H38      1.0000 0.79860  0.43530  0.15790  Biso   1.000  H
  H39      1.0000 0.91030  0.40710  0.21920  Biso   1.000  H
  O21      1.0000 0.69910  0.16590  0.97100  Biso   1.000  O
  C60      1.0000 0.02470  0.60320  0.03700  Biso   1.000  C
  H40      1.0000 0.93930  0.60760  0.04520  Biso   1.000  H
  H41      1.0000 0.06530  0.64570  0.05320  Biso   1.000  H
  H42      1.0000 0.04160  0.61310  0.97730  Biso   1.000  H
  C61      1.0000 0.64840  0.18470  0.10170  Biso   1.000  C
  C62      1.0000 0.88240  0.76570  0.18460  Biso   1.000  C
  H43      1.0000 0.82570  0.78210  0.22020  Biso   1.000  H
  H44      1.0000 0.96310  0.77410  0.20010  Biso   1.000  H
  H45      1.0000 0.86920  0.80080  0.12490  Biso   1.000  H
  C63      1.0000 0.10820  0.27960  0.50620  Biso   1.000  C
  H46      1.0000 0.18060  0.30840  0.50270  Biso   1.000  H
  C64      1.0000 0.11040  0.19450  0.50980  Biso   1.000  C
  C65      1.0000 0.00060  0.15180  0.51500  Biso   1.000  C
  H47      1.0000 0.00120  0.09490  0.51710  Biso   1.000  H
  C66      1.0000 0.89110  0.19270  0.51690  Biso   1.000  C
  O22      1.0000 0.52990  0.20508  0.36840  Biso   1.000  O
  O23      1.0000 0.49760  0.06007  0.53487  Biso   1.000  O
  H48      1.0000 0.49990  0.03850  0.59830  Biso   1.000  H
  O24      1.0000 0.77670  0.07200  0.52460  Biso   1.000  O
  C67      1.0000 0.22900  0.15180  0.50710  Biso   1.000  C
  O25      1.0000 0.23010  0.06977  0.53390  Biso   1.000  O
  O26      1.0000 0.31710  0.20051  0.47600  Biso   1.000  O
  C68      1.0000 0.77410  0.14940  0.51800  Biso   1.000  C
