data_image0
_cell_length_a       10.168
_cell_length_b       18.035
_cell_length_c       27.054
_cell_angle_alpha    90
_cell_angle_beta     99.321
_cell_angle_gamma    90

_symmetry_space_group_name_H-M    "P 1"
_symmetry_int_tables_number       1

loop_
  _symmetry_equiv_pos_as_xyz
  'x, y, z'

loop_
  _atom_site_label
  _atom_site_occupancy
  _atom_site_fract_x
  _atom_site_fract_y
  _atom_site_fract_z
  _atom_site_thermal_displace_type
  _atom_site_B_iso_or_equiv
  _atom_site_type_symbol
  Co1      1.0000 0.46930  0.69084  0.30951  Biso   1.000  Co
  Co2      1.0000 0.64085  0.76571  0.21691  Biso   1.000  Co
  O1       1.0000 0.35500  0.64781  0.35658  Biso   1.000  O
  O2       1.0000 0.24180  0.70493  0.29330  Biso   1.000  O
  O3       1.0000 0.65490  0.66851  0.33874  Biso   1.000  O
  O4       1.0000 0.56260  0.84480  0.25399  Biso   1.000  O
  C1       1.0000 0.75200  0.68330  0.31815  Biso   1.000  C
  C2       1.0000 0.24540  0.66760  0.33175  Biso   1.000  C
  O5       1.0000 0.74830  0.71696  0.27867  Biso   1.000  O
  C3       1.0000 0.12000  0.64740  0.35020  Biso   1.000  C
  C4       1.0000 0.12370  0.60270  0.39145  Biso   1.000  C
  H1       1.0000 0.20490  0.58350  0.40690  Biso   1.000  H
  C5       1.0000 0.50410  0.99710  0.44849  Biso   1.000  C
  O6       1.0000 0.48170  0.79715  0.31803  Biso   1.000  O
  C6       1.0000 0.88390  0.65710  0.34405  Biso   1.000  C
  O7       1.0000 0.54510  0.11749  0.24296  Biso   1.000  O
  C7       1.0000 0.52330  0.92265  0.31980  Biso   1.000  C
  C8       1.0000 0.89020  0.61430  0.38656  Biso   1.000  C
  H2       1.0000 0.81260  0.60450  0.39940  Biso   1.000  H
  C9       1.0000 0.51940  0.05416  0.31537  Biso   1.000  C
  C10      1.0000 0.08080  0.56320  0.50189  Biso   1.000  C
  C11      1.0000 0.00970  0.54000  0.45619  Biso   1.000  C
  C12      1.0000 0.99910  0.67390  0.32605  Biso   1.000  C
  H3       1.0000 0.99560  0.70330  0.29760  Biso   1.000  H
  C13      1.0000 0.00960  0.58570  0.41031  Biso   1.000  C
  C14      1.0000 0.50930  0.99390  0.39397  Biso   1.000  C
  C15      1.0000 0.52780  0.98710  0.29275  Biso   1.000  C
  H4       1.0000 0.53660  0.98490  0.25910  Biso   1.000  H
  C16      1.0000 0.51580  0.92679  0.36990  Biso   1.000  C
  H5       1.0000 0.51500  0.88320  0.38820  Biso   1.000  H
  C17      1.0000 0.52430  0.84890  0.29543  Biso   1.000  C
  C18      1.0000 0.06910  0.52290  0.54650  Biso   1.000  C
  C19      1.0000 0.51000  0.05830  0.36574  Biso   1.000  C
  H6       1.0000 0.50400  0.10430  0.38080  Biso   1.000  H
  O8       1.0000 0.06140  0.88900  0.42421  Biso   1.000  O
  O9       1.0000 0.30880  0.71110  0.55812  Biso   1.000  O
  C20      1.0000 0.61390  0.02420  0.48113  Biso   1.000  C
  O10      1.0000 0.28580  0.64080  0.63694  Biso   1.000  O
  C21      1.0000 0.16050  0.62880  0.50628  Biso   1.000  C
  H7       1.0000 0.16540  0.65710  0.47790  Biso   1.000  H
  C22      1.0000 0.39170  0.97220  0.46628  Biso   1.000  C
  C23      1.0000 0.13760  0.55080  0.59238  Biso   1.000  C
  H8       1.0000 0.12890  0.52660  0.62200  Biso   1.000  H
  C24      1.0000 0.28100  0.94310  0.43445  Biso   1.000  C
  H9       1.0000 0.28410  0.93930  0.40040  Biso   1.000  H
  C25      1.0000 0.22810  0.65020  0.55033  Biso   1.000  C
  O11      1.0000 0.95450  0.09350  0.48449  Biso   1.000  O
  C26      1.0000 0.73270  0.04580  0.46473  Biso   1.000  C
  H10      1.0000 0.73800  0.04180  0.43080  Biso   1.000  H
  O12      1.0000 0.48370  0.18283  0.30331  Biso   1.000  O
  C27      1.0000 0.16900  0.92010  0.45175  Biso   1.000  C
  C28      1.0000 0.21500  0.61120  0.59418  Biso   1.000  C
  C29      1.0000 0.83910  0.07210  0.49601  Biso   1.000  C
  C30      1.0000 0.32570  0.75270  0.51520  Biso   1.000  C
  H11      1.0000 0.37640  0.72430  0.49490  Biso   1.000  H
  H12      1.0000 0.37220  0.79790  0.52550  Biso   1.000  H
  H13      1.0000 0.24000  0.76420  0.49620  Biso   1.000  H
  C31      1.0000 0.96950  0.08650  0.43280  Biso   1.000  C
  H14      1.0000 0.90840  0.11970  0.41300  Biso   1.000  H
  H15      1.0000 0.05920  0.09980  0.42970  Biso   1.000  H
  H16      1.0000 0.95210  0.03660  0.42130  Biso   1.000  H
  C32      1.0000 0.06920  0.87120  0.37290  Biso   1.000  C
  H17      1.0000 0.11650  0.90980  0.35880  Biso   1.000  H
  H18      1.0000 0.98090  0.86700  0.35420  Biso   1.000  H
  H19      1.0000 0.11550  0.82500  0.37160  Biso   1.000  H
  C33      1.0000 0.27480  0.60260  0.68280  Biso   1.000  C
  H20      1.0000 0.31640  0.55480  0.68280  Biso   1.000  H
  H21      1.0000 0.18240  0.59640  0.68540  Biso   1.000  H
  H22      1.0000 0.31810  0.63100  0.71070  Biso   1.000  H
  C34      1.0000 0.51420  0.12430  0.28512  Biso   1.000  C
  O13      1.0000 0.80530  0.80620  0.20230  Biso   1.000  O
  H23      1.0000 0.80600  0.83170  0.17590  Biso   1.000  H
  H24      1.0000 0.87700  0.79970  0.22280  Biso   1.000  H
  O14      1.0000 0.77780  0.72550  0.17740  Biso   1.000  O
  H25      1.0000 0.83350  0.68490  0.19200  Biso   1.000  H
  H26      1.0000 0.75320  0.72320  0.14120  Biso   1.000  H
  Co3      1.0000 0.53070  0.19084  0.19049  Biso   1.000  Co
  Co4      1.0000 0.35915  0.26571  0.28309  Biso   1.000  Co
  O15      1.0000 0.64500  0.14781  0.14342  Biso   1.000  O
  O16      1.0000 0.75820  0.20493  0.20670  Biso   1.000  O
  O17      1.0000 0.34510  0.16851  0.16126  Biso   1.000  O
  O18      1.0000 0.43740  0.34480  0.24601  Biso   1.000  O
  C35      1.0000 0.24800  0.18330  0.18185  Biso   1.000  C
  C36      1.0000 0.75460  0.16760  0.16825  Biso   1.000  C
  O19      1.0000 0.25170  0.21696  0.22133  Biso   1.000  O
  C37      1.0000 0.88000  0.14740  0.14980  Biso   1.000  C
  C38      1.0000 0.87630  0.10270  0.10855  Biso   1.000  C
  H27      1.0000 0.79510  0.08350  0.09310  Biso   1.000  H
  C39      1.0000 0.49590  0.49710  0.05151  Biso   1.000  C
  O20      1.0000 0.51830  0.29715  0.18197  Biso   1.000  O
  C40      1.0000 0.11610  0.15710  0.15595  Biso   1.000  C
  O21      1.0000 0.45490  0.61749  0.25704  Biso   1.000  O
  C41      1.0000 0.47670  0.42265  0.18020  Biso   1.000  C
  C42      1.0000 0.10980  0.11430  0.11344  Biso   1.000  C
  H28      1.0000 0.18740  0.10450  0.10060  Biso   1.000  H
  C43      1.0000 0.48060  0.55416  0.18463  Biso   1.000  C
  C44      1.0000 0.91920  0.06320  0.99811  Biso   1.000  C
  C45      1.0000 0.99030  0.04000  0.04381  Biso   1.000  C
  C46      1.0000 0.00090  0.17390  0.17395  Biso   1.000  C
  H29      1.0000 0.00440  0.20330  0.20240  Biso   1.000  H
  C47      1.0000 0.99040  0.08570  0.08969  Biso   1.000  C
  C48      1.0000 0.49070  0.49390  0.10603  Biso   1.000  C
  C49      1.0000 0.47220  0.48710  0.20725  Biso   1.000  C
  H30      1.0000 0.46340  0.48490  0.24090  Biso   1.000  H
  C50      1.0000 0.48420  0.42679  0.13010  Biso   1.000  C
  H31      1.0000 0.48500  0.38320  0.11180  Biso   1.000  H
  C51      1.0000 0.47570  0.34890  0.20457  Biso   1.000  C
  C52      1.0000 0.93090  0.02290  0.95350  Biso   1.000  C
  C53      1.0000 0.49000  0.55830  0.13426  Biso   1.000  C
  H32      1.0000 0.49600  0.60430  0.11920  Biso   1.000  H
  O22      1.0000 0.93860  0.38900  0.07579  Biso   1.000  O
  O23      1.0000 0.69120  0.21110  0.94188  Biso   1.000  O
  C54      1.0000 0.38610  0.52420  0.01887  Biso   1.000  C
  O24      1.0000 0.71420  0.14080  0.86306  Biso   1.000  O
  C55      1.0000 0.83950  0.12880  0.99372  Biso   1.000  C
  H33      1.0000 0.83460  0.15710  0.02210  Biso   1.000  H
  C56      1.0000 0.60830  0.47220  0.03372  Biso   1.000  C
  C57      1.0000 0.86240  0.05080  0.90762  Biso   1.000  C
  H34      1.0000 0.87110  0.02660  0.87800  Biso   1.000  H
  C58      1.0000 0.71900  0.44310  0.06555  Biso   1.000  C
  H35      1.0000 0.71590  0.43930  0.09960  Biso   1.000  H
  C59      1.0000 0.77190  0.15020  0.94967  Biso   1.000  C
  O25      1.0000 0.04550  0.59350  0.01551  Biso   1.000  O
  C60      1.0000 0.26730  0.54580  0.03527  Biso   1.000  C
  H36      1.0000 0.26200  0.54180  0.06920  Biso   1.000  H
  O26      1.0000 0.51630  0.68283  0.19669  Biso   1.000  O
  C61      1.0000 0.83100  0.42010  0.04825  Biso   1.000  C
  C62      1.0000 0.78500  0.11120  0.90582  Biso   1.000  C
  C63      1.0000 0.16090  0.57210  0.00399  Biso   1.000  C
  C64      1.0000 0.67430  0.25270  0.98480  Biso   1.000  C
  H37      1.0000 0.62360  0.22430  0.00510  Biso   1.000  H
  H38      1.0000 0.62780  0.29790  0.97450  Biso   1.000  H
  H39      1.0000 0.76000  0.26420  0.00380  Biso   1.000  H
  C65      1.0000 0.03050  0.58650  0.06720  Biso   1.000  C
  H40      1.0000 0.09160  0.61970  0.08700  Biso   1.000  H
  H41      1.0000 0.94080  0.59980  0.07030  Biso   1.000  H
  H42      1.0000 0.04790  0.53660  0.07870  Biso   1.000  H
  C66      1.0000 0.93080  0.37120  0.12710  Biso   1.000  C
  H43      1.0000 0.88350  0.40980  0.14120  Biso   1.000  H
  H44      1.0000 0.01910  0.36700  0.14580  Biso   1.000  H
  H45      1.0000 0.88450  0.32500  0.12840  Biso   1.000  H
  C67      1.0000 0.72520  0.10260  0.81720  Biso   1.000  C
  H46      1.0000 0.68360  0.05480  0.81720  Biso   1.000  H
  H47      1.0000 0.81760  0.09640  0.81460  Biso   1.000  H
  H48      1.0000 0.68190  0.13100  0.78930  Biso   1.000  H
  C68      1.0000 0.48580  0.62430  0.21488  Biso   1.000  C
  O27      1.0000 0.19470  0.30620  0.29770  Biso   1.000  O
  H49      1.0000 0.19400  0.33170  0.32410  Biso   1.000  H
  H50      1.0000 0.12300  0.29970  0.27720  Biso   1.000  H
  O28      1.0000 0.22220  0.22550  0.32260  Biso   1.000  O
  H51      1.0000 0.16650  0.18490  0.30800  Biso   1.000  H
  H52      1.0000 0.24680  0.22320  0.35880  Biso   1.000  H
  Co5      1.0000 0.53070  0.30916  0.69049  Biso   1.000  Co
  Co6      1.0000 0.35915  0.23429  0.78309  Biso   1.000  Co
  O29      1.0000 0.64500  0.35219  0.64342  Biso   1.000  O
  O30      1.0000 0.75820  0.29507  0.70670  Biso   1.000  O
  O31      1.0000 0.34510  0.33149  0.66126  Biso   1.000  O
  O32      1.0000 0.43740  0.15520  0.74601  Biso   1.000  O
  C69      1.0000 0.24800  0.31670  0.68185  Biso   1.000  C
  C70      1.0000 0.75460  0.33240  0.66825  Biso   1.000  C
  O33      1.0000 0.25170  0.28304  0.72133  Biso   1.000  O
  C71      1.0000 0.88000  0.35260  0.64980  Biso   1.000  C
  C72      1.0000 0.87630  0.39730  0.60855  Biso   1.000  C
  H53      1.0000 0.79510  0.41650  0.59310  Biso   1.000  H
  C73      1.0000 0.49590  0.00290  0.55151  Biso   1.000  C
  O34      1.0000 0.51830  0.20285  0.68197  Biso   1.000  O
  C74      1.0000 0.11610  0.34290  0.65595  Biso   1.000  C
  O35      1.0000 0.45490  0.88251  0.75704  Biso   1.000  O
  C75      1.0000 0.47670  0.07735  0.68020  Biso   1.000  C
  C76      1.0000 0.10980  0.38570  0.61344  Biso   1.000  C
  H54      1.0000 0.18740  0.39550  0.60060  Biso   1.000  H
  C77      1.0000 0.48060  0.94584  0.68463  Biso   1.000  C
  C78      1.0000 0.91920  0.43680  0.49811  Biso   1.000  C
  C79      1.0000 0.99030  0.46000  0.54381  Biso   1.000  C
  C80      1.0000 0.00090  0.32610  0.67395  Biso   1.000  C
  H55      1.0000 0.00440  0.29670  0.70240  Biso   1.000  H
  C81      1.0000 0.99040  0.41430  0.58969  Biso   1.000  C
  C82      1.0000 0.49070  0.00610  0.60603  Biso   1.000  C
  C83      1.0000 0.47220  0.01290  0.70725  Biso   1.000  C
  H56      1.0000 0.46340  0.01510  0.74090  Biso   1.000  H
  C84      1.0000 0.48420  0.07321  0.63010  Biso   1.000  C
  H57      1.0000 0.48500  0.11680  0.61180  Biso   1.000  H
  C85      1.0000 0.47570  0.15110  0.70457  Biso   1.000  C
  C86      1.0000 0.93090  0.47710  0.45350  Biso   1.000  C
  C87      1.0000 0.49000  0.94170  0.63426  Biso   1.000  C
  H58      1.0000 0.49600  0.89570  0.61920  Biso   1.000  H
  O36      1.0000 0.93860  0.11100  0.57579  Biso   1.000  O
  O37      1.0000 0.69120  0.28890  0.44188  Biso   1.000  O
  C88      1.0000 0.38610  0.97580  0.51887  Biso   1.000  C
  O38      1.0000 0.71420  0.35920  0.36306  Biso   1.000  O
  C89      1.0000 0.83950  0.37120  0.49372  Biso   1.000  C
  H59      1.0000 0.83460  0.34290  0.52210  Biso   1.000  H
  C90      1.0000 0.60830  0.02780  0.53372  Biso   1.000  C
  C91      1.0000 0.86240  0.44920  0.40762  Biso   1.000  C
  H60      1.0000 0.87110  0.47340  0.37800  Biso   1.000  H
  C92      1.0000 0.71900  0.05690  0.56555  Biso   1.000  C
  H61      1.0000 0.71590  0.06070  0.59960  Biso   1.000  H
  C93      1.0000 0.77190  0.34980  0.44967  Biso   1.000  C
  O39      1.0000 0.04550  0.90650  0.51551  Biso   1.000  O
  C94      1.0000 0.26730  0.95420  0.53527  Biso   1.000  C
  H62      1.0000 0.26200  0.95820  0.56920  Biso   1.000  H
  O40      1.0000 0.51630  0.81717  0.69669  Biso   1.000  O
  C95      1.0000 0.83100  0.07990  0.54825  Biso   1.000  C
  C96      1.0000 0.78500  0.38880  0.40582  Biso   1.000  C
  C97      1.0000 0.16090  0.92790  0.50399  Biso   1.000  C
  C98      1.0000 0.67430  0.24730  0.48480  Biso   1.000  C
  H63      1.0000 0.62360  0.27570  0.50510  Biso   1.000  H
  H64      1.0000 0.62780  0.20210  0.47450  Biso   1.000  H
  H65      1.0000 0.76000  0.23580  0.50380  Biso   1.000  H
  C99      1.0000 0.03050  0.91350  0.56720  Biso   1.000  C
  H66      1.0000 0.09160  0.88030  0.58700  Biso   1.000  H
  H67      1.0000 0.94080  0.90020  0.57030  Biso   1.000  H
  H68      1.0000 0.04790  0.96340  0.57870  Biso   1.000  H
  C100     1.0000 0.93080  0.12880  0.62710  Biso   1.000  C
  H69      1.0000 0.88350  0.09020  0.64120  Biso   1.000  H
  H70      1.0000 0.01910  0.13300  0.64580  Biso   1.000  H
  H71      1.0000 0.88450  0.17500  0.62840  Biso   1.000  H
  C101     1.0000 0.72520  0.39740  0.31720  Biso   1.000  C
  H72      1.0000 0.68360  0.44520  0.31720  Biso   1.000  H
  H73      1.0000 0.81760  0.40360  0.31460  Biso   1.000  H
  H74      1.0000 0.68190  0.36900  0.28930  Biso   1.000  H
  C102     1.0000 0.48580  0.87570  0.71488  Biso   1.000  C
  O41      1.0000 0.19470  0.19380  0.79770  Biso   1.000  O
  H75      1.0000 0.19400  0.16830  0.82410  Biso   1.000  H
  H76      1.0000 0.12300  0.20030  0.77720  Biso   1.000  H
  O42      1.0000 0.22220  0.27450  0.82260  Biso   1.000  O
  H77      1.0000 0.16650  0.31510  0.80800  Biso   1.000  H
  H78      1.0000 0.24680  0.27680  0.85880  Biso   1.000  H
  Co7      1.0000 0.46930  0.80916  0.80951  Biso   1.000  Co
  Co8      1.0000 0.64085  0.73429  0.71691  Biso   1.000  Co
  O43      1.0000 0.35500  0.85219  0.85658  Biso   1.000  O
  O44      1.0000 0.24180  0.79507  0.79330  Biso   1.000  O
  O45      1.0000 0.65490  0.83149  0.83874  Biso   1.000  O
  O46      1.0000 0.56260  0.65520  0.75399  Biso   1.000  O
  C103     1.0000 0.75200  0.81670  0.81815  Biso   1.000  C
  C104     1.0000 0.24540  0.83240  0.83175  Biso   1.000  C
  O47      1.0000 0.74830  0.78304  0.77867  Biso   1.000  O
  C105     1.0000 0.12000  0.85260  0.85020  Biso   1.000  C
  C106     1.0000 0.12370  0.89730  0.89145  Biso   1.000  C
  H79      1.0000 0.20490  0.91650  0.90690  Biso   1.000  H
  C107     1.0000 0.50410  0.50290  0.94849  Biso   1.000  C
  O48      1.0000 0.48170  0.70285  0.81803  Biso   1.000  O
  C108     1.0000 0.88390  0.84290  0.84405  Biso   1.000  C
  O49      1.0000 0.54510  0.38251  0.74296  Biso   1.000  O
  C109     1.0000 0.52330  0.57735  0.81980  Biso   1.000  C
  C110     1.0000 0.89020  0.88570  0.88656  Biso   1.000  C
  H80      1.0000 0.81260  0.89550  0.89940  Biso   1.000  H
  C111     1.0000 0.51940  0.44584  0.81537  Biso   1.000  C
  C112     1.0000 0.08080  0.93680  0.00189  Biso   1.000  C
  C113     1.0000 0.00970  0.96000  0.95619  Biso   1.000  C
  C114     1.0000 0.99910  0.82610  0.82605  Biso   1.000  C
  H81      1.0000 0.99560  0.79670  0.79760  Biso   1.000  H
  C115     1.0000 0.00960  0.91430  0.91031  Biso   1.000  C
  C116     1.0000 0.50930  0.50610  0.89397  Biso   1.000  C
  C117     1.0000 0.52780  0.51290  0.79275  Biso   1.000  C
  H82      1.0000 0.53660  0.51510  0.75910  Biso   1.000  H
  C118     1.0000 0.51580  0.57321  0.86990  Biso   1.000  C
  H83      1.0000 0.51500  0.61680  0.88820  Biso   1.000  H
  C119     1.0000 0.52430  0.65110  0.79543  Biso   1.000  C
  C120     1.0000 0.06910  0.97710  0.04650  Biso   1.000  C
  C121     1.0000 0.51000  0.44170  0.86574  Biso   1.000  C
  H84      1.0000 0.50400  0.39570  0.88080  Biso   1.000  H
  O50      1.0000 0.06140  0.61100  0.92421  Biso   1.000  O
  O51      1.0000 0.30880  0.78890  0.05812  Biso   1.000  O
  C122     1.0000 0.61390  0.47580  0.98113  Biso   1.000  C
  O52      1.0000 0.28580  0.85920  0.13694  Biso   1.000  O
  C123     1.0000 0.16050  0.87120  0.00628  Biso   1.000  C
  H85      1.0000 0.16540  0.84290  0.97790  Biso   1.000  H
  C124     1.0000 0.39170  0.52780  0.96628  Biso   1.000  C
  C125     1.0000 0.13760  0.94920  0.09238  Biso   1.000  C
  H86      1.0000 0.12890  0.97340  0.12200  Biso   1.000  H
  C126     1.0000 0.28100  0.55690  0.93445  Biso   1.000  C
  H87      1.0000 0.28410  0.56070  0.90040  Biso   1.000  H
  C127     1.0000 0.22810  0.84980  0.05033  Biso   1.000  C
  O53      1.0000 0.95450  0.40650  0.98449  Biso   1.000  O
  C128     1.0000 0.73270  0.45420  0.96473  Biso   1.000  C
  H88      1.0000 0.73800  0.45820  0.93080  Biso   1.000  H
  O54      1.0000 0.48370  0.31717  0.80331  Biso   1.000  O
  C129     1.0000 0.16900  0.57990  0.95175  Biso   1.000  C
  C130     1.0000 0.21500  0.88880  0.09418  Biso   1.000  C
  C131     1.0000 0.83910  0.42790  0.99601  Biso   1.000  C
  C132     1.0000 0.32570  0.74730  0.01520  Biso   1.000  C
  H89      1.0000 0.37640  0.77570  0.99490  Biso   1.000  H
  H90      1.0000 0.37220  0.70210  0.02550  Biso   1.000  H
  H91      1.0000 0.24000  0.73580  0.99620  Biso   1.000  H
  C133     1.0000 0.96950  0.41350  0.93280  Biso   1.000  C
  H92      1.0000 0.90840  0.38030  0.91300  Biso   1.000  H
  H93      1.0000 0.05920  0.40020  0.92970  Biso   1.000  H
  H94      1.0000 0.95210  0.46340  0.92130  Biso   1.000  H
  C134     1.0000 0.06920  0.62880  0.87290  Biso   1.000  C
  H95      1.0000 0.11650  0.59020  0.85880  Biso   1.000  H
  H96      1.0000 0.98090  0.63300  0.85420  Biso   1.000  H
  H97      1.0000 0.11550  0.67500  0.87160  Biso   1.000  H
  C135     1.0000 0.27480  0.89740  0.18280  Biso   1.000  C
  H98      1.0000 0.31640  0.94520  0.18280  Biso   1.000  H
  H99      1.0000 0.18240  0.90360  0.18540  Biso   1.000  H
  H100     1.0000 0.31810  0.86900  0.21070  Biso   1.000  H
  C136     1.0000 0.51420  0.37570  0.78512  Biso   1.000  C
  O55      1.0000 0.80530  0.69380  0.70230  Biso   1.000  O
  H101     1.0000 0.80600  0.66830  0.67590  Biso   1.000  H
  H102     1.0000 0.87700  0.70030  0.72280  Biso   1.000  H
  O56      1.0000 0.77780  0.77450  0.67740  Biso   1.000  O
  H103     1.0000 0.83350  0.81510  0.69200  Biso   1.000  H
  H104     1.0000 0.75320  0.77680  0.64120  Biso   1.000  H
