data_image0
_cell_length_a       10.107
_cell_length_b       18.338
_cell_length_c       27.084
_cell_angle_alpha    90
_cell_angle_beta     99.285
_cell_angle_gamma    90

_symmetry_space_group_name_H-M    "P 1"
_symmetry_int_tables_number       1

loop_
  _symmetry_equiv_pos_as_xyz
  'x, y, z'

loop_
  _atom_site_label
  _atom_site_occupancy
  _atom_site_fract_x
  _atom_site_fract_y
  _atom_site_fract_z
  _atom_site_thermal_displace_type
  _atom_site_B_iso_or_equiv
  _atom_site_type_symbol
  Zn1      1.0000 0.46427  0.80393  0.30758  Biso   1.000  Zn
  Zn2      1.0000 0.63667  0.73013  0.21918  Biso   1.000  Zn
  O1       1.0000 0.64680  0.82958  0.33933  Biso   1.000  O
  O2       1.0000 0.48350  0.69871  0.31377  Biso   1.000  O
  C1       1.0000 0.88680  0.88177  0.38873  Biso   1.000  C
  H1       1.0000 0.80880  0.89330  0.40110  Biso   1.000  H
  C2       1.0000 0.87860  0.83738  0.34702  Biso   1.000  C
  O3       1.0000 0.56640  0.64691  0.25119  Biso   1.000  O
  O4       1.0000 0.74600  0.77277  0.28356  Biso   1.000  O
  C3       1.0000 0.99460  0.81919  0.32940  Biso   1.000  C
  H2       1.0000 0.99070  0.78900  0.30160  Biso   1.000  H
  C4       1.0000 0.50990  0.44396  0.31553  Biso   1.000  C
  C5       1.0000 0.74750  0.81040  0.32107  Biso   1.000  C
  C6       1.0000 0.50160  0.50493  0.44826  Biso   1.000  C
  C7       1.0000 0.52570  0.64519  0.29228  Biso   1.000  C
  C8       1.0000 0.07400  0.93470  0.50403  Biso   1.000  C
  C9       1.0000 0.00860  0.95720  0.45756  Biso   1.000  C
  O5       1.0000 0.29280  0.78713  0.56520  Biso   1.000  O
  C10      1.0000 0.11630  0.84550  0.35284  Biso   1.000  C
  C11      1.0000 0.06460  0.97730  0.54769  Biso   1.000  C
  C12      1.0000 0.50070  0.44277  0.36595  Biso   1.000  C
  H3       1.0000 0.49050  0.39850  0.38160  Biso   1.000  H
  C13      1.0000 0.00760  0.90950  0.41251  Biso   1.000  C
  C14      1.0000 0.50650  0.50727  0.39349  Biso   1.000  C
  C15      1.0000 0.52230  0.57361  0.31818  Biso   1.000  C
  C16      1.0000 0.51300  0.57191  0.36805  Biso   1.000  C
  H4       1.0000 0.51110  0.61570  0.38530  Biso   1.000  H
  C17      1.0000 0.12340  0.89090  0.39433  Biso   1.000  C
  H5       1.0000 0.20590  0.90880  0.40980  Biso   1.000  H
  C18      1.0000 0.61310  0.47673  0.48071  Biso   1.000  C
  C19      1.0000 0.52470  0.50925  0.29211  Biso   1.000  C
  H6       1.0000 0.53620  0.51000  0.25870  Biso   1.000  H
  C20      1.0000 0.38990  0.52919  0.46752  Biso   1.000  C
  C21      1.0000 0.15050  0.86850  0.51082  Biso   1.000  C
  H7       1.0000 0.15560  0.83920  0.48320  Biso   1.000  H
  C22      1.0000 0.73360  0.45620  0.46289  Biso   1.000  C
  H8       1.0000 0.73880  0.46230  0.42920  Biso   1.000  H
  O6       1.0000 0.05990  0.61570  0.42883  Biso   1.000  O
  C23      1.0000 0.20120  0.88870  0.59945  Biso   1.000  C
  C24      1.0000 0.27560  0.56030  0.43582  Biso   1.000  C
  H9       1.0000 0.27700  0.56560  0.40180  Biso   1.000  H
  C25      1.0000 0.12920  0.95070  0.59530  Biso   1.000  C
  H10      1.0000 0.12100  0.97690  0.62400  Biso   1.000  H
  C26      1.0000 0.21500  0.84760  0.55590  Biso   1.000  C
  O7       1.0000 0.95680  0.40830  0.48040  Biso   1.000  O
  C27      1.0000 0.96880  0.42210  0.42870  Biso   1.000  C
  H11      1.0000 0.90780  0.39120  0.40730  Biso   1.000  H
  H12      1.0000 0.05890  0.41220  0.42370  Biso   1.000  H
  H13      1.0000 0.94760  0.47220  0.42080  Biso   1.000  H
  C28      1.0000 0.83870  0.42880  0.49328  Biso   1.000  C
  C29      1.0000 0.30790  0.74350  0.52280  Biso   1.000  C
  H14      1.0000 0.33800  0.77350  0.49780  Biso   1.000  H
  H15      1.0000 0.22320  0.72180  0.50930  Biso   1.000  H
  H16      1.0000 0.37250  0.70570  0.53280  Biso   1.000  H
  C30      1.0000 0.16790  0.58170  0.45464  Biso   1.000  C
  O8       1.0000 0.35330  0.84565  0.35613  Biso   1.000  O
  O9       1.0000 0.23550  0.78669  0.29485  Biso   1.000  O
  O10      1.0000 0.55180  0.37242  0.24843  Biso   1.000  O
  C31      1.0000 0.24170  0.82410  0.33300  Biso   1.000  C
  O11      1.0000 0.44230  0.32323  0.30357  Biso   1.000  O
  C32      1.0000 0.06540  0.63940  0.37900  Biso   1.000  C
  H17      1.0000 0.07470  0.59780  0.35830  Biso   1.000  H
  H18      1.0000 0.14080  0.67130  0.37920  Biso   1.000  H
  H19      1.0000 0.98440  0.66500  0.36610  Biso   1.000  H
  C33      1.0000 0.50050  0.37380  0.28674  Biso   1.000  C
  O12      1.0000 0.26630  0.86003  0.64279  Biso   1.000  O
  C34      1.0000 0.24520  0.89530  0.68812  Biso   1.000  C
  H20      1.0000 0.15080  0.90050  0.68820  Biso   1.000  H
  H21      1.0000 0.28650  0.94260  0.69010  Biso   1.000  H
  H22      1.0000 0.28430  0.86650  0.71630  Biso   1.000  H
  Zn3      1.0000 0.53573  0.30393  0.19242  Biso   1.000  Zn
  Zn4      1.0000 0.36333  0.23013  0.28082  Biso   1.000  Zn
  O13      1.0000 0.35320  0.32958  0.16067  Biso   1.000  O
  O14      1.0000 0.51650  0.19871  0.18623  Biso   1.000  O
  C35      1.0000 0.11320  0.38177  0.11127  Biso   1.000  C
  H23      1.0000 0.19120  0.39330  0.09890  Biso   1.000  H
  C36      1.0000 0.12140  0.33738  0.15298  Biso   1.000  C
  O15      1.0000 0.43360  0.14691  0.24881  Biso   1.000  O
  O16      1.0000 0.25400  0.27277  0.21644  Biso   1.000  O
  C37      1.0000 0.00540  0.31919  0.17060  Biso   1.000  C
  H24      1.0000 0.00930  0.28900  0.19840  Biso   1.000  H
  C38      1.0000 0.49010  0.94396  0.18447  Biso   1.000  C
  C39      1.0000 0.25250  0.31040  0.17893  Biso   1.000  C
  C40      1.0000 0.49840  0.00493  0.05174  Biso   1.000  C
  C41      1.0000 0.47430  0.14519  0.20772  Biso   1.000  C
  C42      1.0000 0.92600  0.43470  0.99597  Biso   1.000  C
  C43      1.0000 0.99140  0.45720  0.04244  Biso   1.000  C
  O17      1.0000 0.70720  0.28713  0.93480  Biso   1.000  O
  C44      1.0000 0.88370  0.34550  0.14716  Biso   1.000  C
  C45      1.0000 0.93540  0.47730  0.95231  Biso   1.000  C
  C46      1.0000 0.49930  0.94277  0.13405  Biso   1.000  C
  H25      1.0000 0.50950  0.89850  0.11840  Biso   1.000  H
  C47      1.0000 0.99240  0.40950  0.08749  Biso   1.000  C
  C48      1.0000 0.49350  0.00727  0.10651  Biso   1.000  C
  C49      1.0000 0.47770  0.07361  0.18182  Biso   1.000  C
  C50      1.0000 0.48700  0.07191  0.13195  Biso   1.000  C
  H26      1.0000 0.48890  0.11570  0.11470  Biso   1.000  H
  C51      1.0000 0.87660  0.39090  0.10567  Biso   1.000  C
  H27      1.0000 0.79410  0.40880  0.09020  Biso   1.000  H
  C52      1.0000 0.38690  0.97673  0.01929  Biso   1.000  C
  C53      1.0000 0.47530  0.00925  0.20789  Biso   1.000  C
  H28      1.0000 0.46380  0.01000  0.24130  Biso   1.000  H
  C54      1.0000 0.61010  0.02919  0.03248  Biso   1.000  C
  C55      1.0000 0.84950  0.36850  0.98918  Biso   1.000  C
  H29      1.0000 0.84440  0.33920  0.01680  Biso   1.000  H
  C56      1.0000 0.26640  0.95620  0.03711  Biso   1.000  C
  H30      1.0000 0.26120  0.96230  0.07080  Biso   1.000  H
  O18      1.0000 0.94010  0.11570  0.07117  Biso   1.000  O
  C57      1.0000 0.79880  0.38870  0.90055  Biso   1.000  C
  C58      1.0000 0.72440  0.06030  0.06418  Biso   1.000  C
  H31      1.0000 0.72300  0.06560  0.09820  Biso   1.000  H
  C59      1.0000 0.87080  0.45070  0.90470  Biso   1.000  C
  H32      1.0000 0.87900  0.47690  0.87600  Biso   1.000  H
  C60      1.0000 0.78500  0.34760  0.94410  Biso   1.000  C
  O19      1.0000 0.04320  0.90830  0.01960  Biso   1.000  O
  C61      1.0000 0.03120  0.92210  0.07130  Biso   1.000  C
  H33      1.0000 0.09220  0.89120  0.09270  Biso   1.000  H
  H34      1.0000 0.94110  0.91220  0.07630  Biso   1.000  H
  H35      1.0000 0.05240  0.97220  0.07920  Biso   1.000  H
  C62      1.0000 0.16130  0.92880  0.00672  Biso   1.000  C
  C63      1.0000 0.69210  0.24350  0.97720  Biso   1.000  C
  H36      1.0000 0.66200  0.27350  0.00220  Biso   1.000  H
  H37      1.0000 0.77680  0.22180  0.99070  Biso   1.000  H
  H38      1.0000 0.62750  0.20570  0.96720  Biso   1.000  H
  C64      1.0000 0.83210  0.08170  0.04536  Biso   1.000  C
  O20      1.0000 0.64670  0.34565  0.14387  Biso   1.000  O
  O21      1.0000 0.76450  0.28669  0.20515  Biso   1.000  O
  O22      1.0000 0.44820  0.87242  0.25157  Biso   1.000  O
  C65      1.0000 0.75830  0.32410  0.16700  Biso   1.000  C
  O23      1.0000 0.55770  0.82323  0.19643  Biso   1.000  O
  C66      1.0000 0.93460  0.13940  0.12100  Biso   1.000  C
  H39      1.0000 0.92530  0.09780  0.14170  Biso   1.000  H
  H40      1.0000 0.85920  0.17130  0.12080  Biso   1.000  H
  H41      1.0000 0.01560  0.16500  0.13390  Biso   1.000  H
  C67      1.0000 0.49950  0.87380  0.21326  Biso   1.000  C
  O24      1.0000 0.73370  0.36003  0.85721  Biso   1.000  O
  C68      1.0000 0.75480  0.39530  0.81188  Biso   1.000  C
  H42      1.0000 0.84920  0.40050  0.81180  Biso   1.000  H
  H43      1.0000 0.71350  0.44260  0.80990  Biso   1.000  H
  H44      1.0000 0.71570  0.36650  0.78370  Biso   1.000  H
  Zn5      1.0000 0.53573  0.19607  0.69242  Biso   1.000  Zn
  Zn6      1.0000 0.36333  0.26987  0.78082  Biso   1.000  Zn
  O25      1.0000 0.35320  0.17042  0.66067  Biso   1.000  O
  O26      1.0000 0.51650  0.30129  0.68623  Biso   1.000  O
  C69      1.0000 0.11320  0.11823  0.61127  Biso   1.000  C
  H45      1.0000 0.19120  0.10670  0.59890  Biso   1.000  H
  C70      1.0000 0.12140  0.16262  0.65298  Biso   1.000  C
  O27      1.0000 0.43360  0.35309  0.74881  Biso   1.000  O
  O28      1.0000 0.25400  0.22723  0.71644  Biso   1.000  O
  C71      1.0000 0.00540  0.18081  0.67060  Biso   1.000  C
  H46      1.0000 0.00930  0.21100  0.69840  Biso   1.000  H
  C72      1.0000 0.49010  0.55604  0.68447  Biso   1.000  C
  C73      1.0000 0.25250  0.18960  0.67893  Biso   1.000  C
  C74      1.0000 0.49840  0.49507  0.55174  Biso   1.000  C
  C75      1.0000 0.47430  0.35481  0.70772  Biso   1.000  C
  C76      1.0000 0.92600  0.06530  0.49597  Biso   1.000  C
  C77      1.0000 0.99140  0.04280  0.54244  Biso   1.000  C
  O29      1.0000 0.70720  0.21287  0.43480  Biso   1.000  O
  C78      1.0000 0.88370  0.15450  0.64716  Biso   1.000  C
  C79      1.0000 0.93540  0.02270  0.45231  Biso   1.000  C
  C80      1.0000 0.49930  0.55723  0.63405  Biso   1.000  C
  H47      1.0000 0.50950  0.60150  0.61840  Biso   1.000  H
  C81      1.0000 0.99240  0.09050  0.58749  Biso   1.000  C
  C82      1.0000 0.49350  0.49273  0.60651  Biso   1.000  C
  C83      1.0000 0.47770  0.42639  0.68182  Biso   1.000  C
  C84      1.0000 0.48700  0.42809  0.63195  Biso   1.000  C
  H48      1.0000 0.48890  0.38430  0.61470  Biso   1.000  H
  C85      1.0000 0.87660  0.10910  0.60567  Biso   1.000  C
  H49      1.0000 0.79410  0.09120  0.59020  Biso   1.000  H
  C86      1.0000 0.38690  0.52327  0.51929  Biso   1.000  C
  C87      1.0000 0.47530  0.49075  0.70789  Biso   1.000  C
  H50      1.0000 0.46380  0.49000  0.74130  Biso   1.000  H
  C88      1.0000 0.61010  0.47081  0.53248  Biso   1.000  C
  C89      1.0000 0.84950  0.13150  0.48918  Biso   1.000  C
  H51      1.0000 0.84440  0.16080  0.51680  Biso   1.000  H
  C90      1.0000 0.26640  0.54380  0.53711  Biso   1.000  C
  H52      1.0000 0.26120  0.53770  0.57080  Biso   1.000  H
  O30      1.0000 0.94010  0.38430  0.57117  Biso   1.000  O
  C91      1.0000 0.79880  0.11130  0.40055  Biso   1.000  C
  C92      1.0000 0.72440  0.43970  0.56418  Biso   1.000  C
  H53      1.0000 0.72300  0.43440  0.59820  Biso   1.000  H
  C93      1.0000 0.87080  0.04930  0.40470  Biso   1.000  C
  H54      1.0000 0.87900  0.02310  0.37600  Biso   1.000  H
  C94      1.0000 0.78500  0.15240  0.44410  Biso   1.000  C
  O31      1.0000 0.04320  0.59170  0.51960  Biso   1.000  O
  C95      1.0000 0.03120  0.57790  0.57130  Biso   1.000  C
  H55      1.0000 0.09220  0.60880  0.59270  Biso   1.000  H
  H56      1.0000 0.94110  0.58780  0.57630  Biso   1.000  H
  H57      1.0000 0.05240  0.52780  0.57920  Biso   1.000  H
  C96      1.0000 0.16130  0.57120  0.50672  Biso   1.000  C
  C97      1.0000 0.69210  0.25650  0.47720  Biso   1.000  C
  H58      1.0000 0.66200  0.22650  0.50220  Biso   1.000  H
  H59      1.0000 0.77680  0.27820  0.49070  Biso   1.000  H
  H60      1.0000 0.62750  0.29430  0.46720  Biso   1.000  H
  C98      1.0000 0.83210  0.41830  0.54536  Biso   1.000  C
  O32      1.0000 0.64670  0.15435  0.64387  Biso   1.000  O
  O33      1.0000 0.76450  0.21331  0.70515  Biso   1.000  O
  O34      1.0000 0.44820  0.62758  0.75157  Biso   1.000  O
  C99      1.0000 0.75830  0.17590  0.66700  Biso   1.000  C
  O35      1.0000 0.55770  0.67677  0.69643  Biso   1.000  O
  C100     1.0000 0.93460  0.36060  0.62100  Biso   1.000  C
  H61      1.0000 0.92530  0.40220  0.64170  Biso   1.000  H
  H62      1.0000 0.85920  0.32870  0.62080  Biso   1.000  H
  H63      1.0000 0.01560  0.33500  0.63390  Biso   1.000  H
  C101     1.0000 0.49950  0.62620  0.71326  Biso   1.000  C
  O36      1.0000 0.73370  0.13997  0.35721  Biso   1.000  O
  C102     1.0000 0.75480  0.10470  0.31188  Biso   1.000  C
  H64      1.0000 0.84920  0.09950  0.31180  Biso   1.000  H
  H65      1.0000 0.71350  0.05740  0.30990  Biso   1.000  H
  H66      1.0000 0.71570  0.13350  0.28370  Biso   1.000  H
  Zn7      1.0000 0.46427  0.69607  0.80758  Biso   1.000  Zn
  Zn8      1.0000 0.63667  0.76987  0.71918  Biso   1.000  Zn
  O37      1.0000 0.64680  0.67042  0.83933  Biso   1.000  O
  O38      1.0000 0.48350  0.80129  0.81377  Biso   1.000  O
  C103     1.0000 0.88680  0.61823  0.88873  Biso   1.000  C
  H67      1.0000 0.80880  0.60670  0.90110  Biso   1.000  H
  C104     1.0000 0.87860  0.66262  0.84702  Biso   1.000  C
  O39      1.0000 0.56640  0.85309  0.75119  Biso   1.000  O
  O40      1.0000 0.74600  0.72723  0.78356  Biso   1.000  O
  C105     1.0000 0.99460  0.68081  0.82940  Biso   1.000  C
  H68      1.0000 0.99070  0.71100  0.80160  Biso   1.000  H
  C106     1.0000 0.50990  0.05604  0.81553  Biso   1.000  C
  C107     1.0000 0.74750  0.68960  0.82107  Biso   1.000  C
  C108     1.0000 0.50160  0.99507  0.94826  Biso   1.000  C
  C109     1.0000 0.52570  0.85481  0.79228  Biso   1.000  C
  C110     1.0000 0.07400  0.56530  0.00403  Biso   1.000  C
  C111     1.0000 0.00860  0.54280  0.95756  Biso   1.000  C
  O41      1.0000 0.29280  0.71287  0.06520  Biso   1.000  O
  C112     1.0000 0.11630  0.65450  0.85284  Biso   1.000  C
  C113     1.0000 0.06460  0.52270  0.04769  Biso   1.000  C
  C114     1.0000 0.50070  0.05723  0.86595  Biso   1.000  C
  H69      1.0000 0.49050  0.10150  0.88160  Biso   1.000  H
  C115     1.0000 0.00760  0.59050  0.91251  Biso   1.000  C
  C116     1.0000 0.50650  0.99273  0.89349  Biso   1.000  C
  C117     1.0000 0.52230  0.92639  0.81818  Biso   1.000  C
  C118     1.0000 0.51300  0.92809  0.86805  Biso   1.000  C
  H70      1.0000 0.51110  0.88430  0.88530  Biso   1.000  H
  C119     1.0000 0.12340  0.60910  0.89433  Biso   1.000  C
  H71      1.0000 0.20590  0.59120  0.90980  Biso   1.000  H
  C120     1.0000 0.61310  0.02327  0.98071  Biso   1.000  C
  C121     1.0000 0.52470  0.99075  0.79211  Biso   1.000  C
  H72      1.0000 0.53620  0.99000  0.75870  Biso   1.000  H
  C122     1.0000 0.38990  0.97081  0.96752  Biso   1.000  C
  C123     1.0000 0.15050  0.63150  0.01082  Biso   1.000  C
  H73      1.0000 0.15560  0.66080  0.98320  Biso   1.000  H
  C124     1.0000 0.73360  0.04380  0.96289  Biso   1.000  C
  H74      1.0000 0.73880  0.03770  0.92920  Biso   1.000  H
  O42      1.0000 0.05990  0.88430  0.92883  Biso   1.000  O
  C125     1.0000 0.20120  0.61130  0.09945  Biso   1.000  C
  C126     1.0000 0.27560  0.93970  0.93582  Biso   1.000  C
  H75      1.0000 0.27700  0.93440  0.90180  Biso   1.000  H
  C127     1.0000 0.12920  0.54930  0.09530  Biso   1.000  C
  H76      1.0000 0.12100  0.52310  0.12400  Biso   1.000  H
  C128     1.0000 0.21500  0.65240  0.05590  Biso   1.000  C
  O43      1.0000 0.95680  0.09170  0.98040  Biso   1.000  O
  C129     1.0000 0.96880  0.07790  0.92870  Biso   1.000  C
  H77      1.0000 0.90780  0.10880  0.90730  Biso   1.000  H
  H78      1.0000 0.05890  0.08780  0.92370  Biso   1.000  H
  H79      1.0000 0.94760  0.02780  0.92080  Biso   1.000  H
  C130     1.0000 0.83870  0.07120  0.99328  Biso   1.000  C
  C131     1.0000 0.30790  0.75650  0.02280  Biso   1.000  C
  H80      1.0000 0.33800  0.72650  0.99780  Biso   1.000  H
  H81      1.0000 0.22320  0.77820  0.00930  Biso   1.000  H
  H82      1.0000 0.37250  0.79430  0.03280  Biso   1.000  H
  C132     1.0000 0.16790  0.91830  0.95464  Biso   1.000  C
  O44      1.0000 0.35330  0.65435  0.85613  Biso   1.000  O
  O45      1.0000 0.23550  0.71331  0.79485  Biso   1.000  O
  O46      1.0000 0.55180  0.12758  0.74843  Biso   1.000  O
  C133     1.0000 0.24170  0.67590  0.83300  Biso   1.000  C
  O47      1.0000 0.44230  0.17677  0.80357  Biso   1.000  O
  C134     1.0000 0.06540  0.86060  0.87900  Biso   1.000  C
  H83      1.0000 0.07470  0.90220  0.85830  Biso   1.000  H
  H84      1.0000 0.14080  0.82870  0.87920  Biso   1.000  H
  H85      1.0000 0.98440  0.83500  0.86610  Biso   1.000  H
  C135     1.0000 0.50050  0.12620  0.78674  Biso   1.000  C
  O48      1.0000 0.26630  0.63997  0.14279  Biso   1.000  O
  C136     1.0000 0.24520  0.60470  0.18812  Biso   1.000  C
  H86      1.0000 0.15080  0.59950  0.18820  Biso   1.000  H
  H87      1.0000 0.28650  0.55740  0.19010  Biso   1.000  H
  H88      1.0000 0.28430  0.63350  0.21630  Biso   1.000  H
