data_image0
_cell_length_a       11.09
_cell_length_b       23.206
_cell_length_c       23.91
_cell_angle_alpha    90
_cell_angle_beta     90
_cell_angle_gamma    90

_symmetry_space_group_name_H-M    "P 1"
_symmetry_int_tables_number       1

loop_
  _symmetry_equiv_pos_as_xyz
  'x, y, z'

loop_
  _atom_site_label
  _atom_site_occupancy
  _atom_site_fract_x
  _atom_site_fract_y
  _atom_site_fract_z
  _atom_site_thermal_displace_type
  _atom_site_B_iso_or_equiv
  _atom_site_type_symbol
  Se1      1.0000 0.25226  0.93302  0.43114  Biso   1.000  Se
  N1       1.0000 0.22590  0.07400  0.29190  Biso   1.000  N
  C1       1.0000 0.27790  0.04490  0.32300  Biso   1.000  C
  Se2      1.0000 0.25226  0.43302  0.93114  Biso   1.000  Se
  N2       1.0000 0.22590  0.57400  0.79190  Biso   1.000  N
  C2       1.0000 0.27790  0.54490  0.82300  Biso   1.000  C
  Se3      1.0000 0.75226  0.93302  0.93114  Biso   1.000  Se
  N3       1.0000 0.72590  0.07400  0.79190  Biso   1.000  N
  C3       1.0000 0.77790  0.04490  0.82300  Biso   1.000  C
  Se4      1.0000 0.75226  0.43302  0.43114  Biso   1.000  Se
  N4       1.0000 0.72590  0.57400  0.29190  Biso   1.000  N
  C4       1.0000 0.77790  0.54490  0.32300  Biso   1.000  C
  Se5      1.0000 0.49774  0.81698  0.43114  Biso   1.000  Se
  N5       1.0000 0.52410  0.67600  0.29190  Biso   1.000  N
  C5       1.0000 0.47210  0.70510  0.32300  Biso   1.000  C
  Se6      1.0000 0.49774  0.31698  0.93114  Biso   1.000  Se
  N6       1.0000 0.52410  0.17600  0.79190  Biso   1.000  N
  C6       1.0000 0.47210  0.20510  0.82300  Biso   1.000  C
  Se7      1.0000 0.99774  0.81698  0.93114  Biso   1.000  Se
  N7       1.0000 0.02410  0.67600  0.79190  Biso   1.000  N
  C7       1.0000 0.97210  0.70510  0.82300  Biso   1.000  C
  Se8      1.0000 0.99774  0.31698  0.43114  Biso   1.000  Se
  N8       1.0000 0.02410  0.17600  0.29190  Biso   1.000  N
  C8       1.0000 0.97210  0.20510  0.32300  Biso   1.000  C
  Se9      1.0000 0.49774  0.93302  0.31886  Biso   1.000  Se
  N9       1.0000 0.52410  0.07400  0.45810  Biso   1.000  N
  C9       1.0000 0.47210  0.04490  0.42700  Biso   1.000  C
  Se10     1.0000 0.49774  0.43302  0.81886  Biso   1.000  Se
  N10      1.0000 0.52410  0.57400  0.95810  Biso   1.000  N
  C10      1.0000 0.47210  0.54490  0.92700  Biso   1.000  C
  Se11     1.0000 0.99774  0.93302  0.81886  Biso   1.000  Se
  N11      1.0000 0.02410  0.07400  0.95810  Biso   1.000  N
  C11      1.0000 0.97210  0.04490  0.92700  Biso   1.000  C
  Se12     1.0000 0.99774  0.43302  0.31886  Biso   1.000  Se
  N12      1.0000 0.02410  0.57400  0.45810  Biso   1.000  N
  C12      1.0000 0.97210  0.54490  0.42700  Biso   1.000  C
  Se13     1.0000 0.25226  0.81698  0.31886  Biso   1.000  Se
  N13      1.0000 0.22590  0.67600  0.45810  Biso   1.000  N
  C13      1.0000 0.27790  0.70510  0.42700  Biso   1.000  C
  Se14     1.0000 0.25226  0.31698  0.81886  Biso   1.000  Se
  N14      1.0000 0.22590  0.17600  0.95810  Biso   1.000  N
  C14      1.0000 0.27790  0.20510  0.92700  Biso   1.000  C
  Se15     1.0000 0.75226  0.81698  0.81886  Biso   1.000  Se
  N15      1.0000 0.72590  0.67600  0.95810  Biso   1.000  N
  C15      1.0000 0.77790  0.70510  0.92700  Biso   1.000  C
  Se16     1.0000 0.75226  0.31698  0.31886  Biso   1.000  Se
  N16      1.0000 0.72590  0.17600  0.45810  Biso   1.000  N
  C16      1.0000 0.77790  0.20510  0.42700  Biso   1.000  C
  Se17     1.0000 0.74774  0.06698  0.56886  Biso   1.000  Se
  N17      1.0000 0.77410  0.92600  0.70810  Biso   1.000  N
  C17      1.0000 0.72210  0.95510  0.67700  Biso   1.000  C
  Se18     1.0000 0.74774  0.56698  0.06886  Biso   1.000  Se
  N18      1.0000 0.77410  0.42600  0.20810  Biso   1.000  N
  C18      1.0000 0.72210  0.45510  0.17700  Biso   1.000  C
  Se19     1.0000 0.24774  0.06698  0.06886  Biso   1.000  Se
  N19      1.0000 0.27410  0.92600  0.20810  Biso   1.000  N
  C19      1.0000 0.22210  0.95510  0.17700  Biso   1.000  C
  Se20     1.0000 0.24774  0.56698  0.56886  Biso   1.000  Se
  N20      1.0000 0.27410  0.42600  0.70810  Biso   1.000  N
  C20      1.0000 0.22210  0.45510  0.67700  Biso   1.000  C
  Se21     1.0000 0.50226  0.18302  0.56886  Biso   1.000  Se
  N21      1.0000 0.47590  0.32400  0.70810  Biso   1.000  N
  C21      1.0000 0.52790  0.29490  0.67700  Biso   1.000  C
  Se22     1.0000 0.50226  0.68302  0.06886  Biso   1.000  Se
  N22      1.0000 0.47590  0.82400  0.20810  Biso   1.000  N
  C22      1.0000 0.52790  0.79490  0.17700  Biso   1.000  C
  Se23     1.0000 0.00226  0.18302  0.06886  Biso   1.000  Se
  N23      1.0000 0.97590  0.32400  0.20810  Biso   1.000  N
  C23      1.0000 0.02790  0.29490  0.17700  Biso   1.000  C
  Se24     1.0000 0.00226  0.68302  0.56886  Biso   1.000  Se
  N24      1.0000 0.97590  0.82400  0.70810  Biso   1.000  N
  C24      1.0000 0.02790  0.79490  0.67700  Biso   1.000  C
  Se25     1.0000 0.50226  0.06698  0.68114  Biso   1.000  Se
  N25      1.0000 0.47590  0.92600  0.54190  Biso   1.000  N
  C25      1.0000 0.52790  0.95510  0.57300  Biso   1.000  C
  Se26     1.0000 0.50226  0.56698  0.18114  Biso   1.000  Se
  N26      1.0000 0.47590  0.42600  0.04190  Biso   1.000  N
  C26      1.0000 0.52790  0.45510  0.07300  Biso   1.000  C
  Se27     1.0000 0.00226  0.06698  0.18114  Biso   1.000  Se
  N27      1.0000 0.97590  0.92600  0.04190  Biso   1.000  N
  C27      1.0000 0.02790  0.95510  0.07300  Biso   1.000  C
  Se28     1.0000 0.00226  0.56698  0.68114  Biso   1.000  Se
  N28      1.0000 0.97590  0.42600  0.54190  Biso   1.000  N
  C28      1.0000 0.02790  0.45510  0.57300  Biso   1.000  C
  Se29     1.0000 0.74774  0.18302  0.68114  Biso   1.000  Se
  N29      1.0000 0.77410  0.32400  0.54190  Biso   1.000  N
  C29      1.0000 0.72210  0.29490  0.57300  Biso   1.000  C
  Se30     1.0000 0.74774  0.68302  0.18114  Biso   1.000  Se
  N30      1.0000 0.77410  0.82400  0.04190  Biso   1.000  N
  C30      1.0000 0.72210  0.79490  0.07300  Biso   1.000  C
  Se31     1.0000 0.24774  0.18302  0.18114  Biso   1.000  Se
  N31      1.0000 0.27410  0.32400  0.04190  Biso   1.000  N
  C31      1.0000 0.22210  0.29490  0.07300  Biso   1.000  C
  Se32     1.0000 0.24774  0.68302  0.68114  Biso   1.000  Se
  N32      1.0000 0.27410  0.82400  0.54190  Biso   1.000  N
  C32      1.0000 0.22210  0.79490  0.57300  Biso   1.000  C
  W1       1.0000 0.37500  0.87500  0.37500  Biso   1.000  W
  W2       1.0000 0.37500  0.37500  0.87500  Biso   1.000  W
  W3       1.0000 0.87500  0.87500  0.87500  Biso   1.000  W
  W4       1.0000 0.87500  0.37500  0.37500  Biso   1.000  W
  W5       1.0000 0.62500  0.12500  0.62500  Biso   1.000  W
  W6       1.0000 0.62500  0.62500  0.12500  Biso   1.000  W
  W7       1.0000 0.12500  0.12500  0.12500  Biso   1.000  W
  W8       1.0000 0.12500  0.62500  0.62500  Biso   1.000  W
  Cu1      1.0000 0.37500  0.87500  0.25579  Biso   1.000  Cu
  Cu2      1.0000 0.37500  0.37500  0.75579  Biso   1.000  Cu
  Cu3      1.0000 0.87500  0.87500  0.75579  Biso   1.000  Cu
  Cu4      1.0000 0.87500  0.37500  0.25579  Biso   1.000  Cu
  Cu5      1.0000 0.37500  0.87500  0.49421  Biso   1.000  Cu
  Cu6      1.0000 0.37500  0.37500  0.99421  Biso   1.000  Cu
  Cu7      1.0000 0.87500  0.87500  0.99421  Biso   1.000  Cu
  Cu8      1.0000 0.87500  0.37500  0.49421  Biso   1.000  Cu
  Cu9      1.0000 0.62500  0.12500  0.74421  Biso   1.000  Cu
  Cu10     1.0000 0.62500  0.62500  0.24421  Biso   1.000  Cu
  Cu11     1.0000 0.12500  0.12500  0.24421  Biso   1.000  Cu
  Cu12     1.0000 0.12500  0.62500  0.74421  Biso   1.000  Cu
  Cu13     1.0000 0.62500  0.12500  0.50579  Biso   1.000  Cu
  Cu14     1.0000 0.62500  0.62500  0.00579  Biso   1.000  Cu
  Cu15     1.0000 0.12500  0.12500  0.00579  Biso   1.000  Cu
  Cu16     1.0000 0.12500  0.62500  0.50579  Biso   1.000  Cu
  Cu17     1.0000 0.37500  0.00027  0.37500  Biso   1.000  Cu
  Cu18     1.0000 0.37500  0.50027  0.87500  Biso   1.000  Cu
  Cu19     1.0000 0.87500  0.00027  0.87500  Biso   1.000  Cu
  Cu20     1.0000 0.87500  0.50027  0.37500  Biso   1.000  Cu
  Cu21     1.0000 0.37500  0.74973  0.37500  Biso   1.000  Cu
  Cu22     1.0000 0.37500  0.24973  0.87500  Biso   1.000  Cu
  Cu23     1.0000 0.87500  0.74973  0.87500  Biso   1.000  Cu
  Cu24     1.0000 0.87500  0.24973  0.37500  Biso   1.000  Cu
  Cu25     1.0000 0.62500  0.99973  0.62500  Biso   1.000  Cu
  Cu26     1.0000 0.62500  0.49973  0.12500  Biso   1.000  Cu
  Cu27     1.0000 0.12500  0.99973  0.12500  Biso   1.000  Cu
  Cu28     1.0000 0.12500  0.49973  0.62500  Biso   1.000  Cu
  Cu29     1.0000 0.62500  0.25027  0.62500  Biso   1.000  Cu
  Cu30     1.0000 0.62500  0.75027  0.12500  Biso   1.000  Cu
  Cu31     1.0000 0.12500  0.25027  0.12500  Biso   1.000  Cu
  Cu32     1.0000 0.12500  0.75027  0.62500  Biso   1.000  Cu
