data_image0
_cell_length_a       10.1724
_cell_length_b       10.1724
_cell_length_c       9.606
_cell_angle_alpha    90
_cell_angle_beta     90
_cell_angle_gamma    90

_symmetry_space_group_name_H-M    "P 1"
_symmetry_int_tables_number       1

loop_
  _symmetry_equiv_pos_as_xyz
  'x, y, z'

loop_
  _atom_site_label
  _atom_site_occupancy
  _atom_site_fract_x
  _atom_site_fract_y
  _atom_site_fract_z
  _atom_site_thermal_displace_type
  _atom_site_B_iso_or_equiv
  _atom_site_type_symbol
  O1       1.0000 0.69700  0.48000  0.21840  Biso   1.000  O
  O2       1.0000 0.19700  0.98000  0.71840  Biso   1.000  O
  O3       1.0000 0.30300  0.52000  0.21840  Biso   1.000  O
  O4       1.0000 0.80300  0.02000  0.71840  Biso   1.000  O
  O5       1.0000 0.48000  0.30300  0.78160  Biso   1.000  O
  O6       1.0000 0.98000  0.80300  0.28160  Biso   1.000  O
  O7       1.0000 0.52000  0.69700  0.78160  Biso   1.000  O
  O8       1.0000 0.02000  0.19700  0.28160  Biso   1.000  O
  O9       1.0000 0.30300  0.48000  0.78160  Biso   1.000  O
  O10      1.0000 0.80300  0.98000  0.28160  Biso   1.000  O
  O11      1.0000 0.69700  0.52000  0.78160  Biso   1.000  O
  O12      1.0000 0.19700  0.02000  0.28160  Biso   1.000  O
  O13      1.0000 0.52000  0.30300  0.21840  Biso   1.000  O
  O14      1.0000 0.02000  0.80300  0.71840  Biso   1.000  O
  O15      1.0000 0.48000  0.69700  0.21840  Biso   1.000  O
  O16      1.0000 0.98000  0.19700  0.71840  Biso   1.000  O
  P1       1.0000 0.66460  0.33540  0.19180  Biso   1.000  P
  O17      1.0000 0.70010  0.29990  0.03800  Biso   1.000  O
  O18      1.0000 0.74150  0.25850  0.28600  Biso   1.000  O
  Co1      1.0000 0.63320  0.36680  0.86840  Biso   1.000  Co
  P2       1.0000 0.16460  0.83540  0.69180  Biso   1.000  P
  O19      1.0000 0.20010  0.79990  0.53800  Biso   1.000  O
  O20      1.0000 0.24150  0.75850  0.78600  Biso   1.000  O
  Co2      1.0000 0.13320  0.86680  0.36840  Biso   1.000  Co
  P3       1.0000 0.33540  0.66460  0.19180  Biso   1.000  P
  O21      1.0000 0.29990  0.70010  0.03800  Biso   1.000  O
  O22      1.0000 0.25850  0.74150  0.28600  Biso   1.000  O
  Co3      1.0000 0.36680  0.63320  0.86840  Biso   1.000  Co
  P4       1.0000 0.83540  0.16460  0.69180  Biso   1.000  P
  O23      1.0000 0.79990  0.20010  0.53800  Biso   1.000  O
  O24      1.0000 0.75850  0.24150  0.78600  Biso   1.000  O
  Co4      1.0000 0.86680  0.13320  0.36840  Biso   1.000  Co
  P5       1.0000 0.33540  0.33540  0.80820  Biso   1.000  P
  O25      1.0000 0.29990  0.29990  0.96200  Biso   1.000  O
  O26      1.0000 0.25850  0.25850  0.71400  Biso   1.000  O
  Co5      1.0000 0.36680  0.36680  0.13160  Biso   1.000  Co
  P6       1.0000 0.83540  0.83540  0.30820  Biso   1.000  P
  O27      1.0000 0.79990  0.79990  0.46200  Biso   1.000  O
  O28      1.0000 0.75850  0.75850  0.21400  Biso   1.000  O
  Co6      1.0000 0.86680  0.86680  0.63160  Biso   1.000  Co
  P7       1.0000 0.66460  0.66460  0.80820  Biso   1.000  P
  O29      1.0000 0.70010  0.70010  0.96200  Biso   1.000  O
  O30      1.0000 0.74150  0.74150  0.71400  Biso   1.000  O
  Co7      1.0000 0.63320  0.63320  0.13160  Biso   1.000  Co
  P8       1.0000 0.16460  0.16460  0.30820  Biso   1.000  P
  O31      1.0000 0.20010  0.20010  0.46200  Biso   1.000  O
  O32      1.0000 0.24150  0.24150  0.21400  Biso   1.000  O
  Co8      1.0000 0.13320  0.13320  0.63160  Biso   1.000  Co
