data_image0
_cell_length_a       21.617
_cell_length_b       11.127
_cell_length_c       16.294
_cell_angle_alpha    90
_cell_angle_beta     111.61
_cell_angle_gamma    90

_symmetry_space_group_name_H-M    "P 1"
_symmetry_int_tables_number       1

loop_
  _symmetry_equiv_pos_as_xyz
  'x, y, z'

loop_
  _atom_site_label
  _atom_site_occupancy
  _atom_site_fract_x
  _atom_site_fract_y
  _atom_site_fract_z
  _atom_site_thermal_displace_type
  _atom_site_B_iso_or_equiv
  _atom_site_type_symbol
  Cu1      1.0000 0.97536  0.00637  0.67789  Biso   1.000  Cu
  Cu2      1.0000 0.52029  0.00792  0.69666  Biso   1.000  Cu
  C1       1.0000 0.82370  0.33470  0.74370  Biso   1.000  C
  C2       1.0000 0.82050  0.20760  0.73750  Biso   1.000  C
  C3       1.0000 0.76210  0.14910  0.72180  Biso   1.000  C
  C4       1.0000 0.70510  0.21480  0.71070  Biso   1.000  C
  C5       1.0000 0.70700  0.34060  0.71310  Biso   1.000  C
  C6       1.0000 0.76640  0.39990  0.73210  Biso   1.000  C
  C7       1.0000 0.88670  0.39410  0.76260  Biso   1.000  C
  N1       1.0000 0.93770  0.43590  0.78070  Biso   1.000  N
  C8       1.0000 0.87950  0.14150  0.74140  Biso   1.000  C
  N2       1.0000 0.92470  0.08930  0.74010  Biso   1.000  N
  C9       1.0000 0.64310  0.15190  0.69440  Biso   1.000  C
  N3       1.0000 0.59410  0.10360  0.68280  Biso   1.000  N
  C10      1.0000 0.64600  0.40650  0.69980  Biso   1.000  C
  N4       1.0000 0.59690  0.45510  0.68590  Biso   1.000  N
  C11      1.0000 0.79180  0.79800  0.50980  Biso   1.000  C
  C12      1.0000 0.79150  0.67310  0.50590  Biso   1.000  C
  C13      1.0000 0.73400  0.61270  0.45850  Biso   1.000  C
  C14      1.0000 0.67620  0.67610  0.41640  Biso   1.000  C
  C15      1.0000 0.67570  0.80180  0.42250  Biso   1.000  C
  C16      1.0000 0.73380  0.86290  0.46920  Biso   1.000  C
  N5       1.0000 0.90200  0.90850  0.59420  Biso   1.000  N
  C17      1.0000 0.85380  0.86080  0.55760  Biso   1.000  C
  C18      1.0000 0.85180  0.60670  0.55110  Biso   1.000  C
  N6       1.0000 0.90110  0.55690  0.58540  Biso   1.000  N
  C19      1.0000 0.61670  0.61470  0.36000  Biso   1.000  C
  N7       1.0000 0.57100  0.56750  0.31180  Biso   1.000  N
  C20      1.0000 0.61460  0.86850  0.37940  Biso   1.000  C
  N8       1.0000 0.56550  0.91670  0.34750  Biso   1.000  N
  Cu3      1.0000 0.02464  0.50637  0.82211  Biso   1.000  Cu
  Cu4      1.0000 0.47971  0.50792  0.80334  Biso   1.000  Cu
  C21      1.0000 0.17630  0.83470  0.75630  Biso   1.000  C
  C22      1.0000 0.17950  0.70760  0.76250  Biso   1.000  C
  C23      1.0000 0.23790  0.64910  0.77820  Biso   1.000  C
  C24      1.0000 0.29490  0.71480  0.78930  Biso   1.000  C
  C25      1.0000 0.29300  0.84060  0.78690  Biso   1.000  C
  C26      1.0000 0.23360  0.89990  0.76790  Biso   1.000  C
  C27      1.0000 0.11330  0.89410  0.73740  Biso   1.000  C
  N9       1.0000 0.06230  0.93590  0.71930  Biso   1.000  N
  C28      1.0000 0.12050  0.64150  0.75860  Biso   1.000  C
  N10      1.0000 0.07530  0.58930  0.75990  Biso   1.000  N
  C29      1.0000 0.35690  0.65190  0.80560  Biso   1.000  C
  N11      1.0000 0.40590  0.60360  0.81720  Biso   1.000  N
  C30      1.0000 0.35400  0.90650  0.80020  Biso   1.000  C
  N12      1.0000 0.40310  0.95510  0.81410  Biso   1.000  N
  C31      1.0000 0.20820  0.29800  0.99020  Biso   1.000  C
  C32      1.0000 0.20850  0.17310  0.99410  Biso   1.000  C
  C33      1.0000 0.26600  0.11270  0.04150  Biso   1.000  C
  C34      1.0000 0.32380  0.17610  0.08360  Biso   1.000  C
  C35      1.0000 0.32430  0.30180  0.07750  Biso   1.000  C
  C36      1.0000 0.26620  0.36290  0.03080  Biso   1.000  C
  N13      1.0000 0.09800  0.40850  0.90580  Biso   1.000  N
  C37      1.0000 0.14620  0.36080  0.94240  Biso   1.000  C
  C38      1.0000 0.14820  0.10670  0.94890  Biso   1.000  C
  N14      1.0000 0.09890  0.05690  0.91460  Biso   1.000  N
  C39      1.0000 0.38330  0.11470  0.14000  Biso   1.000  C
  N15      1.0000 0.42900  0.06750  0.18820  Biso   1.000  N
  C40      1.0000 0.38540  0.36850  0.12060  Biso   1.000  C
  N16      1.0000 0.43450  0.41670  0.15250  Biso   1.000  N
  Cu5      1.0000 0.02464  0.99363  0.32211  Biso   1.000  Cu
  Cu6      1.0000 0.47971  0.99208  0.30334  Biso   1.000  Cu
  C41      1.0000 0.17630  0.66530  0.25630  Biso   1.000  C
  C42      1.0000 0.17950  0.79240  0.26250  Biso   1.000  C
  C43      1.0000 0.23790  0.85090  0.27820  Biso   1.000  C
  C44      1.0000 0.29490  0.78520  0.28930  Biso   1.000  C
  C45      1.0000 0.29300  0.65940  0.28690  Biso   1.000  C
  C46      1.0000 0.23360  0.60010  0.26790  Biso   1.000  C
  C47      1.0000 0.11330  0.60590  0.23740  Biso   1.000  C
  N17      1.0000 0.06230  0.56410  0.21930  Biso   1.000  N
  C48      1.0000 0.12050  0.85850  0.25860  Biso   1.000  C
  N18      1.0000 0.07530  0.91070  0.25990  Biso   1.000  N
  C49      1.0000 0.35690  0.84810  0.30560  Biso   1.000  C
  N19      1.0000 0.40590  0.89640  0.31720  Biso   1.000  N
  C50      1.0000 0.35400  0.59350  0.30020  Biso   1.000  C
  N20      1.0000 0.40310  0.54490  0.31410  Biso   1.000  N
  C51      1.0000 0.20820  0.20200  0.49020  Biso   1.000  C
  C52      1.0000 0.20850  0.32690  0.49410  Biso   1.000  C
  C53      1.0000 0.26600  0.38730  0.54150  Biso   1.000  C
  C54      1.0000 0.32380  0.32390  0.58360  Biso   1.000  C
  C55      1.0000 0.32430  0.19820  0.57750  Biso   1.000  C
  C56      1.0000 0.26620  0.13710  0.53080  Biso   1.000  C
  N21      1.0000 0.09800  0.09150  0.40580  Biso   1.000  N
  C57      1.0000 0.14620  0.13920  0.44240  Biso   1.000  C
  C58      1.0000 0.14820  0.39330  0.44890  Biso   1.000  C
  N22      1.0000 0.09890  0.44310  0.41460  Biso   1.000  N
  C59      1.0000 0.38330  0.38530  0.64000  Biso   1.000  C
  N23      1.0000 0.42900  0.43250  0.68820  Biso   1.000  N
  C60      1.0000 0.38540  0.13150  0.62060  Biso   1.000  C
  N24      1.0000 0.43450  0.08330  0.65250  Biso   1.000  N
  Cu7      1.0000 0.97536  0.49363  0.17789  Biso   1.000  Cu
  Cu8      1.0000 0.52029  0.49208  0.19666  Biso   1.000  Cu
  C61      1.0000 0.82370  0.16530  0.24370  Biso   1.000  C
  C62      1.0000 0.82050  0.29240  0.23750  Biso   1.000  C
  C63      1.0000 0.76210  0.35090  0.22180  Biso   1.000  C
  C64      1.0000 0.70510  0.28520  0.21070  Biso   1.000  C
  C65      1.0000 0.70700  0.15940  0.21310  Biso   1.000  C
  C66      1.0000 0.76640  0.10010  0.23210  Biso   1.000  C
  C67      1.0000 0.88670  0.10590  0.26260  Biso   1.000  C
  N25      1.0000 0.93770  0.06410  0.28070  Biso   1.000  N
  C68      1.0000 0.87950  0.35850  0.24140  Biso   1.000  C
  N26      1.0000 0.92470  0.41070  0.24010  Biso   1.000  N
  C69      1.0000 0.64310  0.34810  0.19440  Biso   1.000  C
  N27      1.0000 0.59410  0.39640  0.18280  Biso   1.000  N
  C70      1.0000 0.64600  0.09350  0.19980  Biso   1.000  C
  N28      1.0000 0.59690  0.04490  0.18590  Biso   1.000  N
  C71      1.0000 0.79180  0.70200  0.00980  Biso   1.000  C
  C72      1.0000 0.79150  0.82690  0.00590  Biso   1.000  C
  C73      1.0000 0.73400  0.88730  0.95850  Biso   1.000  C
  C74      1.0000 0.67620  0.82390  0.91640  Biso   1.000  C
  C75      1.0000 0.67570  0.69820  0.92250  Biso   1.000  C
  C76      1.0000 0.73380  0.63710  0.96920  Biso   1.000  C
  N29      1.0000 0.90200  0.59150  0.09420  Biso   1.000  N
  C77      1.0000 0.85380  0.63920  0.05760  Biso   1.000  C
  C78      1.0000 0.85180  0.89330  0.05110  Biso   1.000  C
  N30      1.0000 0.90110  0.94310  0.08540  Biso   1.000  N
  C79      1.0000 0.61670  0.88530  0.86000  Biso   1.000  C
  N31      1.0000 0.57100  0.93250  0.81180  Biso   1.000  N
  C80      1.0000 0.61460  0.63150  0.87940  Biso   1.000  C
  N32      1.0000 0.56550  0.58330  0.84750  Biso   1.000  N
