data_image0
_cell_length_a       7.4548
_cell_length_b       8.0825
_cell_length_c       10.166
_cell_angle_alpha    75.244
_cell_angle_beta     68.883
_cell_angle_gamma    80.648

_symmetry_space_group_name_H-M    "P 1"
_symmetry_int_tables_number       1

loop_
  _symmetry_equiv_pos_as_xyz
  'x, y, z'

loop_
  _atom_site_label
  _atom_site_occupancy
  _atom_site_fract_x
  _atom_site_fract_y
  _atom_site_fract_z
  _atom_site_thermal_displace_type
  _atom_site_B_iso_or_equiv
  _atom_site_type_symbol
  V1       1.0000 0.24400  0.51640  0.26220  Biso   1.000  V
  V2       1.0000 0.30740  0.76140  0.74720  Biso   1.000  V
  P1       1.0000 0.53230  0.73520  0.96880  Biso   1.000  P
  P2       1.0000 0.90270  0.27700  0.47850  Biso   1.000  P
  O1       1.0000 0.47830  0.63920  0.12610  Biso   1.000  O
  O2       1.0000 0.71130  0.65120  0.86900  Biso   1.000  O
  O3       1.0000 0.09930  0.34480  0.43400  Biso   1.000  O
  O4       1.0000 0.74340  0.35860  0.59460  Biso   1.000  O
  O5       1.0000 0.35630  0.75940  0.91940  Biso   1.000  O
  O6       1.0000 0.84070  0.30970  0.34470  Biso   1.000  O
  O7       1.0000 0.48660  0.34160  0.32850  Biso   1.000  O
  C1       1.0000 0.58790  0.94770  0.95800  Biso   1.000  C
  C2       1.0000 0.92160  0.04950  0.55190  Biso   1.000  C
  H1       1.0000 0.69140  0.93940  0.99660  Biso   1.000  H
  H2       1.0000 0.63280  0.00710  0.85760  Biso   1.000  H
  H3       1.0000 0.79830  0.00440  0.57530  Biso   1.000  H
  H4       1.0000 0.94990  0.03070  0.64080  Biso   1.000  H
  V3       1.0000 0.75600  0.48360  0.73780  Biso   1.000  V
  V4       1.0000 0.69260  0.23860  0.25280  Biso   1.000  V
  P3       1.0000 0.46770  0.26480  0.03120  Biso   1.000  P
  P4       1.0000 0.09730  0.72300  0.52150  Biso   1.000  P
  O8       1.0000 0.52170  0.36080  0.87390  Biso   1.000  O
  O9       1.0000 0.28870  0.34880  0.13100  Biso   1.000  O
  O10      1.0000 0.90070  0.65520  0.56600  Biso   1.000  O
  O11      1.0000 0.25660  0.64140  0.40540  Biso   1.000  O
  O12      1.0000 0.64370  0.24060  0.08060  Biso   1.000  O
  O13      1.0000 0.15930  0.69030  0.65530  Biso   1.000  O
  O14      1.0000 0.51340  0.65840  0.67150  Biso   1.000  O
  C3       1.0000 0.41210  0.05230  0.04200  Biso   1.000  C
  C4       1.0000 0.07840  0.95050  0.44810  Biso   1.000  C
  H5       1.0000 0.30860  0.06060  0.00340  Biso   1.000  H
  H6       1.0000 0.36720  0.99290  0.14240  Biso   1.000  H
  H7       1.0000 0.20170  0.99560  0.42470  Biso   1.000  H
  H8       1.0000 0.05010  0.96930  0.35920  Biso   1.000  H
