data_image0
_cell_length_a       13.495
_cell_length_b       13.495
_cell_length_c       9.396
_cell_angle_alpha    90
_cell_angle_beta     90
_cell_angle_gamma    120

_symmetry_space_group_name_H-M    "P 1"
_symmetry_int_tables_number       1

loop_
  _symmetry_equiv_pos_as_xyz
  'x, y, z'

loop_
  _atom_site_label
  _atom_site_occupancy
  _atom_site_fract_x
  _atom_site_fract_y
  _atom_site_fract_z
  _atom_site_thermal_displace_type
  _atom_site_B_iso_or_equiv
  _atom_site_type_symbol
  Fe1      1.0000 0.14600  0.44080  0.90180  Biso   1.000  Fe
  P1       1.0000 0.36770  0.49550  0.09600  Biso   1.000  P
  P2       1.0000 0.03620  0.18980  0.74100  Biso   1.000  P
  O1       1.0000 0.28500  0.43670  0.97160  Biso   1.000  O
  O2       1.0000 0.16420  0.54400  0.06250  Biso   1.000  O
  O3       1.0000 0.99490  0.42300  0.85650  Biso   1.000  O
  O4       1.0000 0.11750  0.31780  0.75800  Biso   1.000  O
  O5       1.0000 0.02270  0.13100  0.88490  Biso   1.000  O
  O6       1.0000 0.07450  0.14210  0.62210  Biso   1.000  O
  O7       1.0000 0.22720  0.55700  0.76640  Biso   1.000  O
  O8       1.0000 0.29900  0.50190  0.22830  Biso   1.000  O
  O9       1.0000 0.91500  0.17180  0.69920  Biso   1.000  O
  Fe2      1.0000 0.55920  0.70520  0.90180  Biso   1.000  Fe
  P3       1.0000 0.50450  0.87220  0.09600  Biso   1.000  P
  P4       1.0000 0.81020  0.84640  0.74100  Biso   1.000  P
  O10      1.0000 0.56330  0.84830  0.97160  Biso   1.000  O
  O11      1.0000 0.45600  0.62020  0.06250  Biso   1.000  O
  O12      1.0000 0.57700  0.57190  0.85650  Biso   1.000  O
  O13      1.0000 0.68220  0.79970  0.75800  Biso   1.000  O
  O14      1.0000 0.86900  0.89170  0.88490  Biso   1.000  O
  O15      1.0000 0.85790  0.93240  0.62210  Biso   1.000  O
  O16      1.0000 0.44300  0.67020  0.76640  Biso   1.000  O
  O17      1.0000 0.49810  0.79710  0.22830  Biso   1.000  O
  O18      1.0000 0.82820  0.74320  0.69920  Biso   1.000  O
  Fe3      1.0000 0.29480  0.85400  0.90180  Biso   1.000  Fe
  P5       1.0000 0.12780  0.63230  0.09600  Biso   1.000  P
  P6       1.0000 0.15360  0.96380  0.74100  Biso   1.000  P
  O19      1.0000 0.15170  0.71500  0.97160  Biso   1.000  O
  O20      1.0000 0.37980  0.83580  0.06250  Biso   1.000  O
  O21      1.0000 0.42810  0.00510  0.85650  Biso   1.000  O
  O22      1.0000 0.20030  0.88250  0.75800  Biso   1.000  O
  O23      1.0000 0.10830  0.97730  0.88490  Biso   1.000  O
  O24      1.0000 0.06760  0.92550  0.62210  Biso   1.000  O
  O25      1.0000 0.32980  0.77280  0.76640  Biso   1.000  O
  O26      1.0000 0.20290  0.70100  0.22830  Biso   1.000  O
  O27      1.0000 0.25680  0.08500  0.69920  Biso   1.000  O
  Fe4      1.0000 0.85400  0.55920  0.09820  Biso   1.000  Fe
  P7       1.0000 0.63230  0.50450  0.90400  Biso   1.000  P
  P8       1.0000 0.96380  0.81020  0.25900  Biso   1.000  P
  O28      1.0000 0.71500  0.56330  0.02840  Biso   1.000  O
  O29      1.0000 0.83580  0.45600  0.93750  Biso   1.000  O
  O30      1.0000 0.00510  0.57700  0.14350  Biso   1.000  O
  O31      1.0000 0.88250  0.68220  0.24200  Biso   1.000  O
  O32      1.0000 0.97730  0.86900  0.11510  Biso   1.000  O
  O33      1.0000 0.92550  0.85790  0.37790  Biso   1.000  O
  O34      1.0000 0.77280  0.44300  0.23360  Biso   1.000  O
  O35      1.0000 0.70100  0.49810  0.77170  Biso   1.000  O
  O36      1.0000 0.08500  0.82820  0.30080  Biso   1.000  O
  Fe5      1.0000 0.44080  0.29480  0.09820  Biso   1.000  Fe
  P9       1.0000 0.49550  0.12780  0.90400  Biso   1.000  P
  P10      1.0000 0.18980  0.15360  0.25900  Biso   1.000  P
  O37      1.0000 0.43670  0.15170  0.02840  Biso   1.000  O
  O38      1.0000 0.54400  0.37980  0.93750  Biso   1.000  O
  O39      1.0000 0.42300  0.42810  0.14350  Biso   1.000  O
  O40      1.0000 0.31780  0.20030  0.24200  Biso   1.000  O
  O41      1.0000 0.13100  0.10830  0.11510  Biso   1.000  O
  O42      1.0000 0.14210  0.06760  0.37790  Biso   1.000  O
  O43      1.0000 0.55700  0.32980  0.23360  Biso   1.000  O
  O44      1.0000 0.50190  0.20290  0.77170  Biso   1.000  O
  O45      1.0000 0.17180  0.25680  0.30080  Biso   1.000  O
  Fe6      1.0000 0.70520  0.14600  0.09820  Biso   1.000  Fe
  P11      1.0000 0.87220  0.36770  0.90400  Biso   1.000  P
  P12      1.0000 0.84640  0.03620  0.25900  Biso   1.000  P
  O46      1.0000 0.84830  0.28500  0.02840  Biso   1.000  O
  O47      1.0000 0.62020  0.16420  0.93750  Biso   1.000  O
  O48      1.0000 0.57190  0.99490  0.14350  Biso   1.000  O
  O49      1.0000 0.79970  0.11750  0.24200  Biso   1.000  O
  O50      1.0000 0.89170  0.02270  0.11510  Biso   1.000  O
  O51      1.0000 0.93240  0.07450  0.37790  Biso   1.000  O
  O52      1.0000 0.67020  0.22720  0.23360  Biso   1.000  O
  O53      1.0000 0.79710  0.29900  0.77170  Biso   1.000  O
  O54      1.0000 0.74320  0.91500  0.30080  Biso   1.000  O
  Fe7      1.0000 0.00000  0.00000  0.50000  Biso   1.000  Fe
  Fe8      1.0000 0.00000  0.00000  0.00000  Biso   1.000  Fe
  P13      1.0000 0.33333  0.66667  0.71400  Biso   1.000  P
  O55      1.0000 0.33333  0.66667  0.55100  Biso   1.000  O
  P14      1.0000 0.66667  0.33333  0.28600  Biso   1.000  P
  O56      1.0000 0.66667  0.33333  0.44900  Biso   1.000  O
