data_image0
_cell_length_a       13.512
_cell_length_b       16.194
_cell_length_c       4.677
_cell_angle_alpha    90
_cell_angle_beta     90
_cell_angle_gamma    90

_symmetry_space_group_name_H-M    "P 1"
_symmetry_int_tables_number       1

loop_
  _symmetry_equiv_pos_as_xyz
  'x, y, z'

loop_
  _atom_site_label
  _atom_site_occupancy
  _atom_site_fract_x
  _atom_site_fract_y
  _atom_site_fract_z
  _atom_site_thermal_displace_type
  _atom_site_B_iso_or_equiv
  _atom_site_type_symbol
  V1       1.0000 0.51110  0.48510  0.97840  Biso   1.000  V
  P1       1.0000 0.63620  0.58030  0.49300  Biso   1.000  P
  O1       1.0000 0.55350  0.57900  0.71600  Biso   1.000  O
  O2       1.0000 0.61750  0.51930  0.25180  Biso   1.000  O
  O3       1.0000 0.64680  0.66920  0.38530  Biso   1.000  O
  O4       1.0000 0.42980  0.59220  0.17510  Biso   1.000  O
  V2       1.0000 0.98890  0.01490  0.97840  Biso   1.000  V
  P2       1.0000 0.86380  0.91970  0.49300  Biso   1.000  P
  O5       1.0000 0.94650  0.92100  0.71600  Biso   1.000  O
  O6       1.0000 0.88250  0.98070  0.25180  Biso   1.000  O
  O7       1.0000 0.85320  0.83080  0.38530  Biso   1.000  O
  O8       1.0000 0.07020  0.90780  0.17510  Biso   1.000  O
  V3       1.0000 0.48890  0.98510  0.02160  Biso   1.000  V
  P3       1.0000 0.36380  0.08030  0.50700  Biso   1.000  P
  O9       1.0000 0.44650  0.07900  0.28400  Biso   1.000  O
  O10      1.0000 0.38250  0.01930  0.74820  Biso   1.000  O
  O11      1.0000 0.35320  0.16920  0.61470  Biso   1.000  O
  O12      1.0000 0.57020  0.09220  0.82490  Biso   1.000  O
  V4       1.0000 0.01110  0.51490  0.02160  Biso   1.000  V
  P4       1.0000 0.13620  0.41970  0.50700  Biso   1.000  P
  O13      1.0000 0.05350  0.42100  0.28400  Biso   1.000  O
  O14      1.0000 0.11750  0.48070  0.74820  Biso   1.000  O
  O15      1.0000 0.14680  0.33080  0.61470  Biso   1.000  O
  O16      1.0000 0.92980  0.40780  0.82490  Biso   1.000  O
  V5       1.0000 0.48890  0.51490  0.02160  Biso   1.000  V
  P5       1.0000 0.36380  0.41970  0.50700  Biso   1.000  P
  O17      1.0000 0.44650  0.42100  0.28400  Biso   1.000  O
  O18      1.0000 0.38250  0.48070  0.74820  Biso   1.000  O
  O19      1.0000 0.35320  0.33080  0.61470  Biso   1.000  O
  O20      1.0000 0.57020  0.40780  0.82490  Biso   1.000  O
  V6       1.0000 0.01110  0.98510  0.02160  Biso   1.000  V
  P6       1.0000 0.13620  0.08030  0.50700  Biso   1.000  P
  O21      1.0000 0.05350  0.07900  0.28400  Biso   1.000  O
  O22      1.0000 0.11750  0.01930  0.74820  Biso   1.000  O
  O23      1.0000 0.14680  0.16920  0.61470  Biso   1.000  O
  O24      1.0000 0.92980  0.09220  0.82490  Biso   1.000  O
  V7       1.0000 0.51110  0.01490  0.97840  Biso   1.000  V
  P7       1.0000 0.63620  0.91970  0.49300  Biso   1.000  P
  O25      1.0000 0.55350  0.92100  0.71600  Biso   1.000  O
  O26      1.0000 0.61750  0.98070  0.25180  Biso   1.000  O
  O27      1.0000 0.64680  0.83080  0.38530  Biso   1.000  O
  O28      1.0000 0.42980  0.90780  0.17510  Biso   1.000  O
  V8       1.0000 0.98890  0.48510  0.97840  Biso   1.000  V
  P8       1.0000 0.86380  0.58030  0.49300  Biso   1.000  P
  O29      1.0000 0.94650  0.57900  0.71600  Biso   1.000  O
  O30      1.0000 0.88250  0.51930  0.25180  Biso   1.000  O
  O31      1.0000 0.85320  0.66920  0.38530  Biso   1.000  O
  O32      1.0000 0.07020  0.59220  0.17510  Biso   1.000  O
  V9       1.0000 0.75000  0.75000  0.28530  Biso   1.000  V
  V10      1.0000 0.25000  0.25000  0.71470  Biso   1.000  V
  C1       1.0000 0.75000  0.55200  0.66740  Biso   1.000  C
  H1       1.0000 0.75000  0.49260  0.69300  Biso   1.000  H
  H2       1.0000 0.75000  0.57670  0.85630  Biso   1.000  H
  C2       1.0000 0.75000  0.94800  0.66740  Biso   1.000  C
  H3       1.0000 0.75000  0.00740  0.69300  Biso   1.000  H
  H4       1.0000 0.75000  0.92330  0.85630  Biso   1.000  H
  C3       1.0000 0.25000  0.05200  0.33260  Biso   1.000  C
  H5       1.0000 0.25000  0.99260  0.30700  Biso   1.000  H
  H6       1.0000 0.25000  0.07670  0.14370  Biso   1.000  H
  C4       1.0000 0.25000  0.44800  0.33260  Biso   1.000  C
  H7       1.0000 0.25000  0.50740  0.30700  Biso   1.000  H
  H8       1.0000 0.25000  0.42330  0.14370  Biso   1.000  H
