data_image0
_cell_length_a       11.135
_cell_length_b       12.38
_cell_length_c       14.607
_cell_angle_alpha    84.662
_cell_angle_beta     89.537
_cell_angle_gamma    67.261

_symmetry_space_group_name_H-M    "P 1"
_symmetry_int_tables_number       1

loop_
  _symmetry_equiv_pos_as_xyz
  'x, y, z'

loop_
  _atom_site_label
  _atom_site_occupancy
  _atom_site_fract_x
  _atom_site_fract_y
  _atom_site_fract_z
  _atom_site_thermal_displace_type
  _atom_site_B_iso_or_equiv
  _atom_site_type_symbol
  Ag1      1.0000 0.27092  0.51881  0.73996  Biso   1.000  Ag
  Ag2      1.0000 0.82223  0.90341  0.91585  Biso   1.000  Ag
  Ag3      1.0000 0.24109  0.09228  0.59621  Biso   1.000  Ag
  N1       1.0000 0.09600  0.62760  0.63370  Biso   1.000  N
  N2       1.0000 0.89550  0.77600  0.51330  Biso   1.000  N
  N3       1.0000 0.10440  0.03340  0.70030  Biso   1.000  N
  N4       1.0000 0.96000  0.96150  0.82910  Biso   1.000  N
  S1       1.0000 0.01157  0.75436  0.77545  Biso   1.000  S
  C1       1.0000 0.08340  0.60320  0.54860  Biso   1.000  C
  H1       1.0000 0.14390  0.53420  0.52890  Biso   1.000  H
  C2       1.0000 0.98500  0.67550  0.48840  Biso   1.000  C
  H2       1.0000 0.98050  0.65430  0.42950  Biso   1.000  H
  C3       1.0000 0.90430  0.79900  0.59840  Biso   1.000  C
  H3       1.0000 0.84140  0.86640  0.61860  Biso   1.000  H
  C4       1.0000 0.00270  0.72740  0.65820  Biso   1.000  C
  C5       1.0000 0.02370  0.89370  0.76460  Biso   1.000  C
  C6       1.0000 0.09640  0.92800  0.70160  Biso   1.000  C
  H4       1.0000 0.14140  0.87720  0.65870  Biso   1.000  H
  C7       1.0000 0.04160  0.10090  0.76550  Biso   1.000  C
  H5       1.0000 0.04610  0.17410  0.76730  Biso   1.000  H
  C8       1.0000 0.97060  0.06570  0.83000  Biso   1.000  C
  H6       1.0000 0.92930  0.11470  0.87500  Biso   1.000  H
  N5       1.0000 0.63420  0.95100  0.81650  Biso   1.000  N
  N6       1.0000 0.42270  0.02270  0.69300  Biso   1.000  N
  N7       1.0000 0.24720  0.39000  0.85110  Biso   1.000  N
  N8       1.0000 0.19760  0.23110  0.97800  Biso   1.000  N
  S2       1.0000 0.33227  0.24516  0.72383  Biso   1.000  S
  C9       1.0000 0.61270  0.87600  0.76560  Biso   1.000  C
  H7       1.0000 0.67020  0.79750  0.77210  Biso   1.000  H
  C10      1.0000 0.50870  0.90980  0.70340  Biso   1.000  C
  H8       1.0000 0.49800  0.85460  0.66880  Biso   1.000  H
  C11      1.0000 0.44250  0.09630  0.74500  Biso   1.000  C
  C12      1.0000 0.54700  0.06260  0.80560  Biso   1.000  C
  H9       1.0000 0.55760  0.11820  0.83980  Biso   1.000  H
  C13      1.0000 0.24980  0.20020  0.89650  Biso   1.000  C
  H10      1.0000 0.26950  0.12380  0.88190  Biso   1.000  H
  C14      1.0000 0.27470  0.27870  0.83430  Biso   1.000  C
  C15      1.0000 0.19350  0.42120  0.93190  Biso   1.000  C
  H11      1.0000 0.17090  0.49830  0.94560  Biso   1.000  H
  C16      1.0000 0.17130  0.34310  0.99400  Biso   1.000  C
  H12      1.0000 0.13650  0.36800  0.05010  Biso   1.000  H
  Ag4      1.0000 0.72908  0.48119  0.26004  Biso   1.000  Ag
  Ag5      1.0000 0.17777  0.09659  0.08415  Biso   1.000  Ag
  Ag6      1.0000 0.75891  0.90772  0.40379  Biso   1.000  Ag
  N9       1.0000 0.90400  0.37240  0.36630  Biso   1.000  N
  N10      1.0000 0.10450  0.22400  0.48670  Biso   1.000  N
  N11      1.0000 0.89560  0.96660  0.29970  Biso   1.000  N
  N12      1.0000 0.04000  0.03850  0.17090  Biso   1.000  N
  S3       1.0000 0.98843  0.24564  0.22455  Biso   1.000  S
  C17      1.0000 0.91660  0.39680  0.45140  Biso   1.000  C
  H13      1.0000 0.85610  0.46580  0.47110  Biso   1.000  H
  C18      1.0000 0.01500  0.32450  0.51160  Biso   1.000  C
  H14      1.0000 0.01950  0.34570  0.57050  Biso   1.000  H
  C19      1.0000 0.09570  0.20100  0.40160  Biso   1.000  C
  H15      1.0000 0.15860  0.13360  0.38140  Biso   1.000  H
  C20      1.0000 0.99730  0.27260  0.34180  Biso   1.000  C
  C21      1.0000 0.97630  0.10630  0.23540  Biso   1.000  C
  C22      1.0000 0.90360  0.07200  0.29840  Biso   1.000  C
  H16      1.0000 0.85860  0.12280  0.34130  Biso   1.000  H
  C23      1.0000 0.95840  0.89910  0.23450  Biso   1.000  C
  H17      1.0000 0.95390  0.82590  0.23270  Biso   1.000  H
  C24      1.0000 0.02940  0.93430  0.17000  Biso   1.000  C
  H18      1.0000 0.07070  0.88530  0.12500  Biso   1.000  H
  N13      1.0000 0.36580  0.04900  0.18350  Biso   1.000  N
  N14      1.0000 0.57730  0.97730  0.30700  Biso   1.000  N
  N15      1.0000 0.75280  0.61000  0.14890  Biso   1.000  N
  N16      1.0000 0.80240  0.76890  0.02200  Biso   1.000  N
  S4       1.0000 0.66773  0.75484  0.27617  Biso   1.000  S
  C25      1.0000 0.38730  0.12400  0.23440  Biso   1.000  C
  H19      1.0000 0.32980  0.20250  0.22790  Biso   1.000  H
  C26      1.0000 0.49130  0.09020  0.29660  Biso   1.000  C
  H20      1.0000 0.50200  0.14540  0.33120  Biso   1.000  H
  C27      1.0000 0.55750  0.90370  0.25500  Biso   1.000  C
  C28      1.0000 0.45300  0.93740  0.19440  Biso   1.000  C
  H21      1.0000 0.44240  0.88180  0.16020  Biso   1.000  H
  C29      1.0000 0.75020  0.79980  0.10350  Biso   1.000  C
  H22      1.0000 0.73050  0.87620  0.11810  Biso   1.000  H
  C30      1.0000 0.72530  0.72130  0.16570  Biso   1.000  C
  C31      1.0000 0.80650  0.57880  0.06810  Biso   1.000  C
  H23      1.0000 0.82910  0.50170  0.05440  Biso   1.000  H
  C32      1.0000 0.82870  0.65690  0.00600  Biso   1.000  C
  H24      1.0000 0.86350  0.63200  0.94990  Biso   1.000  H
