data_LIWXIZ_clean
_audit_creation_date              2014-07-02
_audit_creation_method            'Materials Studio'
_symmetry_space_group_name_H-M    'P1'
_symmetry_Int_Tables_number       1
_symmetry_cell_setting            triclinic
loop_
_symmetry_equiv_pos_as_xyz
  x,y,z
_cell_length_a                    4.7890
_cell_length_b                    11.7710
_cell_length_c                    26.3290
_cell_angle_alpha                 96.8220
_cell_angle_beta                  90.0000
_cell_angle_gamma                 90.0000
loop_
_atom_site_label
_atom_site_type_symbol
_atom_site_fract_x
_atom_site_fract_y
_atom_site_fract_z
_atom_site_U_iso_or_equiv
_atom_site_adp_type
_atom_site_occupancy
Zn1    Zn    0.29553   0.09541   0.55064   0.01267  Uiso   1.00
Zn2    Zn    0.27738   0.82415   0.97052   0.01267  Uiso   1.00
Zn3    Zn    0.79553   0.90459   0.44936   0.01267  Uiso   1.00
Zn4    Zn    0.77738   0.17585   0.02948   0.01267  Uiso   1.00
H1     H     0.78980   0.25670   0.42050   0.01267  Uiso   1.00
H2     H     0.90020   0.28710   0.33750   0.01267  Uiso   1.00
H3     H     0.36110   0.04230   0.28340   0.01267  Uiso   1.00
H4     H     0.77120   0.95810   0.23210   0.01267  Uiso   1.00
H5     H     0.63040   0.83380   0.16370   0.01267  Uiso   1.00
H6     H     0.46540   0.21820   0.16370   0.01267  Uiso   1.00
H7     H     0.33190   0.23950   0.65670   0.01267  Uiso   1.00
H8     H     0.81860   0.29020   0.54650   0.01267  Uiso   1.00
H9     H     0.76420   0.44970   0.61380   0.01267  Uiso   1.00
H10    H     0.12040   0.52340   0.69400   0.01267  Uiso   1.00
H11    H     0.30190   0.42680   0.71360   0.01267  Uiso   1.00
H12    H     0.88820   0.25800   0.73430   0.01267  Uiso   1.00
H13    H     0.59070   0.24210   0.80120   0.01267  Uiso   1.00
H14    H     0.53830   0.58210   0.82770   0.01267  Uiso   1.00
H15    H     0.84060   0.59780   0.76050   0.01267  Uiso   1.00
H16    H     0.14410   0.40160   0.85370   0.01267  Uiso   1.00
H17    H     0.36290   0.32470   0.87790   0.01267  Uiso   1.00
H18    H     0.08730   0.60950   0.89700   0.01267  Uiso   1.00
H19    H     0.69020   0.62030   0.99840   0.01267  Uiso   1.00
H20    H     0.71330   0.43320   0.94720   0.01267  Uiso   1.00
H21    H     0.28980   0.74330   0.57950   0.01267  Uiso   1.00
H22    H     0.40020   0.71290   0.66250   0.01267  Uiso   1.00
H23    H     0.86110   0.95770   0.71660   0.01267  Uiso   1.00
H24    H     0.27120   0.04190   0.76790   0.01267  Uiso   1.00
H25    H     0.13040   0.16620   0.83630   0.01267  Uiso   1.00
H26    H     0.96540   0.78180   0.83630   0.01267  Uiso   1.00
H27    H     0.83190   0.76050   0.34330   0.01267  Uiso   1.00
H28    H     0.31860   0.70980   0.45350   0.01267  Uiso   1.00
H29    H     0.26420   0.55030   0.38620   0.01267  Uiso   1.00
H30    H     0.62040   0.47660   0.30600   0.01267  Uiso   1.00
H31    H     0.80190   0.57320   0.28640   0.01267  Uiso   1.00
H32    H     0.38820   0.74200   0.26570   0.01267  Uiso   1.00
H33    H     0.09070   0.75790   0.19880   0.01267  Uiso   1.00
H34    H     0.03830   0.41790   0.17230   0.01267  Uiso   1.00
H35    H     0.34060   0.40220   0.23950   0.01267  Uiso   1.00
H36    H     0.64410   0.59840   0.14630   0.01267  Uiso   1.00
H37    H     0.86290   0.67530   0.12210   0.01267  Uiso   1.00
H38    H     0.58730   0.39050   0.10300   0.01267  Uiso   1.00
H39    H     0.19020   0.37970   0.00160   0.01267  Uiso   1.00
H40    H     0.21330   0.56680   0.05280   0.01267  Uiso   1.00
C1     C     0.44500   0.11630   0.45674   0.01267  Uiso   1.00
C2     C     0.50590   0.13110   0.40192   0.01267  Uiso   1.00
C3     C     0.70320   0.21350   0.39305   0.01267  Uiso   1.00
C4     C     0.77080   0.23110   0.34332   0.01267  Uiso   1.00
C5     C     0.64540   0.16530   0.30199   0.01267  Uiso   1.00
C6     C     0.44770   0.08500   0.31101   0.01267  Uiso   1.00
C7     C     0.37440   0.06630   0.36086   0.01267  Uiso   1.00
C8     C     0.15730   0.97900   0.36766   0.01267  Uiso   1.00
C9     C     0.71450   0.18840   0.24894   0.01267  Uiso   1.00
C10    C     0.62980   0.10200   0.20527   0.01267  Uiso   1.00
C11    C     0.68090   0.98540   0.20476   0.01267  Uiso   1.00
C12    C     0.59680   0.91160   0.16358   0.01267  Uiso   1.00
C13    C     0.46400   0.94800   0.12182   0.01267  Uiso   1.00
C14    C     0.41010   0.06570   0.12245   0.01267  Uiso   1.00
C15    C     0.49680   0.14020   0.16372   0.01267  Uiso   1.00
C16    C     0.25470   0.11390   0.08033   0.01267  Uiso   1.00
C17    C     0.38690   0.86360   0.07667   0.01267  Uiso   1.00
C18    C     0.19830   0.27230   0.63738   0.01267  Uiso   1.00
C19    C     0.91650   0.29980   0.57720   0.01267  Uiso   1.00
C20    C     0.88650   0.38850   0.61420   0.01267  Uiso   1.00
C21    C     0.11910   0.44410   0.70059   0.01267  Uiso   1.00
C22    C     0.90400   0.42970   0.74101   0.01267  Uiso   1.00
C23    C     0.82100   0.32390   0.75337   0.01267  Uiso   1.00
C24    C     0.64100   0.31430   0.79333   0.01267  Uiso   1.00
C25    C     0.53370   0.41060   0.82195   0.01267  Uiso   1.00
C26    C     0.60980   0.51630   0.80919   0.01267  Uiso   1.00
C27    C     0.79270   0.52570   0.76885   0.01267  Uiso   1.00
C28    C     0.33480   0.39860   0.86582   0.01267  Uiso   1.00
C29    C     0.24000   0.58980   0.91589   0.01267  Uiso   1.00
C30    C     0.57180   0.59470   0.97148   0.01267  Uiso   1.00
C31    C     0.58590   0.49120   0.94336   0.01267  Uiso   1.00
C32    C     0.94500   0.88370   0.54326   0.01267  Uiso   1.00
C33    C     0.00590   0.86890   0.59808   0.01267  Uiso   1.00
C34    C     0.20320   0.78650   0.60695   0.01267  Uiso   1.00
C35    C     0.27080   0.76890   0.65668   0.01267  Uiso   1.00
C36    C     0.14540   0.83470   0.69801   0.01267  Uiso   1.00
C37    C     0.94770   0.91500   0.68899   0.01267  Uiso   1.00
C38    C     0.87440   0.93370   0.63914   0.01267  Uiso   1.00
C39    C     0.65730   0.02100   0.63234   0.01267  Uiso   1.00
C40    C     0.21450   0.81160   0.75106   0.01267  Uiso   1.00
C41    C     0.12980   0.89800   0.79473   0.01267  Uiso   1.00
C42    C     0.18090   0.01460   0.79524   0.01267  Uiso   1.00
C43    C     0.09680   0.08840   0.83642   0.01267  Uiso   1.00
C44    C     0.96400   0.05200   0.87818   0.01267  Uiso   1.00
C45    C     0.91010   0.93430   0.87755   0.01267  Uiso   1.00
C46    C     0.99680   0.85980   0.83628   0.01267  Uiso   1.00
C47    C     0.75470   0.88610   0.91967   0.01267  Uiso   1.00
C48    C     0.88690   0.13640   0.92333   0.01267  Uiso   1.00
C49    C     0.69830   0.72770   0.36262   0.01267  Uiso   1.00
C50    C     0.41650   0.70020   0.42280   0.01267  Uiso   1.00
C51    C     0.38650   0.61150   0.38580   0.01267  Uiso   1.00
C52    C     0.61910   0.55590   0.29941   0.01267  Uiso   1.00
C53    C     0.40400   0.57030   0.25899   0.01267  Uiso   1.00
C54    C     0.32100   0.67610   0.24663   0.01267  Uiso   1.00
C55    C     0.14100   0.68570   0.20667   0.01267  Uiso   1.00
C56    C     0.03370   0.58940   0.17805   0.01267  Uiso   1.00
C57    C     0.10980   0.48370   0.19081   0.01267  Uiso   1.00
C58    C     0.29270   0.47430   0.23115   0.01267  Uiso   1.00
C59    C     0.83480   0.60140   0.13418   0.01267  Uiso   1.00
C60    C     0.74000   0.41020   0.08411   0.01267  Uiso   1.00
C61    C     0.07180   0.40530   0.02852   0.01267  Uiso   1.00
C62    C     0.08590   0.50880   0.05664   0.01267  Uiso   1.00
N1     N     0.11300   0.22610   0.59188   0.01267  Uiso   1.00
N2     N     0.07080   0.37130   0.65241   0.01267  Uiso   1.00
N3     N     0.37670   0.48860   0.90814   0.01267  Uiso   1.00
N4     N     0.35420   0.65640   0.95407   0.01267  Uiso   1.00
N5     N     0.61300   0.77390   0.40812   0.01267  Uiso   1.00
N6     N     0.57080   0.62870   0.34759   0.01267  Uiso   1.00
N7     N     0.87670   0.51140   0.09186   0.01267  Uiso   1.00
N8     N     0.85420   0.34360   0.04593   0.01267  Uiso   1.00
O1     O     0.30490   0.18690   0.48452   0.01267  Uiso   1.00
O2     O     0.55670   0.03540   0.47638   0.01267  Uiso   1.00
O3     O     0.08460   0.97480   0.41411   0.01267  Uiso   1.00
O4     O     0.06400   0.91750   0.33056   0.01267  Uiso   1.00
O5     O     0.83000   0.27670   0.24151   0.01267  Uiso   1.00
O6     O     0.99190   0.10400   0.08094   0.01267  Uiso   1.00
O7     O     0.38070   0.17000   0.04997   0.01267  Uiso   1.00
O8     O     0.38160   0.76140   0.08066   0.01267  Uiso   1.00
O9     O     0.33880   0.90840   0.03598   0.01267  Uiso   1.00
O10    O     0.80490   0.81310   0.51548   0.01267  Uiso   1.00
O11    O     0.05670   0.96460   0.52362   0.01267  Uiso   1.00
O12    O     0.58460   0.02520   0.58589   0.01267  Uiso   1.00
O13    O     0.56400   0.08250   0.66944   0.01267  Uiso   1.00
O14    O     0.33000   0.72330   0.75849   0.01267  Uiso   1.00
O15    O     0.49190   0.89600   0.91906   0.01267  Uiso   1.00
O16    O     0.88070   0.83000   0.95003   0.01267  Uiso   1.00
O17    O     0.88160   0.23860   0.91934   0.01267  Uiso   1.00
O18    O     0.83880   0.09160   0.96402   0.01267  Uiso   1.00
