data_image0
_cell_length_a       22.2549
_cell_length_b       9.4868
_cell_length_c       15.7184
_cell_angle_alpha    90
_cell_angle_beta     91.476
_cell_angle_gamma    90

_symmetry_space_group_name_H-M    "P 1"
_symmetry_int_tables_number       1

loop_
  _symmetry_equiv_pos_as_xyz
  'x, y, z'

loop_
  _atom_site_label
  _atom_site_occupancy
  _atom_site_fract_x
  _atom_site_fract_y
  _atom_site_fract_z
  _atom_site_thermal_displace_type
  _atom_site_B_iso_or_equiv
  _atom_site_type_symbol
  Ag1      1.0000 0.32965  0.18669  0.60842  Biso   1.000  Ag
  S1       1.0000 0.28822  0.14533  0.41815  Biso   1.000  S
  N1       1.0000 0.38349  0.23780  0.49531  Biso   1.000  N
  N2       1.0000 0.44131  0.34560  0.35557  Biso   1.000  N
  N3       1.0000 0.21553  0.16399  0.28465  Biso   1.000  N
  N4       1.0000 0.28255  0.99120  0.18023  Biso   1.000  N
  C1       1.0000 0.35895  0.22700  0.41622  Biso   1.000  C
  C2       1.0000 0.38768  0.28300  0.34679  Biso   1.000  C
  H1       1.0000 0.36930  0.27690  0.29310  Biso   1.000  H
  C3       1.0000 0.46518  0.35440  0.43402  Biso   1.000  C
  H2       1.0000 0.50230  0.39790  0.44210  Biso   1.000  H
  C4       1.0000 0.43648  0.30100  0.50346  Biso   1.000  C
  H3       1.0000 0.45460  0.30930  0.55720  Biso   1.000  H
  C5       1.0000 0.26849  0.11070  0.31029  Biso   1.000  C
  C6       1.0000 0.30153  0.02320  0.25929  Biso   1.000  C
  H4       1.0000 0.33760  0.98580  0.28020  Biso   1.000  H
  C7       1.0000 0.23048  0.04580  0.15353  Biso   1.000  C
  H5       1.0000 0.21650  0.02720  0.09840  Biso   1.000  H
  C8       1.0000 0.19676  0.12950  0.20592  Biso   1.000  C
  H6       1.0000 0.15980  0.16290  0.18580  Biso   1.000  H
  Ag2      1.0000 0.82965  0.68669  0.60842  Biso   1.000  Ag
  S2       1.0000 0.78822  0.64533  0.41815  Biso   1.000  S
  N5       1.0000 0.88349  0.73780  0.49531  Biso   1.000  N
  N6       1.0000 0.94131  0.84560  0.35557  Biso   1.000  N
  N7       1.0000 0.71553  0.66399  0.28465  Biso   1.000  N
  N8       1.0000 0.78255  0.49120  0.18023  Biso   1.000  N
  C9       1.0000 0.85895  0.72700  0.41622  Biso   1.000  C
  C10      1.0000 0.88768  0.78300  0.34679  Biso   1.000  C
  H7       1.0000 0.86930  0.77690  0.29310  Biso   1.000  H
  C11      1.0000 0.96518  0.85440  0.43402  Biso   1.000  C
  H8       1.0000 0.00230  0.89790  0.44210  Biso   1.000  H
  C12      1.0000 0.93648  0.80100  0.50346  Biso   1.000  C
  H9       1.0000 0.95460  0.80930  0.55720  Biso   1.000  H
  C13      1.0000 0.76849  0.61070  0.31029  Biso   1.000  C
  C14      1.0000 0.80153  0.52320  0.25929  Biso   1.000  C
  H10      1.0000 0.83760  0.48580  0.28020  Biso   1.000  H
  C15      1.0000 0.73048  0.54580  0.15353  Biso   1.000  C
  H11      1.0000 0.71650  0.52720  0.09840  Biso   1.000  H
  C16      1.0000 0.69676  0.62950  0.20592  Biso   1.000  C
  H12      1.0000 0.65980  0.66290  0.18580  Biso   1.000  H
  Ag3      1.0000 0.67035  0.18669  0.89158  Biso   1.000  Ag
  S3       1.0000 0.71178  0.14533  0.08185  Biso   1.000  S
  N9       1.0000 0.61651  0.23780  0.00469  Biso   1.000  N
  N10      1.0000 0.55869  0.34560  0.14443  Biso   1.000  N
  N11      1.0000 0.78447  0.16399  0.21535  Biso   1.000  N
  N12      1.0000 0.71745  0.99120  0.31977  Biso   1.000  N
  C17      1.0000 0.64105  0.22700  0.08378  Biso   1.000  C
  C18      1.0000 0.61232  0.28300  0.15321  Biso   1.000  C
  H13      1.0000 0.63070  0.27690  0.20690  Biso   1.000  H
  C19      1.0000 0.53482  0.35440  0.06598  Biso   1.000  C
  H14      1.0000 0.49770  0.39790  0.05790  Biso   1.000  H
  C20      1.0000 0.56352  0.30100  0.99654  Biso   1.000  C
  H15      1.0000 0.54540  0.30930  0.94280  Biso   1.000  H
  C21      1.0000 0.73151  0.11070  0.18971  Biso   1.000  C
  C22      1.0000 0.69847  0.02320  0.24071  Biso   1.000  C
  H16      1.0000 0.66240  0.98580  0.21980  Biso   1.000  H
  C23      1.0000 0.76952  0.04580  0.34647  Biso   1.000  C
  H17      1.0000 0.78350  0.02720  0.40160  Biso   1.000  H
  C24      1.0000 0.80324  0.12950  0.29408  Biso   1.000  C
  H18      1.0000 0.84020  0.16290  0.31420  Biso   1.000  H
  Ag4      1.0000 0.17035  0.68669  0.89158  Biso   1.000  Ag
  S4       1.0000 0.21178  0.64533  0.08185  Biso   1.000  S
  N13      1.0000 0.11651  0.73780  0.00469  Biso   1.000  N
  N14      1.0000 0.05869  0.84560  0.14443  Biso   1.000  N
  N15      1.0000 0.28447  0.66399  0.21535  Biso   1.000  N
  N16      1.0000 0.21745  0.49120  0.31977  Biso   1.000  N
  C25      1.0000 0.14105  0.72700  0.08378  Biso   1.000  C
  C26      1.0000 0.11232  0.78300  0.15321  Biso   1.000  C
  H19      1.0000 0.13070  0.77690  0.20690  Biso   1.000  H
  C27      1.0000 0.03482  0.85440  0.06598  Biso   1.000  C
  H20      1.0000 0.99770  0.89790  0.05790  Biso   1.000  H
  C28      1.0000 0.06352  0.80100  0.99654  Biso   1.000  C
  H21      1.0000 0.04540  0.80930  0.94280  Biso   1.000  H
  C29      1.0000 0.23151  0.61070  0.18971  Biso   1.000  C
  C30      1.0000 0.19847  0.52320  0.24071  Biso   1.000  C
  H22      1.0000 0.16240  0.48580  0.21980  Biso   1.000  H
  C31      1.0000 0.26952  0.54580  0.34647  Biso   1.000  C
  H23      1.0000 0.28350  0.52720  0.40160  Biso   1.000  H
  C32      1.0000 0.30324  0.62950  0.29408  Biso   1.000  C
  H24      1.0000 0.34020  0.66290  0.31420  Biso   1.000  H
  Ag5      1.0000 0.67035  0.81331  0.39158  Biso   1.000  Ag
  S5       1.0000 0.71178  0.85467  0.58185  Biso   1.000  S
  N17      1.0000 0.61651  0.76220  0.50469  Biso   1.000  N
  N18      1.0000 0.55869  0.65440  0.64443  Biso   1.000  N
  N19      1.0000 0.78447  0.83601  0.71535  Biso   1.000  N
  N20      1.0000 0.71745  0.00880  0.81977  Biso   1.000  N
  C33      1.0000 0.64105  0.77300  0.58378  Biso   1.000  C
  C34      1.0000 0.61232  0.71700  0.65321  Biso   1.000  C
  H25      1.0000 0.63070  0.72310  0.70690  Biso   1.000  H
  C35      1.0000 0.53482  0.64560  0.56598  Biso   1.000  C
  H26      1.0000 0.49770  0.60210  0.55790  Biso   1.000  H
  C36      1.0000 0.56352  0.69900  0.49654  Biso   1.000  C
  H27      1.0000 0.54540  0.69070  0.44280  Biso   1.000  H
  C37      1.0000 0.73151  0.88930  0.68971  Biso   1.000  C
  C38      1.0000 0.69847  0.97680  0.74071  Biso   1.000  C
  H28      1.0000 0.66240  0.01420  0.71980  Biso   1.000  H
  C39      1.0000 0.76952  0.95420  0.84647  Biso   1.000  C
  H29      1.0000 0.78350  0.97280  0.90160  Biso   1.000  H
  C40      1.0000 0.80324  0.87050  0.79408  Biso   1.000  C
  H30      1.0000 0.84020  0.83710  0.81420  Biso   1.000  H
  Ag6      1.0000 0.17035  0.31331  0.39158  Biso   1.000  Ag
  S6       1.0000 0.21178  0.35467  0.58185  Biso   1.000  S
  N21      1.0000 0.11651  0.26220  0.50469  Biso   1.000  N
  N22      1.0000 0.05869  0.15440  0.64443  Biso   1.000  N
  N23      1.0000 0.28447  0.33601  0.71535  Biso   1.000  N
  N24      1.0000 0.21745  0.50880  0.81977  Biso   1.000  N
  C41      1.0000 0.14105  0.27300  0.58378  Biso   1.000  C
  C42      1.0000 0.11232  0.21700  0.65321  Biso   1.000  C
  H31      1.0000 0.13070  0.22310  0.70690  Biso   1.000  H
  C43      1.0000 0.03482  0.14560  0.56598  Biso   1.000  C
  H32      1.0000 0.99770  0.10210  0.55790  Biso   1.000  H
  C44      1.0000 0.06352  0.19900  0.49654  Biso   1.000  C
  H33      1.0000 0.04540  0.19070  0.44280  Biso   1.000  H
  C45      1.0000 0.23151  0.38930  0.68971  Biso   1.000  C
  C46      1.0000 0.19847  0.47680  0.74071  Biso   1.000  C
  H34      1.0000 0.16240  0.51420  0.71980  Biso   1.000  H
  C47      1.0000 0.26952  0.45420  0.84647  Biso   1.000  C
  H35      1.0000 0.28350  0.47280  0.90160  Biso   1.000  H
  C48      1.0000 0.30324  0.37050  0.79408  Biso   1.000  C
  H36      1.0000 0.34020  0.33710  0.81420  Biso   1.000  H
  Ag7      1.0000 0.32965  0.81331  0.10842  Biso   1.000  Ag
  S7       1.0000 0.28822  0.85467  0.91815  Biso   1.000  S
  N25      1.0000 0.38349  0.76220  0.99531  Biso   1.000  N
  N26      1.0000 0.44131  0.65440  0.85557  Biso   1.000  N
  N27      1.0000 0.21553  0.83601  0.78465  Biso   1.000  N
  N28      1.0000 0.28255  0.00880  0.68023  Biso   1.000  N
  C49      1.0000 0.35895  0.77300  0.91622  Biso   1.000  C
  C50      1.0000 0.38768  0.71700  0.84679  Biso   1.000  C
  H37      1.0000 0.36930  0.72310  0.79310  Biso   1.000  H
  C51      1.0000 0.46518  0.64560  0.93402  Biso   1.000  C
  H38      1.0000 0.50230  0.60210  0.94210  Biso   1.000  H
  C52      1.0000 0.43648  0.69900  0.00346  Biso   1.000  C
  H39      1.0000 0.45460  0.69070  0.05720  Biso   1.000  H
  C53      1.0000 0.26849  0.88930  0.81029  Biso   1.000  C
  C54      1.0000 0.30153  0.97680  0.75929  Biso   1.000  C
  H40      1.0000 0.33760  0.01420  0.78020  Biso   1.000  H
  C55      1.0000 0.23048  0.95420  0.65353  Biso   1.000  C
  H41      1.0000 0.21650  0.97280  0.59840  Biso   1.000  H
  C56      1.0000 0.19676  0.87050  0.70592  Biso   1.000  C
  H42      1.0000 0.15980  0.83710  0.68580  Biso   1.000  H
  Ag8      1.0000 0.82965  0.31331  0.10842  Biso   1.000  Ag
  S8       1.0000 0.78822  0.35467  0.91815  Biso   1.000  S
  N29      1.0000 0.88349  0.26220  0.99531  Biso   1.000  N
  N30      1.0000 0.94131  0.15440  0.85557  Biso   1.000  N
  N31      1.0000 0.71553  0.33601  0.78465  Biso   1.000  N
  N32      1.0000 0.78255  0.50880  0.68023  Biso   1.000  N
  C57      1.0000 0.85895  0.27300  0.91622  Biso   1.000  C
  C58      1.0000 0.88768  0.21700  0.84679  Biso   1.000  C
  H43      1.0000 0.86930  0.22310  0.79310  Biso   1.000  H
  C59      1.0000 0.96518  0.14560  0.93402  Biso   1.000  C
  H44      1.0000 0.00230  0.10210  0.94210  Biso   1.000  H
  C60      1.0000 0.93648  0.19900  0.00346  Biso   1.000  C
  H45      1.0000 0.95460  0.19070  0.05720  Biso   1.000  H
  C61      1.0000 0.76849  0.38930  0.81029  Biso   1.000  C
  C62      1.0000 0.80153  0.47680  0.75929  Biso   1.000  C
  H46      1.0000 0.83760  0.51420  0.78020  Biso   1.000  H
  C63      1.0000 0.73048  0.45420  0.65353  Biso   1.000  C
  H47      1.0000 0.71650  0.47280  0.59840  Biso   1.000  H
  C64      1.0000 0.69676  0.37050  0.70592  Biso   1.000  C
  H48      1.0000 0.65980  0.33710  0.68580  Biso   1.000  H
  Ag9      1.0000 0.50000  0.42475  0.25000  Biso   1.000  Ag
  Ag10     1.0000 0.00000  0.92475  0.25000  Biso   1.000  Ag
  Ag11     1.0000 0.50000  0.57525  0.75000  Biso   1.000  Ag
  Ag12     1.0000 0.00000  0.07525  0.75000  Biso   1.000  Ag
