data_image0
_cell_length_a       9.096
_cell_length_b       11.996
_cell_length_c       15.144
_cell_angle_alpha    90
_cell_angle_beta     99.4
_cell_angle_gamma    90

_symmetry_space_group_name_H-M    "P 1"
_symmetry_int_tables_number       1

loop_
  _symmetry_equiv_pos_as_xyz
  'x, y, z'

loop_
  _atom_site_label
  _atom_site_occupancy
  _atom_site_fract_x
  _atom_site_fract_y
  _atom_site_fract_z
  _atom_site_thermal_displace_type
  _atom_site_B_iso_or_equiv
  _atom_site_type_symbol
  In1      1.0000 0.05110  0.91740  0.00290  Biso   1.000  In
  K1       1.0000 0.44410  0.03180  0.36430  Biso   1.000  K
  O1       1.0000 0.11370  0.02690  0.11260  Biso   1.000  O
  O2       1.0000 0.28030  0.06300  0.23200  Biso   1.000  O
  O3       1.0000 0.26120  0.89460  0.94790  Biso   1.000  O
  O4       1.0000 0.44040  0.77480  0.92740  Biso   1.000  O
  O5       1.0000 0.81760  0.97960  0.97170  Biso   1.000  O
  O6       1.0000 0.59410  0.99730  0.01230  Biso   1.000  O
  O7       1.0000 0.97850  0.77960  0.91910  Biso   1.000  O
  O8       1.0000 0.81910  0.64070  0.88970  Biso   1.000  O
  N1       1.0000 0.22110  0.80810  0.10440  Biso   1.000  N
  N2       1.0000 0.90140  0.81610  0.09010  Biso   1.000  N
  C1       1.0000 0.22850  0.00230  0.17100  Biso   1.000  C
  C2       1.0000 0.31110  0.89410  0.16040  Biso   1.000  C
  C3       1.0000 0.34140  0.80770  0.96990  Biso   1.000  C
  C4       1.0000 0.31560  0.74400  0.05150  Biso   1.000  C
  C5       1.0000 0.14220  0.73400  0.15990  Biso   1.000  C
  C6       1.0000 0.99640  0.78270  0.17610  Biso   1.000  C
  C7       1.0000 0.78010  0.89110  0.10470  Biso   1.000  C
  C8       1.0000 0.72220  0.96060  0.02340  Biso   1.000  C
  C9       1.0000 0.84160  0.71880  0.03480  Biso   1.000  C
  C10      1.0000 0.88100  0.71390  0.94080  Biso   1.000  C
  In2      1.0000 0.55110  0.41740  0.00290  Biso   1.000  In
  K2       1.0000 0.94410  0.53180  0.36430  Biso   1.000  K
  O9       1.0000 0.61370  0.52690  0.11260  Biso   1.000  O
  O10      1.0000 0.78030  0.56300  0.23200  Biso   1.000  O
  O11      1.0000 0.76120  0.39460  0.94790  Biso   1.000  O
  O12      1.0000 0.94040  0.27480  0.92740  Biso   1.000  O
  O13      1.0000 0.31760  0.47960  0.97170  Biso   1.000  O
  O14      1.0000 0.09410  0.49730  0.01230  Biso   1.000  O
  O15      1.0000 0.47850  0.27960  0.91910  Biso   1.000  O
  O16      1.0000 0.31910  0.14070  0.88970  Biso   1.000  O
  N3       1.0000 0.72110  0.30810  0.10440  Biso   1.000  N
  N4       1.0000 0.40140  0.31610  0.09010  Biso   1.000  N
  C11      1.0000 0.72850  0.50230  0.17100  Biso   1.000  C
  C12      1.0000 0.81110  0.39410  0.16040  Biso   1.000  C
  C13      1.0000 0.84140  0.30770  0.96990  Biso   1.000  C
  C14      1.0000 0.81560  0.24400  0.05150  Biso   1.000  C
  C15      1.0000 0.64220  0.23400  0.15990  Biso   1.000  C
  C16      1.0000 0.49640  0.28270  0.17610  Biso   1.000  C
  C17      1.0000 0.28010  0.39110  0.10470  Biso   1.000  C
  C18      1.0000 0.22220  0.46060  0.02340  Biso   1.000  C
  C19      1.0000 0.34160  0.21880  0.03480  Biso   1.000  C
  C20      1.0000 0.38100  0.21390  0.94080  Biso   1.000  C
  In3      1.0000 0.05110  0.08260  0.50290  Biso   1.000  In
  K3       1.0000 0.44410  0.96820  0.86430  Biso   1.000  K
  O17      1.0000 0.11370  0.97310  0.61260  Biso   1.000  O
  O18      1.0000 0.28030  0.93700  0.73200  Biso   1.000  O
  O19      1.0000 0.26120  0.10540  0.44790  Biso   1.000  O
  O20      1.0000 0.44040  0.22520  0.42740  Biso   1.000  O
  O21      1.0000 0.81760  0.02040  0.47170  Biso   1.000  O
  O22      1.0000 0.59410  0.00270  0.51230  Biso   1.000  O
  O23      1.0000 0.97850  0.22040  0.41910  Biso   1.000  O
  O24      1.0000 0.81910  0.35930  0.38970  Biso   1.000  O
  N5       1.0000 0.22110  0.19190  0.60440  Biso   1.000  N
  N6       1.0000 0.90140  0.18390  0.59010  Biso   1.000  N
  C21      1.0000 0.22850  0.99770  0.67100  Biso   1.000  C
  C22      1.0000 0.31110  0.10590  0.66040  Biso   1.000  C
  C23      1.0000 0.34140  0.19230  0.46990  Biso   1.000  C
  C24      1.0000 0.31560  0.25600  0.55150  Biso   1.000  C
  C25      1.0000 0.14220  0.26600  0.65990  Biso   1.000  C
  C26      1.0000 0.99640  0.21730  0.67610  Biso   1.000  C
  C27      1.0000 0.78010  0.10890  0.60470  Biso   1.000  C
  C28      1.0000 0.72220  0.03940  0.52340  Biso   1.000  C
  C29      1.0000 0.84160  0.28120  0.53480  Biso   1.000  C
  C30      1.0000 0.88100  0.28610  0.44080  Biso   1.000  C
  In4      1.0000 0.55110  0.58260  0.50290  Biso   1.000  In
  K4       1.0000 0.94410  0.46820  0.86430  Biso   1.000  K
  O25      1.0000 0.61370  0.47310  0.61260  Biso   1.000  O
  O26      1.0000 0.78030  0.43700  0.73200  Biso   1.000  O
  O27      1.0000 0.76120  0.60540  0.44790  Biso   1.000  O
  O28      1.0000 0.94040  0.72520  0.42740  Biso   1.000  O
  O29      1.0000 0.31760  0.52040  0.47170  Biso   1.000  O
  O30      1.0000 0.09410  0.50270  0.51230  Biso   1.000  O
  O31      1.0000 0.47850  0.72040  0.41910  Biso   1.000  O
  O32      1.0000 0.31910  0.85930  0.38970  Biso   1.000  O
  N7       1.0000 0.72110  0.69190  0.60440  Biso   1.000  N
  N8       1.0000 0.40140  0.68390  0.59010  Biso   1.000  N
  C31      1.0000 0.72850  0.49770  0.67100  Biso   1.000  C
  C32      1.0000 0.81110  0.60590  0.66040  Biso   1.000  C
  C33      1.0000 0.84140  0.69230  0.46990  Biso   1.000  C
  C34      1.0000 0.81560  0.75600  0.55150  Biso   1.000  C
  C35      1.0000 0.64220  0.76600  0.65990  Biso   1.000  C
  C36      1.0000 0.49640  0.71730  0.67610  Biso   1.000  C
  C37      1.0000 0.28010  0.60890  0.60470  Biso   1.000  C
  C38      1.0000 0.22220  0.53940  0.52340  Biso   1.000  C
  C39      1.0000 0.34160  0.78120  0.53480  Biso   1.000  C
  C40      1.0000 0.38100  0.78610  0.44080  Biso   1.000  C
