data_image0
_cell_length_a       13.486
_cell_length_b       13.486
_cell_length_c       18.31
_cell_angle_alpha    90
_cell_angle_beta     90
_cell_angle_gamma    120

_symmetry_space_group_name_H-M    "P 1"
_symmetry_int_tables_number       1

loop_
  _symmetry_equiv_pos_as_xyz
  'x, y, z'

loop_
  _atom_site_label
  _atom_site_occupancy
  _atom_site_fract_x
  _atom_site_fract_y
  _atom_site_fract_z
  _atom_site_thermal_displace_type
  _atom_site_B_iso_or_equiv
  _atom_site_type_symbol
  Fe1      1.0000 0.29352  0.43733  0.45609  Biso   1.000  Fe
  P1       1.0000 0.15791  0.18893  0.37080  Biso   1.000  P
  H1       1.0000 0.22730  0.19520  0.34910  Biso   1.000  H
  P2       1.0000 0.50478  0.63193  0.55280  Biso   1.000  P
  H2       1.0000 0.50310  0.67600  0.59490  Biso   1.000  H
  O1       1.0000 0.06590  0.14050  0.31224  Biso   1.000  O
  O2       1.0000 0.13080  0.11460  0.43815  Biso   1.000  O
  O3       1.0000 0.32810  0.55560  0.38063  Biso   1.000  O
  O4       1.0000 0.38170  0.54580  0.53510  Biso   1.000  O
  O5       1.0000 0.57390  0.57630  0.57590  Biso   1.000  O
  O6       1.0000 0.56650  0.71780  0.49170  Biso   1.000  O
  O7       1.0000 0.18480  0.31070  0.38900  Biso   1.000  O
  Fe2      1.0000 0.56267  0.85619  0.45609  Biso   1.000  Fe
  P3       1.0000 0.81107  0.96898  0.37080  Biso   1.000  P
  H3       1.0000 0.80480  0.03210  0.34910  Biso   1.000  H
  P4       1.0000 0.36807  0.87285  0.55280  Biso   1.000  P
  H4       1.0000 0.32400  0.82710  0.59490  Biso   1.000  H
  O8       1.0000 0.85950  0.92540  0.31224  Biso   1.000  O
  O9       1.0000 0.88540  0.01620  0.43815  Biso   1.000  O
  O10      1.0000 0.44440  0.77250  0.38063  Biso   1.000  O
  O11      1.0000 0.45420  0.83590  0.53510  Biso   1.000  O
  O12      1.0000 0.42370  0.99760  0.57590  Biso   1.000  O
  O13      1.0000 0.28220  0.84870  0.49170  Biso   1.000  O
  O14      1.0000 0.68930  0.87410  0.38900  Biso   1.000  O
  Fe3      1.0000 0.14381  0.70648  0.45609  Biso   1.000  Fe
  P5       1.0000 0.03102  0.84209  0.37080  Biso   1.000  P
  H5       1.0000 0.96790  0.77270  0.34910  Biso   1.000  H
  P6       1.0000 0.12715  0.49522  0.55280  Biso   1.000  P
  H6       1.0000 0.17290  0.49690  0.59490  Biso   1.000  H
  O15      1.0000 0.07460  0.93410  0.31224  Biso   1.000  O
  O16      1.0000 0.98380  0.86920  0.43815  Biso   1.000  O
  O17      1.0000 0.22750  0.67190  0.38063  Biso   1.000  O
  O18      1.0000 0.16410  0.61830  0.53510  Biso   1.000  O
  O19      1.0000 0.00240  0.42610  0.57590  Biso   1.000  O
  O20      1.0000 0.15130  0.43350  0.49170  Biso   1.000  O
  O21      1.0000 0.12590  0.81520  0.38900  Biso   1.000  O
  Fe4      1.0000 0.43733  0.29352  0.04391  Biso   1.000  Fe
  P7       1.0000 0.18893  0.15791  0.12920  Biso   1.000  P
  H7       1.0000 0.19520  0.22730  0.15090  Biso   1.000  H
  P8       1.0000 0.63193  0.50478  0.94720  Biso   1.000  P
  H8       1.0000 0.67600  0.50310  0.90510  Biso   1.000  H
  O22      1.0000 0.14050  0.06590  0.18776  Biso   1.000  O
  O23      1.0000 0.11460  0.13080  0.06185  Biso   1.000  O
  O24      1.0000 0.55560  0.32810  0.11937  Biso   1.000  O
  O25      1.0000 0.54580  0.38170  0.96490  Biso   1.000  O
  O26      1.0000 0.57630  0.57390  0.92410  Biso   1.000  O
  O27      1.0000 0.71780  0.56650  0.00830  Biso   1.000  O
  O28      1.0000 0.31070  0.18480  0.11100  Biso   1.000  O
  Fe5      1.0000 0.85619  0.56267  0.04391  Biso   1.000  Fe
  P9       1.0000 0.96898  0.81107  0.12920  Biso   1.000  P
  H9       1.0000 0.03210  0.80480  0.15090  Biso   1.000  H
  P10      1.0000 0.87285  0.36807  0.94720  Biso   1.000  P
  H10      1.0000 0.82710  0.32400  0.90510  Biso   1.000  H
  O29      1.0000 0.92540  0.85950  0.18776  Biso   1.000  O
  O30      1.0000 0.01620  0.88540  0.06185  Biso   1.000  O
  O31      1.0000 0.77250  0.44440  0.11937  Biso   1.000  O
  O32      1.0000 0.83590  0.45420  0.96490  Biso   1.000  O
  O33      1.0000 0.99760  0.42370  0.92410  Biso   1.000  O
  O34      1.0000 0.84870  0.28220  0.00830  Biso   1.000  O
  O35      1.0000 0.87410  0.68930  0.11100  Biso   1.000  O
  Fe6      1.0000 0.70648  0.14381  0.04391  Biso   1.000  Fe
  P11      1.0000 0.84209  0.03102  0.12920  Biso   1.000  P
  H11      1.0000 0.77270  0.96790  0.15090  Biso   1.000  H
  P12      1.0000 0.49522  0.12715  0.94720  Biso   1.000  P
  H12      1.0000 0.49690  0.17290  0.90510  Biso   1.000  H
  O36      1.0000 0.93410  0.07460  0.18776  Biso   1.000  O
  O37      1.0000 0.86920  0.98380  0.06185  Biso   1.000  O
  O38      1.0000 0.67190  0.22750  0.11937  Biso   1.000  O
  O39      1.0000 0.61830  0.16410  0.96490  Biso   1.000  O
  O40      1.0000 0.42610  0.00240  0.92410  Biso   1.000  O
  O41      1.0000 0.43350  0.15130  0.00830  Biso   1.000  O
  O42      1.0000 0.81520  0.12590  0.11100  Biso   1.000  O
  Fe7      1.0000 0.70648  0.56267  0.54391  Biso   1.000  Fe
  P13      1.0000 0.84209  0.81107  0.62920  Biso   1.000  P
  H13      1.0000 0.77270  0.80480  0.65090  Biso   1.000  H
  P14      1.0000 0.49522  0.36807  0.44720  Biso   1.000  P
  H14      1.0000 0.49690  0.32400  0.40510  Biso   1.000  H
  O43      1.0000 0.93410  0.85950  0.68776  Biso   1.000  O
  O44      1.0000 0.86920  0.88540  0.56185  Biso   1.000  O
  O45      1.0000 0.67190  0.44440  0.61937  Biso   1.000  O
  O46      1.0000 0.61830  0.45420  0.46490  Biso   1.000  O
  O47      1.0000 0.42610  0.42370  0.42410  Biso   1.000  O
  O48      1.0000 0.43350  0.28220  0.50830  Biso   1.000  O
  O49      1.0000 0.81520  0.68930  0.61100  Biso   1.000  O
  Fe8      1.0000 0.43733  0.14381  0.54391  Biso   1.000  Fe
  P15      1.0000 0.18893  0.03102  0.62920  Biso   1.000  P
  H15      1.0000 0.19520  0.96790  0.65090  Biso   1.000  H
  P16      1.0000 0.63193  0.12715  0.44720  Biso   1.000  P
  H16      1.0000 0.67600  0.17290  0.40510  Biso   1.000  H
  O50      1.0000 0.14050  0.07460  0.68776  Biso   1.000  O
  O51      1.0000 0.11460  0.98380  0.56185  Biso   1.000  O
  O52      1.0000 0.55560  0.22750  0.61937  Biso   1.000  O
  O53      1.0000 0.54580  0.16410  0.46490  Biso   1.000  O
  O54      1.0000 0.57630  0.00240  0.42410  Biso   1.000  O
  O55      1.0000 0.71780  0.15130  0.50830  Biso   1.000  O
  O56      1.0000 0.31070  0.12590  0.61100  Biso   1.000  O
  Fe9      1.0000 0.85619  0.29352  0.54391  Biso   1.000  Fe
  P17      1.0000 0.96898  0.15791  0.62920  Biso   1.000  P
  H17      1.0000 0.03210  0.22730  0.65090  Biso   1.000  H
  P18      1.0000 0.87285  0.50478  0.44720  Biso   1.000  P
  H18      1.0000 0.82710  0.50310  0.40510  Biso   1.000  H
  O57      1.0000 0.92540  0.06590  0.68776  Biso   1.000  O
  O58      1.0000 0.01620  0.13080  0.56185  Biso   1.000  O
  O59      1.0000 0.77250  0.32810  0.61937  Biso   1.000  O
  O60      1.0000 0.83590  0.38170  0.46490  Biso   1.000  O
  O61      1.0000 0.99760  0.57390  0.42410  Biso   1.000  O
  O62      1.0000 0.84870  0.56650  0.50830  Biso   1.000  O
  O63      1.0000 0.87410  0.18480  0.61100  Biso   1.000  O
  Fe10     1.0000 0.56267  0.70648  0.95609  Biso   1.000  Fe
  P19      1.0000 0.81107  0.84209  0.87080  Biso   1.000  P
  H19      1.0000 0.80480  0.77270  0.84910  Biso   1.000  H
  P20      1.0000 0.36807  0.49522  0.05280  Biso   1.000  P
  H20      1.0000 0.32400  0.49690  0.09490  Biso   1.000  H
  O64      1.0000 0.85950  0.93410  0.81224  Biso   1.000  O
  O65      1.0000 0.88540  0.86920  0.93815  Biso   1.000  O
  O66      1.0000 0.44440  0.67190  0.88063  Biso   1.000  O
  O67      1.0000 0.45420  0.61830  0.03510  Biso   1.000  O
  O68      1.0000 0.42370  0.42610  0.07590  Biso   1.000  O
  O69      1.0000 0.28220  0.43350  0.99170  Biso   1.000  O
  O70      1.0000 0.68930  0.81520  0.88900  Biso   1.000  O
  Fe11     1.0000 0.14381  0.43733  0.95609  Biso   1.000  Fe
  P21      1.0000 0.03102  0.18893  0.87080  Biso   1.000  P
  H21      1.0000 0.96790  0.19520  0.84910  Biso   1.000  H
  P22      1.0000 0.12715  0.63193  0.05280  Biso   1.000  P
  H22      1.0000 0.17290  0.67600  0.09490  Biso   1.000  H
  O71      1.0000 0.07460  0.14050  0.81224  Biso   1.000  O
  O72      1.0000 0.98380  0.11460  0.93815  Biso   1.000  O
  O73      1.0000 0.22750  0.55560  0.88063  Biso   1.000  O
  O74      1.0000 0.16410  0.54580  0.03510  Biso   1.000  O
  O75      1.0000 0.00240  0.57630  0.07590  Biso   1.000  O
  O76      1.0000 0.15130  0.71780  0.99170  Biso   1.000  O
  O77      1.0000 0.12590  0.31070  0.88900  Biso   1.000  O
  Fe12     1.0000 0.29352  0.85619  0.95609  Biso   1.000  Fe
  P23      1.0000 0.15791  0.96898  0.87080  Biso   1.000  P
  H23      1.0000 0.22730  0.03210  0.84910  Biso   1.000  H
  P24      1.0000 0.50478  0.87285  0.05280  Biso   1.000  P
  H24      1.0000 0.50310  0.82710  0.09490  Biso   1.000  H
  O78      1.0000 0.06590  0.92540  0.81224  Biso   1.000  O
  O79      1.0000 0.13080  0.01620  0.93815  Biso   1.000  O
  O80      1.0000 0.32810  0.77250  0.88063  Biso   1.000  O
  O81      1.0000 0.38170  0.83590  0.03510  Biso   1.000  O
  O82      1.0000 0.57390  0.99760  0.07590  Biso   1.000  O
  O83      1.0000 0.56650  0.84870  0.99170  Biso   1.000  O
  O84      1.0000 0.18480  0.87410  0.88900  Biso   1.000  O
  Fe13     1.0000 0.00000  0.00000  0.25000  Biso   1.000  Fe
  Fe14     1.0000 0.00000  0.00000  0.75000  Biso   1.000  Fe
  Fe15     1.0000 0.00000  0.00000  0.50000  Biso   1.000  Fe
  Fe16     1.0000 0.00000  0.00000  0.00000  Biso   1.000  Fe
  P25      1.0000 0.33333  0.66667  0.36092  Biso   1.000  P
  P26      1.0000 0.66667  0.33333  0.13908  Biso   1.000  P
  P27      1.0000 0.66667  0.33333  0.63908  Biso   1.000  P
  P28      1.0000 0.33333  0.66667  0.86092  Biso   1.000  P
