data_LIXWAR_clean
_audit_creation_date              2014-07-02
_audit_creation_method            'Materials Studio'
_symmetry_space_group_name_H-M    'P1'
_symmetry_Int_Tables_number       1
_symmetry_cell_setting            triclinic
loop_
_symmetry_equiv_pos_as_xyz
  x,y,z
_cell_length_a                    11.2232
_cell_length_b                    11.2232
_cell_length_c                    21.2550
_cell_angle_alpha                 95.8060
_cell_angle_beta                  95.8060
_cell_angle_gamma                 106.9850
loop_
_atom_site_label
_atom_site_type_symbol
_atom_site_fract_x
_atom_site_fract_y
_atom_site_fract_z
_atom_site_U_iso_or_equiv
_atom_site_adp_type
_atom_site_occupancy
Mn1    Mn    0.00036   0.48284   0.19210   0.01267  Uiso   1.00
Mn2    Mn    0.51716   0.99964   0.30790   0.01267  Uiso   1.00
Mn3    Mn    0.99964   0.51716   0.80790   0.01267  Uiso   1.00
Mn4    Mn    0.48284   0.00036   0.69210   0.01267  Uiso   1.00
Mn5    Mn    0.74737   0.25263   0.25000   0.01267  Uiso   1.00
Mn6    Mn    0.25263   0.74737   0.75000   0.01267  Uiso   1.00
H1     H     0.75650   0.46970   0.49340   0.01267  Uiso   1.00
H2     H     0.84820   0.45220   0.39100   0.01267  Uiso   1.00
H3     H     0.76740   0.98040   0.09450   0.01267  Uiso   1.00
H4     H     0.77680   0.84400   0.00920   0.01267  Uiso   1.00
H5     H     0.10510   0.21350   0.07690   0.01267  Uiso   1.00
H6     H     0.67060   0.56360   0.92250   0.01267  Uiso   1.00
H7     H     0.73750   0.50890   0.02870   0.01267  Uiso   1.00
H8     H     0.21870   0.50530   0.39760   0.01267  Uiso   1.00
H9     H     0.48260   0.40360   0.14730   0.01267  Uiso   1.00
H10    H     0.53030   0.24350   0.00660   0.01267  Uiso   1.00
H11    H     0.54780   0.15180   0.10900   0.01267  Uiso   1.00
H12    H     0.01960   0.23260   0.40550   0.01267  Uiso   1.00
H13    H     0.15600   0.22320   0.49080   0.01267  Uiso   1.00
H14    H     0.78650   0.89490   0.42310   0.01267  Uiso   1.00
H15    H     0.43640   0.32940   0.57750   0.01267  Uiso   1.00
H16    H     0.49110   0.26250   0.47130   0.01267  Uiso   1.00
H17    H     0.49470   0.78130   0.10240   0.01267  Uiso   1.00
H18    H     0.59640   0.51740   0.35270   0.01267  Uiso   1.00
H19    H     0.24350   0.53030   0.50660   0.01267  Uiso   1.00
H20    H     0.15180   0.54780   0.60900   0.01267  Uiso   1.00
H21    H     0.23260   0.01960   0.90550   0.01267  Uiso   1.00
H22    H     0.22320   0.15600   0.99080   0.01267  Uiso   1.00
H23    H     0.89490   0.78650   0.92310   0.01267  Uiso   1.00
H24    H     0.32940   0.43640   0.07750   0.01267  Uiso   1.00
H25    H     0.26250   0.49110   0.97130   0.01267  Uiso   1.00
H26    H     0.78130   0.49470   0.60240   0.01267  Uiso   1.00
H27    H     0.51740   0.59640   0.85270   0.01267  Uiso   1.00
H28    H     0.46970   0.75650   0.99340   0.01267  Uiso   1.00
H29    H     0.45220   0.84820   0.89100   0.01267  Uiso   1.00
H30    H     0.98040   0.76740   0.59450   0.01267  Uiso   1.00
H31    H     0.84400   0.77680   0.50920   0.01267  Uiso   1.00
H32    H     0.21350   0.10510   0.57690   0.01267  Uiso   1.00
H33    H     0.56360   0.67060   0.42250   0.01267  Uiso   1.00
H34    H     0.50890   0.73750   0.52870   0.01267  Uiso   1.00
H35    H     0.50530   0.21870   0.89760   0.01267  Uiso   1.00
H36    H     0.40360   0.48260   0.64730   0.01267  Uiso   1.00
C1     C     0.93950   0.48810   0.48252   0.01267  Uiso   1.00
C2     C     0.95050   0.94450   0.98965   0.01267  Uiso   1.00
C3     C     0.01620   0.46480   0.31263   0.01267  Uiso   1.00
C4     C     0.83580   0.48360   0.51610   0.01267  Uiso   1.00
C5     C     0.92720   0.46980   0.41459   0.01267  Uiso   1.00
C6     C     0.83760   0.99940   0.07310   0.01267  Uiso   1.00
C7     C     0.02830   0.47730   0.38374   0.01267  Uiso   1.00
C8     C     0.84300   0.91740   0.02240   0.01267  Uiso   1.00
C9     C     0.72290   0.42190   0.13950   0.01267  Uiso   1.00
C10    C     0.92430   0.20410   0.14810   0.01267  Uiso   1.00
C11    C     0.03990   0.13930   0.06300   0.01267  Uiso   1.00
C12    C     0.93480   0.11160   0.09377   0.01267  Uiso   1.00
C13    C     0.58980   0.55060   0.93320   0.01267  Uiso   1.00
C14    C     0.65540   0.49260   0.03780   0.01267  Uiso   1.00
C15    C     0.14950   0.50070   0.41890   0.01267  Uiso   1.00
C16    C     0.56170   0.51130   0.99240   0.01267  Uiso   1.00
C17    C     0.62630   0.45130   0.09410   0.01267  Uiso   1.00
C18    C     0.50220   0.43060   0.10860   0.01267  Uiso   1.00
C19    C     0.51190   0.06050   0.01748   0.01267  Uiso   1.00
C20    C     0.05550   0.04950   0.51035   0.01267  Uiso   1.00
C21    C     0.53520   0.98380   0.18737   0.01267  Uiso   1.00
C22    C     0.51640   0.16420   0.98390   0.01267  Uiso   1.00
C23    C     0.53020   0.07280   0.08541   0.01267  Uiso   1.00
C24    C     0.00060   0.16240   0.42690   0.01267  Uiso   1.00
C25    C     0.52270   0.97170   0.11626   0.01267  Uiso   1.00
C26    C     0.08260   0.15700   0.47760   0.01267  Uiso   1.00
C27    C     0.57810   0.27710   0.36050   0.01267  Uiso   1.00
C28    C     0.79590   0.07570   0.35190   0.01267  Uiso   1.00
C29    C     0.86070   0.96010   0.43700   0.01267  Uiso   1.00
C30    C     0.88840   0.06520   0.40623   0.01267  Uiso   1.00
C31    C     0.44940   0.41020   0.56680   0.01267  Uiso   1.00
C32    C     0.50740   0.34460   0.46220   0.01267  Uiso   1.00
C33    C     0.49930   0.85050   0.08110   0.01267  Uiso   1.00
C34    C     0.48870   0.43830   0.50760   0.01267  Uiso   1.00
C35    C     0.54870   0.37370   0.40590   0.01267  Uiso   1.00
C36    C     0.56940   0.49780   0.39140   0.01267  Uiso   1.00
C37    C     0.06050   0.51190   0.51748   0.01267  Uiso   1.00
C38    C     0.04950   0.05550   0.01035   0.01267  Uiso   1.00
C39    C     0.98380   0.53520   0.68737   0.01267  Uiso   1.00
C40    C     0.16420   0.51640   0.48390   0.01267  Uiso   1.00
C41    C     0.07280   0.53020   0.58541   0.01267  Uiso   1.00
C42    C     0.16240   0.00060   0.92690   0.01267  Uiso   1.00
C43    C     0.97170   0.52270   0.61626   0.01267  Uiso   1.00
C44    C     0.15700   0.08260   0.97760   0.01267  Uiso   1.00
C45    C     0.27710   0.57810   0.86050   0.01267  Uiso   1.00
C46    C     0.07570   0.79590   0.85190   0.01267  Uiso   1.00
C47    C     0.96010   0.86070   0.93700   0.01267  Uiso   1.00
C48    C     0.06520   0.88840   0.90623   0.01267  Uiso   1.00
C49    C     0.41020   0.44940   0.06680   0.01267  Uiso   1.00
C50    C     0.34460   0.50740   0.96220   0.01267  Uiso   1.00
C51    C     0.85050   0.49930   0.58110   0.01267  Uiso   1.00
C52    C     0.43830   0.48870   0.00760   0.01267  Uiso   1.00
C53    C     0.37370   0.54870   0.90590   0.01267  Uiso   1.00
C54    C     0.49780   0.56940   0.89140   0.01267  Uiso   1.00
C55    C     0.48810   0.93950   0.98252   0.01267  Uiso   1.00
C56    C     0.94450   0.95050   0.48965   0.01267  Uiso   1.00
C57    C     0.46480   0.01620   0.81263   0.01267  Uiso   1.00
C58    C     0.48360   0.83580   0.01610   0.01267  Uiso   1.00
C59    C     0.46980   0.92720   0.91459   0.01267  Uiso   1.00
C60    C     0.99940   0.83760   0.57310   0.01267  Uiso   1.00
C61    C     0.47730   0.02830   0.88374   0.01267  Uiso   1.00
C62    C     0.91740   0.84300   0.52240   0.01267  Uiso   1.00
C63    C     0.42190   0.72290   0.63950   0.01267  Uiso   1.00
C64    C     0.20410   0.92430   0.64810   0.01267  Uiso   1.00
C65    C     0.13930   0.03990   0.56300   0.01267  Uiso   1.00
C66    C     0.11160   0.93480   0.59377   0.01267  Uiso   1.00
C67    C     0.55060   0.58980   0.43320   0.01267  Uiso   1.00
C68    C     0.49260   0.65540   0.53780   0.01267  Uiso   1.00
C69    C     0.50070   0.14950   0.91890   0.01267  Uiso   1.00
C70    C     0.51130   0.56170   0.49240   0.01267  Uiso   1.00
C71    C     0.45130   0.62630   0.59410   0.01267  Uiso   1.00
C72    C     0.43060   0.50220   0.60860   0.01267  Uiso   1.00
O1     O     0.90812   0.42148   0.27969   0.01267  Uiso   1.00
O2     O     0.01050   0.30690   0.15941   0.01267  Uiso   1.00
O3     O     0.83236   0.17064   0.17776   0.01267  Uiso   1.00
O4     O     0.11200   0.50520   0.28674   0.01267  Uiso   1.00
O5     O     0.83550   0.45790   0.12953   0.01267  Uiso   1.00
O6     O     0.68210   0.36050   0.18351   0.01267  Uiso   1.00
O7     O     0.57852   0.09188   0.22031   0.01267  Uiso   1.00
O8     O     0.69310   0.98950   0.34059   0.01267  Uiso   1.00
O9     O     0.82936   0.16764   0.32224   0.01267  Uiso   1.00
O10    O     0.49480   0.88800   0.21326   0.01267  Uiso   1.00
O11    O     0.54210   0.16450   0.37047   0.01267  Uiso   1.00
O12    O     0.63950   0.31790   0.31649   0.01267  Uiso   1.00
O13    O     0.09188   0.57852   0.72031   0.01267  Uiso   1.00
O14    O     0.98950   0.69310   0.84059   0.01267  Uiso   1.00
O15    O     0.16764   0.82936   0.82224   0.01267  Uiso   1.00
O16    O     0.88800   0.49480   0.71326   0.01267  Uiso   1.00
O17    O     0.16450   0.54210   0.87047   0.01267  Uiso   1.00
O18    O     0.31790   0.63950   0.81649   0.01267  Uiso   1.00
O19    O     0.42148   0.90812   0.77969   0.01267  Uiso   1.00
O20    O     0.30690   0.01050   0.65941   0.01267  Uiso   1.00
O21    O     0.17064   0.83236   0.67776   0.01267  Uiso   1.00
O22    O     0.50520   0.11200   0.78674   0.01267  Uiso   1.00
O23    O     0.45790   0.83550   0.62953   0.01267  Uiso   1.00
O24    O     0.36050   0.68210   0.68351   0.01267  Uiso   1.00
