data_LIXWAR01_clean
_audit_creation_date              2014-07-02
_audit_creation_method            'Materials Studio'
_symmetry_space_group_name_H-M    'P1'
_symmetry_Int_Tables_number       1
_symmetry_cell_setting            triclinic
loop_
_symmetry_equiv_pos_as_xyz
  x,y,z
_cell_length_a                    11.1377
_cell_length_b                    11.1377
_cell_length_c                    21.4035
_cell_angle_alpha                 95.9848
_cell_angle_beta                  95.9848
_cell_angle_gamma                 107.0810
loop_
_atom_site_label
_atom_site_type_symbol
_atom_site_fract_x
_atom_site_fract_y
_atom_site_fract_z
_atom_site_U_iso_or_equiv
_atom_site_adp_type
_atom_site_occupancy
Mn1    Mn    0.49718   0.01598   0.80629   0.01267  Uiso   1.00
Mn2    Mn    0.98402   0.50282   0.69371   0.01267  Uiso   1.00
Mn3    Mn    0.50282   0.98402   0.19371   0.01267  Uiso   1.00
Mn4    Mn    0.01598   0.49718   0.30629   0.01267  Uiso   1.00
Mn5    Mn    0.75282   0.24718   0.75000   0.01267  Uiso   1.00
Mn6    Mn    0.24718   0.75282   0.25000   0.01267  Uiso   1.00
H1     H     0.39310   0.28590   0.92180   0.01267  Uiso   1.00
H2     H     0.73730   0.52110   0.90720   0.01267  Uiso   1.00
H3     H     0.72600   0.65860   0.99300   0.01267  Uiso   1.00
H4     H     0.65350   0.04790   0.60900   0.01267  Uiso   1.00
H5     H     0.27710   0.99030   0.60100   0.01267  Uiso   1.00
H6     H     0.25370   0.96850   0.49200   0.01267  Uiso   1.00
H7     H     0.01230   0.24030   0.53030   0.01267  Uiso   1.00
H8     H     0.90430   0.98050   0.64710   0.01267  Uiso   1.00
H9     H     0.93630   0.82670   0.57620   0.01267  Uiso   1.00
H10    H     0.71410   0.60690   0.57820   0.01267  Uiso   1.00
H11    H     0.47890   0.26270   0.59280   0.01267  Uiso   1.00
H12    H     0.34140   0.27400   0.50700   0.01267  Uiso   1.00
H13    H     0.95210   0.34650   0.89100   0.01267  Uiso   1.00
H14    H     0.00970   0.72290   0.89900   0.01267  Uiso   1.00
H15    H     0.03150   0.74630   0.00800   0.01267  Uiso   1.00
H16    H     0.75970   0.98770   0.96970   0.01267  Uiso   1.00
H17    H     0.01950   0.09570   0.85290   0.01267  Uiso   1.00
H18    H     0.17330   0.06370   0.92380   0.01267  Uiso   1.00
H19    H     0.60690   0.71410   0.07820   0.01267  Uiso   1.00
H20    H     0.26270   0.47890   0.09280   0.01267  Uiso   1.00
H21    H     0.27400   0.34140   0.00700   0.01267  Uiso   1.00
H22    H     0.34650   0.95210   0.39100   0.01267  Uiso   1.00
H23    H     0.72290   0.00970   0.39900   0.01267  Uiso   1.00
H24    H     0.74630   0.03150   0.50800   0.01267  Uiso   1.00
H25    H     0.98770   0.75970   0.46970   0.01267  Uiso   1.00
H26    H     0.09570   0.01950   0.35290   0.01267  Uiso   1.00
H27    H     0.06370   0.17330   0.42380   0.01267  Uiso   1.00
H28    H     0.28590   0.39310   0.42180   0.01267  Uiso   1.00
H29    H     0.52110   0.73730   0.40720   0.01267  Uiso   1.00
H30    H     0.65860   0.72600   0.49300   0.01267  Uiso   1.00
H31    H     0.04790   0.65350   0.10900   0.01267  Uiso   1.00
H32    H     0.99030   0.27710   0.10100   0.01267  Uiso   1.00
H33    H     0.96850   0.25370   0.99200   0.01267  Uiso   1.00
H34    H     0.24030   0.01230   0.03030   0.01267  Uiso   1.00
H35    H     0.98050   0.90430   0.14710   0.01267  Uiso   1.00
H36    H     0.82670   0.93630   0.07620   0.01267  Uiso   1.00
C1     C     0.44966   0.44352   0.98939   0.01267  Uiso   1.00
C2     C     0.45978   0.36112   0.93648   0.01267  Uiso   1.00
C3     C     0.56514   0.38926   0.90644   0.01267  Uiso   1.00
C4     C     0.66501   0.50179   0.92799   0.01267  Uiso   1.00
C5     C     0.65828   0.58372   0.97897   0.01267  Uiso   1.00
C6     C     0.57501   0.29799   0.85125   0.01267  Uiso   1.00
C7     C     0.56099   0.01217   0.51776   0.01267  Uiso   1.00
C8     C     0.57311   0.02997   0.58489   0.01267  Uiso   1.00
C9     C     0.46941   0.02135   0.61498   0.01267  Uiso   1.00
C10    C     0.34820   0.99680   0.57985   0.01267  Uiso   1.00
C11    C     0.33429   0.98231   0.51510   0.01267  Uiso   1.00
C12    C     0.48115   0.03167   0.68564   0.01267  Uiso   1.00
C13    C     0.01186   0.06250   0.49303   0.01267  Uiso   1.00
C14    C     0.99476   0.15624   0.53868   0.01267  Uiso   1.00
C15    C     0.95309   0.12571   0.59458   0.01267  Uiso   1.00
C16    C     0.93154   0.00106   0.60831   0.01267  Uiso   1.00
C17    C     0.94961   0.90919   0.56595   0.01267  Uiso   1.00
C18    C     0.92325   0.22315   0.63988   0.01267  Uiso   1.00
C19    C     0.55648   0.55034   0.51061   0.01267  Uiso   1.00
C20    C     0.63888   0.54022   0.56352   0.01267  Uiso   1.00
C21    C     0.61074   0.43486   0.59356   0.01267  Uiso   1.00
C22    C     0.49821   0.33499   0.57201   0.01267  Uiso   1.00
C23    C     0.41628   0.34172   0.52103   0.01267  Uiso   1.00
C24    C     0.70201   0.42499   0.64875   0.01267  Uiso   1.00
C25    C     0.98783   0.43901   0.98224   0.01267  Uiso   1.00
C26    C     0.97003   0.42689   0.91511   0.01267  Uiso   1.00
C27    C     0.97865   0.53059   0.88502   0.01267  Uiso   1.00
C28    C     0.00320   0.65180   0.92015   0.01267  Uiso   1.00
C29    C     0.01769   0.66571   0.98490   0.01267  Uiso   1.00
C30    C     0.96833   0.51885   0.81436   0.01267  Uiso   1.00
C31    C     0.93750   0.98814   0.00697   0.01267  Uiso   1.00
C32    C     0.84376   0.00524   0.96132   0.01267  Uiso   1.00
C33    C     0.87429   0.04691   0.90542   0.01267  Uiso   1.00
C34    C     0.99894   0.06846   0.89169   0.01267  Uiso   1.00
C35    C     0.09081   0.05039   0.93405   0.01267  Uiso   1.00
C36    C     0.77685   0.07675   0.86012   0.01267  Uiso   1.00
C37    C     0.55034   0.55648   0.01061   0.01267  Uiso   1.00
C38    C     0.54022   0.63888   0.06352   0.01267  Uiso   1.00
C39    C     0.43486   0.61074   0.09356   0.01267  Uiso   1.00
C40    C     0.33499   0.49821   0.07201   0.01267  Uiso   1.00
C41    C     0.34172   0.41628   0.02103   0.01267  Uiso   1.00
C42    C     0.42499   0.70201   0.14875   0.01267  Uiso   1.00
C43    C     0.43901   0.98783   0.48224   0.01267  Uiso   1.00
C44    C     0.42689   0.97003   0.41511   0.01267  Uiso   1.00
C45    C     0.53059   0.97865   0.38502   0.01267  Uiso   1.00
C46    C     0.65180   0.00320   0.42015   0.01267  Uiso   1.00
C47    C     0.66571   0.01769   0.48490   0.01267  Uiso   1.00
C48    C     0.51885   0.96833   0.31436   0.01267  Uiso   1.00
C49    C     0.98814   0.93750   0.50697   0.01267  Uiso   1.00
C50    C     0.00524   0.84376   0.46132   0.01267  Uiso   1.00
C51    C     0.04691   0.87429   0.40542   0.01267  Uiso   1.00
C52    C     0.06846   0.99894   0.39169   0.01267  Uiso   1.00
C53    C     0.05039   0.09081   0.43405   0.01267  Uiso   1.00
C54    C     0.07675   0.77685   0.36012   0.01267  Uiso   1.00
C55    C     0.44352   0.44966   0.48939   0.01267  Uiso   1.00
C56    C     0.36112   0.45978   0.43648   0.01267  Uiso   1.00
C57    C     0.38926   0.56514   0.40644   0.01267  Uiso   1.00
C58    C     0.50179   0.66501   0.42799   0.01267  Uiso   1.00
C59    C     0.58372   0.65828   0.47897   0.01267  Uiso   1.00
C60    C     0.29799   0.57501   0.35125   0.01267  Uiso   1.00
C61    C     0.01217   0.56099   0.01776   0.01267  Uiso   1.00
C62    C     0.02997   0.57311   0.08489   0.01267  Uiso   1.00
C63    C     0.02135   0.46941   0.11498   0.01267  Uiso   1.00
C64    C     0.99680   0.34820   0.07985   0.01267  Uiso   1.00
C65    C     0.98231   0.33429   0.01510   0.01267  Uiso   1.00
C66    C     0.03167   0.48115   0.18564   0.01267  Uiso   1.00
C67    C     0.06250   0.01186   0.99303   0.01267  Uiso   1.00
C68    C     0.15624   0.99476   0.03868   0.01267  Uiso   1.00
C69    C     0.12571   0.95309   0.09458   0.01267  Uiso   1.00
C70    C     0.00106   0.93154   0.10831   0.01267  Uiso   1.00
C71    C     0.90919   0.94961   0.06595   0.01267  Uiso   1.00
C72    C     0.22315   0.92325   0.13988   0.01267  Uiso   1.00
O1     O     0.66889   0.33173   0.82263   0.01267  Uiso   1.00
O2     O     0.48706   0.19476   0.83867   0.01267  Uiso   1.00
O3     O     0.59050   0.07512   0.71890   0.01267  Uiso   1.00
O4     O     0.38403   0.99199   0.71100   0.01267  Uiso   1.00
O5     O     0.86415   0.18247   0.68379   0.01267  Uiso   1.00
O6     O     0.95913   0.33631   0.62996   0.01267  Uiso   1.00
O7     O     0.66827   0.33111   0.67737   0.01267  Uiso   1.00
O8     O     0.80524   0.51294   0.66133   0.01267  Uiso   1.00
O9     O     0.92488   0.40950   0.78110   0.01267  Uiso   1.00
O10    O     0.00801   0.61597   0.78900   0.01267  Uiso   1.00
O11    O     0.81753   0.13585   0.81621   0.01267  Uiso   1.00
O12    O     0.66369   0.04087   0.87004   0.01267  Uiso   1.00
O13    O     0.33111   0.66827   0.17737   0.01267  Uiso   1.00
O14    O     0.51294   0.80524   0.16133   0.01267  Uiso   1.00
O15    O     0.40950   0.92488   0.28110   0.01267  Uiso   1.00
O16    O     0.61597   0.00801   0.28900   0.01267  Uiso   1.00
O17    O     0.13585   0.81753   0.31621   0.01267  Uiso   1.00
O18    O     0.04087   0.66369   0.37004   0.01267  Uiso   1.00
O19    O     0.33173   0.66889   0.32263   0.01267  Uiso   1.00
O20    O     0.19476   0.48706   0.33867   0.01267  Uiso   1.00
O21    O     0.07512   0.59050   0.21890   0.01267  Uiso   1.00
O22    O     0.99199   0.38403   0.21100   0.01267  Uiso   1.00
O23    O     0.18247   0.86415   0.18379   0.01267  Uiso   1.00
O24    O     0.33631   0.95913   0.12996   0.01267  Uiso   1.00
