data_image0
_cell_length_a       10.4883
_cell_length_b       11.2214
_cell_length_c       12.741
_cell_angle_alpha    100.986
_cell_angle_beta     110.352
_cell_angle_gamma    99.772

_symmetry_space_group_name_H-M    "P 1"
_symmetry_int_tables_number       1

loop_
  _symmetry_equiv_pos_as_xyz
  'x, y, z'

loop_
  _atom_site_label
  _atom_site_occupancy
  _atom_site_fract_x
  _atom_site_fract_y
  _atom_site_fract_z
  _atom_site_thermal_displace_type
  _atom_site_B_iso_or_equiv
  _atom_site_type_symbol
  Gd1      1.0000 0.39343  0.45117  0.32424  Biso   1.000  Gd
  O1       1.0000 0.62040  0.43660  0.32510  Biso   1.000  O
  O2       1.0000 0.42930  0.27860  0.40360  Biso   1.000  O
  O3       1.0000 0.65340  0.50260  0.50830  Biso   1.000  O
  O4       1.0000 0.50050  0.32870  0.59650  Biso   1.000  O
  O5       1.0000 0.31660  0.26430  0.15800  Biso   1.000  O
  O6       1.0000 0.16490  0.29400  0.23480  Biso   1.000  O
  C1       1.0000 0.70020  0.47360  0.43100  Biso   1.000  C
  C2       1.0000 0.09740  0.10990  0.08030  Biso   1.000  C
  C3       1.0000 0.47000  0.25360  0.49940  Biso   1.000  C
  C4       1.0000 0.48330  0.12080  0.49750  Biso   1.000  C
  C5       1.0000 0.94490  0.54370  0.57900  Biso   1.000  C
  H1       1.0000 0.90750  0.57420  0.63380  Biso   1.000  H
  C6       1.0000 0.48600  0.03990  0.39960  Biso   1.000  C
  C7       1.0000 0.85530  0.48600  0.46590  Biso   1.000  C
  C8       1.0000 0.49850  0.07910  0.59620  Biso   1.000  C
  H2       1.0000 0.49820  0.13410  0.66280  Biso   1.000  H
  C9       1.0000 0.90870  0.44100  0.38410  Biso   1.000  C
  C10      1.0000 0.13640  0.02940  0.00500  Biso   1.000  C
  C11      1.0000 0.19880  0.22820  0.16340  Biso   1.000  C
  C12      1.0000 0.95800  0.07980  0.07270  Biso   1.000  C
  H3       1.0000 0.92890  0.13470  0.12110  Biso   1.000  H
  N1       1.0000 0.48080  0.08070  0.29700  Biso   1.000  N
  H4       1.0000 0.48750  0.02980  0.23850  Biso   1.000  H
  H5       1.0000 0.47100  0.15630  0.29330  Biso   1.000  H
  N2       1.0000 0.83060  0.38240  0.27460  Biso   1.000  N
  H6       1.0000 0.73850  0.36940  0.24860  Biso   1.000  H
  H7       1.0000 0.87030  0.35620  0.22710  Biso   1.000  H
  N3       1.0000 0.29800  0.01900  0.02100  Biso   1.000  N
  H8       1.0000 0.31120  0.95140  0.98310  Biso   1.000  H
  H9       1.0000 0.37140  0.08170  0.06850  Biso   1.000  H
  Gd2      1.0000 0.60657  0.54883  0.67576  Biso   1.000  Gd
  O7       1.0000 0.37960  0.56340  0.67490  Biso   1.000  O
  O8       1.0000 0.57070  0.72140  0.59640  Biso   1.000  O
  O9       1.0000 0.34660  0.49740  0.49170  Biso   1.000  O
  O10      1.0000 0.49950  0.67130  0.40350  Biso   1.000  O
  O11      1.0000 0.68340  0.73570  0.84200  Biso   1.000  O
  O12      1.0000 0.83510  0.70600  0.76520  Biso   1.000  O
  C13      1.0000 0.29980  0.52640  0.56900  Biso   1.000  C
  C14      1.0000 0.90260  0.89010  0.91970  Biso   1.000  C
  C15      1.0000 0.53000  0.74640  0.50060  Biso   1.000  C
  C16      1.0000 0.51670  0.87920  0.50250  Biso   1.000  C
  C17      1.0000 0.05510  0.45630  0.42100  Biso   1.000  C
  H10      1.0000 0.09250  0.42580  0.36620  Biso   1.000  H
  C18      1.0000 0.51400  0.96010  0.60040  Biso   1.000  C
  C19      1.0000 0.14470  0.51400  0.53410  Biso   1.000  C
  C20      1.0000 0.50150  0.92090  0.40380  Biso   1.000  C
  H11      1.0000 0.50180  0.86590  0.33720  Biso   1.000  H
  C21      1.0000 0.09130  0.55900  0.61590  Biso   1.000  C
  C22      1.0000 0.86360  0.97060  0.99500  Biso   1.000  C
  C23      1.0000 0.80120  0.77180  0.83660  Biso   1.000  C
  C24      1.0000 0.04200  0.92020  0.92730  Biso   1.000  C
  H12      1.0000 0.07110  0.86530  0.87890  Biso   1.000  H
  N4       1.0000 0.51920  0.91930  0.70300  Biso   1.000  N
  H13      1.0000 0.51250  0.97020  0.76150  Biso   1.000  H
  H14      1.0000 0.52900  0.84370  0.70670  Biso   1.000  H
  N5       1.0000 0.16940  0.61760  0.72540  Biso   1.000  N
  H15      1.0000 0.26150  0.63060  0.75140  Biso   1.000  H
  H16      1.0000 0.12970  0.64380  0.77290  Biso   1.000  H
  N6       1.0000 0.70200  0.98100  0.97900  Biso   1.000  N
  H17      1.0000 0.68880  0.04860  0.01690  Biso   1.000  H
  H18      1.0000 0.62860  0.91830  0.93150  Biso   1.000  H
