data_image0
_cell_length_a       15.8979
_cell_length_b       15.7892
_cell_length_c       20.3288
_cell_angle_alpha    90
_cell_angle_beta     106.324
_cell_angle_gamma    90

_symmetry_space_group_name_H-M    "P 1"
_symmetry_int_tables_number       1

loop_
  _symmetry_equiv_pos_as_xyz
  'x, y, z'

loop_
  _atom_site_label
  _atom_site_occupancy
  _atom_site_fract_x
  _atom_site_fract_y
  _atom_site_fract_z
  _atom_site_thermal_displace_type
  _atom_site_B_iso_or_equiv
  _atom_site_type_symbol
  Ni1      1.0000 0.21744  0.05982  0.22301  Biso   1.000  Ni
  S1       1.0000 0.88940  0.78170  0.13621  Biso   1.000  S
  S2       1.0000 0.77500  0.84230  0.09320  Biso   1.000  S
  O1       1.0000 0.21590  0.27360  0.23110  Biso   1.000  O
  O2       1.0000 0.13350  0.15680  0.22230  Biso   1.000  O
  O3       1.0000 0.19570  0.46080  0.27410  Biso   1.000  O
  O4       1.0000 0.13600  0.44550  0.16130  Biso   1.000  O
  N1       1.0000 0.11100  0.97710  0.19440  Biso   1.000  N
  N2       1.0000 0.78040  0.91400  0.87710  Biso   1.000  N
  C1       1.0000 0.02590  0.00240  0.17280  Biso   1.000  C
  H1       1.0000 0.01490  0.06030  0.17080  Biso   1.000  H
  C2       1.0000 0.95540  0.94920  0.15380  Biso   1.000  C
  H2       1.0000 0.89860  0.97040  0.13910  Biso   1.000  H
  C3       1.0000 0.97080  0.86260  0.15690  Biso   1.000  C
  C4       1.0000 0.05860  0.83500  0.18030  Biso   1.000  C
  H3       1.0000 0.07170  0.77750  0.18330  Biso   1.000  H
  C5       1.0000 0.78160  0.86730  0.00950  Biso   1.000  C
  C6       1.0000 0.07030  0.37500  0.23670  Biso   1.000  C
  C7       1.0000 0.07060  0.28750  0.23820  Biso   1.000  C
  C8       1.0000 0.14640  0.23460  0.22950  Biso   1.000  C
  C9       1.0000 0.12240  0.89220  0.19810  Biso   1.000  C
  H4       1.0000 0.17950  0.87220  0.21450  Biso   1.000  H
  C10      1.0000 0.85430  0.85550  0.98680  Biso   1.000  C
  H5       1.0000 0.90490  0.83140  0.01530  Biso   1.000  H
  C11      1.0000 0.71040  0.92400  0.89980  Biso   1.000  C
  H6       1.0000 0.65990  0.94640  0.87000  Biso   1.000  H
  C12      1.0000 0.85120  0.87990  0.92070  Biso   1.000  C
  H7       1.0000 0.90100  0.87220  0.90590  Biso   1.000  H
  C13      1.0000 0.70850  0.90290  0.96500  Biso   1.000  C
  H8       1.0000 0.65840  0.91270  0.97890  Biso   1.000  H
  C14      1.0000 0.13990  0.42980  0.22280  Biso   1.000  C
  Ni2      1.0000 0.71744  0.55982  0.22301  Biso   1.000  Ni
  S3       1.0000 0.38940  0.28170  0.13621  Biso   1.000  S
  S4       1.0000 0.27500  0.34230  0.09320  Biso   1.000  S
  O5       1.0000 0.71590  0.77360  0.23110  Biso   1.000  O
  O6       1.0000 0.63350  0.65680  0.22230  Biso   1.000  O
  O7       1.0000 0.69570  0.96080  0.27410  Biso   1.000  O
  O8       1.0000 0.63600  0.94550  0.16130  Biso   1.000  O
  N3       1.0000 0.61100  0.47710  0.19440  Biso   1.000  N
  N4       1.0000 0.28040  0.41400  0.87710  Biso   1.000  N
  C15      1.0000 0.52590  0.50240  0.17280  Biso   1.000  C
  H9       1.0000 0.51490  0.56030  0.17080  Biso   1.000  H
  C16      1.0000 0.45540  0.44920  0.15380  Biso   1.000  C
  H10      1.0000 0.39860  0.47040  0.13910  Biso   1.000  H
  C17      1.0000 0.47080  0.36260  0.15690  Biso   1.000  C
  C18      1.0000 0.55860  0.33500  0.18030  Biso   1.000  C
  H11      1.0000 0.57170  0.27750  0.18330  Biso   1.000  H
  C19      1.0000 0.28160  0.36730  0.00950  Biso   1.000  C
  C20      1.0000 0.57030  0.87500  0.23670  Biso   1.000  C
  C21      1.0000 0.57060  0.78750  0.23820  Biso   1.000  C
  C22      1.0000 0.64640  0.73460  0.22950  Biso   1.000  C
  C23      1.0000 0.62240  0.39220  0.19810  Biso   1.000  C
  H12      1.0000 0.67950  0.37220  0.21450  Biso   1.000  H
  C24      1.0000 0.35430  0.35550  0.98680  Biso   1.000  C
  H13      1.0000 0.40490  0.33140  0.01530  Biso   1.000  H
  C25      1.0000 0.21040  0.42400  0.89980  Biso   1.000  C
  H14      1.0000 0.15990  0.44640  0.87000  Biso   1.000  H
  C26      1.0000 0.35120  0.37990  0.92070  Biso   1.000  C
  H15      1.0000 0.40100  0.37220  0.90590  Biso   1.000  H
  C27      1.0000 0.20850  0.40290  0.96500  Biso   1.000  C
  H16      1.0000 0.15840  0.41270  0.97890  Biso   1.000  H
  C28      1.0000 0.63990  0.92980  0.22280  Biso   1.000  C
  Ni3      1.0000 0.78256  0.05982  0.27699  Biso   1.000  Ni
  S5       1.0000 0.11060  0.78170  0.36379  Biso   1.000  S
  S6       1.0000 0.22500  0.84230  0.40680  Biso   1.000  S
  O9       1.0000 0.78410  0.27360  0.26890  Biso   1.000  O
  O10      1.0000 0.86650  0.15680  0.27770  Biso   1.000  O
  O11      1.0000 0.80430  0.46080  0.22590  Biso   1.000  O
  O12      1.0000 0.86400  0.44550  0.33870  Biso   1.000  O
  N5       1.0000 0.88900  0.97710  0.30560  Biso   1.000  N
  N6       1.0000 0.21960  0.91400  0.62290  Biso   1.000  N
  C29      1.0000 0.97410  0.00240  0.32720  Biso   1.000  C
  H17      1.0000 0.98510  0.06030  0.32920  Biso   1.000  H
  C30      1.0000 0.04460  0.94920  0.34620  Biso   1.000  C
  H18      1.0000 0.10140  0.97040  0.36090  Biso   1.000  H
  C31      1.0000 0.02920  0.86260  0.34310  Biso   1.000  C
  C32      1.0000 0.94140  0.83500  0.31970  Biso   1.000  C
  H19      1.0000 0.92830  0.77750  0.31670  Biso   1.000  H
  C33      1.0000 0.21840  0.86730  0.49050  Biso   1.000  C
  C34      1.0000 0.92970  0.37500  0.26330  Biso   1.000  C
  C35      1.0000 0.92940  0.28750  0.26180  Biso   1.000  C
  C36      1.0000 0.85360  0.23460  0.27050  Biso   1.000  C
  C37      1.0000 0.87760  0.89220  0.30190  Biso   1.000  C
  H20      1.0000 0.82050  0.87220  0.28550  Biso   1.000  H
  C38      1.0000 0.14570  0.85550  0.51320  Biso   1.000  C
  H21      1.0000 0.09510  0.83140  0.48470  Biso   1.000  H
  C39      1.0000 0.28960  0.92400  0.60020  Biso   1.000  C
  H22      1.0000 0.34010  0.94640  0.63000  Biso   1.000  H
  C40      1.0000 0.14880  0.87990  0.57930  Biso   1.000  C
  H23      1.0000 0.09900  0.87220  0.59410  Biso   1.000  H
  C41      1.0000 0.29150  0.90290  0.53500  Biso   1.000  C
  H24      1.0000 0.34160  0.91270  0.52110  Biso   1.000  H
  C42      1.0000 0.86010  0.42980  0.27720  Biso   1.000  C
  Ni4      1.0000 0.28256  0.55982  0.27699  Biso   1.000  Ni
  S7       1.0000 0.61060  0.28170  0.36379  Biso   1.000  S
  S8       1.0000 0.72500  0.34230  0.40680  Biso   1.000  S
  O13      1.0000 0.28410  0.77360  0.26890  Biso   1.000  O
  O14      1.0000 0.36650  0.65680  0.27770  Biso   1.000  O
  O15      1.0000 0.30430  0.96080  0.22590  Biso   1.000  O
  O16      1.0000 0.36400  0.94550  0.33870  Biso   1.000  O
  N7       1.0000 0.38900  0.47710  0.30560  Biso   1.000  N
  N8       1.0000 0.71960  0.41400  0.62290  Biso   1.000  N
  C43      1.0000 0.47410  0.50240  0.32720  Biso   1.000  C
  H25      1.0000 0.48510  0.56030  0.32920  Biso   1.000  H
  C44      1.0000 0.54460  0.44920  0.34620  Biso   1.000  C
  H26      1.0000 0.60140  0.47040  0.36090  Biso   1.000  H
  C45      1.0000 0.52920  0.36260  0.34310  Biso   1.000  C
  C46      1.0000 0.44140  0.33500  0.31970  Biso   1.000  C
  H27      1.0000 0.42830  0.27750  0.31670  Biso   1.000  H
  C47      1.0000 0.71840  0.36730  0.49050  Biso   1.000  C
  C48      1.0000 0.42970  0.87500  0.26330  Biso   1.000  C
  C49      1.0000 0.42940  0.78750  0.26180  Biso   1.000  C
  C50      1.0000 0.35360  0.73460  0.27050  Biso   1.000  C
  C51      1.0000 0.37760  0.39220  0.30190  Biso   1.000  C
  H28      1.0000 0.32050  0.37220  0.28550  Biso   1.000  H
  C52      1.0000 0.64570  0.35550  0.51320  Biso   1.000  C
  H29      1.0000 0.59510  0.33140  0.48470  Biso   1.000  H
  C53      1.0000 0.78960  0.42400  0.60020  Biso   1.000  C
  H30      1.0000 0.84010  0.44640  0.63000  Biso   1.000  H
  C54      1.0000 0.64880  0.37990  0.57930  Biso   1.000  C
  H31      1.0000 0.59900  0.37220  0.59410  Biso   1.000  H
  C55      1.0000 0.79150  0.40290  0.53500  Biso   1.000  C
  H32      1.0000 0.84160  0.41270  0.52110  Biso   1.000  H
  C56      1.0000 0.36010  0.92980  0.27720  Biso   1.000  C
  Ni5      1.0000 0.78256  0.94018  0.77699  Biso   1.000  Ni
  S9       1.0000 0.11060  0.21830  0.86379  Biso   1.000  S
  S10      1.0000 0.22500  0.15770  0.90680  Biso   1.000  S
  O17      1.0000 0.78410  0.72640  0.76890  Biso   1.000  O
  O18      1.0000 0.86650  0.84320  0.77770  Biso   1.000  O
  O19      1.0000 0.80430  0.53920  0.72590  Biso   1.000  O
  O20      1.0000 0.86400  0.55450  0.83870  Biso   1.000  O
  N9       1.0000 0.88900  0.02290  0.80560  Biso   1.000  N
  N10      1.0000 0.21960  0.08600  0.12290  Biso   1.000  N
  C57      1.0000 0.97410  0.99760  0.82720  Biso   1.000  C
  H33      1.0000 0.98510  0.93970  0.82920  Biso   1.000  H
  C58      1.0000 0.04460  0.05080  0.84620  Biso   1.000  C
  H34      1.0000 0.10140  0.02960  0.86090  Biso   1.000  H
  C59      1.0000 0.02920  0.13740  0.84310  Biso   1.000  C
  C60      1.0000 0.94140  0.16500  0.81970  Biso   1.000  C
  H35      1.0000 0.92830  0.22250  0.81670  Biso   1.000  H
  C61      1.0000 0.21840  0.13270  0.99050  Biso   1.000  C
  C62      1.0000 0.92970  0.62500  0.76330  Biso   1.000  C
  C63      1.0000 0.92940  0.71250  0.76180  Biso   1.000  C
  C64      1.0000 0.85360  0.76540  0.77050  Biso   1.000  C
  C65      1.0000 0.87760  0.10780  0.80190  Biso   1.000  C
  H36      1.0000 0.82050  0.12780  0.78550  Biso   1.000  H
  C66      1.0000 0.14570  0.14450  0.01320  Biso   1.000  C
  H37      1.0000 0.09510  0.16860  0.98470  Biso   1.000  H
  C67      1.0000 0.28960  0.07600  0.10020  Biso   1.000  C
  H38      1.0000 0.34010  0.05360  0.13000  Biso   1.000  H
  C68      1.0000 0.14880  0.12010  0.07930  Biso   1.000  C
  H39      1.0000 0.09900  0.12780  0.09410  Biso   1.000  H
  C69      1.0000 0.29150  0.09710  0.03500  Biso   1.000  C
  H40      1.0000 0.34160  0.08730  0.02110  Biso   1.000  H
  C70      1.0000 0.86010  0.57020  0.77720  Biso   1.000  C
  Ni6      1.0000 0.28256  0.44018  0.77699  Biso   1.000  Ni
  S11      1.0000 0.61060  0.71830  0.86379  Biso   1.000  S
  S12      1.0000 0.72500  0.65770  0.90680  Biso   1.000  S
  O21      1.0000 0.28410  0.22640  0.76890  Biso   1.000  O
  O22      1.0000 0.36650  0.34320  0.77770  Biso   1.000  O
  O23      1.0000 0.30430  0.03920  0.72590  Biso   1.000  O
  O24      1.0000 0.36400  0.05450  0.83870  Biso   1.000  O
  N11      1.0000 0.38900  0.52290  0.80560  Biso   1.000  N
  N12      1.0000 0.71960  0.58600  0.12290  Biso   1.000  N
  C71      1.0000 0.47410  0.49760  0.82720  Biso   1.000  C
  H41      1.0000 0.48510  0.43970  0.82920  Biso   1.000  H
  C72      1.0000 0.54460  0.55080  0.84620  Biso   1.000  C
  H42      1.0000 0.60140  0.52960  0.86090  Biso   1.000  H
  C73      1.0000 0.52920  0.63740  0.84310  Biso   1.000  C
  C74      1.0000 0.44140  0.66500  0.81970  Biso   1.000  C
  H43      1.0000 0.42830  0.72250  0.81670  Biso   1.000  H
  C75      1.0000 0.71840  0.63270  0.99050  Biso   1.000  C
  C76      1.0000 0.42970  0.12500  0.76330  Biso   1.000  C
  C77      1.0000 0.42940  0.21250  0.76180  Biso   1.000  C
  C78      1.0000 0.35360  0.26540  0.77050  Biso   1.000  C
  C79      1.0000 0.37760  0.60780  0.80190  Biso   1.000  C
  H44      1.0000 0.32050  0.62780  0.78550  Biso   1.000  H
  C80      1.0000 0.64570  0.64450  0.01320  Biso   1.000  C
  H45      1.0000 0.59510  0.66860  0.98470  Biso   1.000  H
  C81      1.0000 0.78960  0.57600  0.10020  Biso   1.000  C
  H46      1.0000 0.84010  0.55360  0.13000  Biso   1.000  H
  C82      1.0000 0.64880  0.62010  0.07930  Biso   1.000  C
  H47      1.0000 0.59900  0.62780  0.09410  Biso   1.000  H
  C83      1.0000 0.79150  0.59710  0.03500  Biso   1.000  C
  H48      1.0000 0.84160  0.58730  0.02110  Biso   1.000  H
  C84      1.0000 0.36010  0.07020  0.77720  Biso   1.000  C
  Ni7      1.0000 0.21744  0.94018  0.72301  Biso   1.000  Ni
  S13      1.0000 0.88940  0.21830  0.63621  Biso   1.000  S
  S14      1.0000 0.77500  0.15770  0.59320  Biso   1.000  S
  O25      1.0000 0.21590  0.72640  0.73110  Biso   1.000  O
  O26      1.0000 0.13350  0.84320  0.72230  Biso   1.000  O
  O27      1.0000 0.19570  0.53920  0.77410  Biso   1.000  O
  O28      1.0000 0.13600  0.55450  0.66130  Biso   1.000  O
  N13      1.0000 0.11100  0.02290  0.69440  Biso   1.000  N
  N14      1.0000 0.78040  0.08600  0.37710  Biso   1.000  N
  C85      1.0000 0.02590  0.99760  0.67280  Biso   1.000  C
  H49      1.0000 0.01490  0.93970  0.67080  Biso   1.000  H
  C86      1.0000 0.95540  0.05080  0.65380  Biso   1.000  C
  H50      1.0000 0.89860  0.02960  0.63910  Biso   1.000  H
  C87      1.0000 0.97080  0.13740  0.65690  Biso   1.000  C
  C88      1.0000 0.05860  0.16500  0.68030  Biso   1.000  C
  H51      1.0000 0.07170  0.22250  0.68330  Biso   1.000  H
  C89      1.0000 0.78160  0.13270  0.50950  Biso   1.000  C
  C90      1.0000 0.07030  0.62500  0.73670  Biso   1.000  C
  C91      1.0000 0.07060  0.71250  0.73820  Biso   1.000  C
  C92      1.0000 0.14640  0.76540  0.72950  Biso   1.000  C
  C93      1.0000 0.12240  0.10780  0.69810  Biso   1.000  C
  H52      1.0000 0.17950  0.12780  0.71450  Biso   1.000  H
  C94      1.0000 0.85430  0.14450  0.48680  Biso   1.000  C
  H53      1.0000 0.90490  0.16860  0.51530  Biso   1.000  H
  C95      1.0000 0.71040  0.07600  0.39980  Biso   1.000  C
  H54      1.0000 0.65990  0.05360  0.37000  Biso   1.000  H
  C96      1.0000 0.85120  0.12010  0.42070  Biso   1.000  C
  H55      1.0000 0.90100  0.12780  0.40590  Biso   1.000  H
  C97      1.0000 0.70850  0.09710  0.46500  Biso   1.000  C
  H56      1.0000 0.65840  0.08730  0.47890  Biso   1.000  H
  C98      1.0000 0.13990  0.57020  0.72280  Biso   1.000  C
  Ni8      1.0000 0.71744  0.44018  0.72301  Biso   1.000  Ni
  S15      1.0000 0.38940  0.71830  0.63621  Biso   1.000  S
  S16      1.0000 0.27500  0.65770  0.59320  Biso   1.000  S
  O29      1.0000 0.71590  0.22640  0.73110  Biso   1.000  O
  O30      1.0000 0.63350  0.34320  0.72230  Biso   1.000  O
  O31      1.0000 0.69570  0.03920  0.77410  Biso   1.000  O
  O32      1.0000 0.63600  0.05450  0.66130  Biso   1.000  O
  N15      1.0000 0.61100  0.52290  0.69440  Biso   1.000  N
  N16      1.0000 0.28040  0.58600  0.37710  Biso   1.000  N
  C99      1.0000 0.52590  0.49760  0.67280  Biso   1.000  C
  H57      1.0000 0.51490  0.43970  0.67080  Biso   1.000  H
  C100     1.0000 0.45540  0.55080  0.65380  Biso   1.000  C
  H58      1.0000 0.39860  0.52960  0.63910  Biso   1.000  H
  C101     1.0000 0.47080  0.63740  0.65690  Biso   1.000  C
  C102     1.0000 0.55860  0.66500  0.68030  Biso   1.000  C
  H59      1.0000 0.57170  0.72250  0.68330  Biso   1.000  H
  C103     1.0000 0.28160  0.63270  0.50950  Biso   1.000  C
  C104     1.0000 0.57030  0.12500  0.73670  Biso   1.000  C
  C105     1.0000 0.57060  0.21250  0.73820  Biso   1.000  C
  C106     1.0000 0.64640  0.26540  0.72950  Biso   1.000  C
  C107     1.0000 0.62240  0.60780  0.69810  Biso   1.000  C
  H60      1.0000 0.67950  0.62780  0.71450  Biso   1.000  H
  C108     1.0000 0.35430  0.64450  0.48680  Biso   1.000  C
  H61      1.0000 0.40490  0.66860  0.51530  Biso   1.000  H
  C109     1.0000 0.21040  0.57600  0.39980  Biso   1.000  C
  H62      1.0000 0.15990  0.55360  0.37000  Biso   1.000  H
  C110     1.0000 0.35120  0.62010  0.42070  Biso   1.000  C
  H63      1.0000 0.40100  0.62780  0.40590  Biso   1.000  H
  C111     1.0000 0.20850  0.59710  0.46500  Biso   1.000  C
  H64      1.0000 0.15840  0.58730  0.47890  Biso   1.000  H
  C112     1.0000 0.63990  0.07020  0.72280  Biso   1.000  C
  C113     1.0000 0.00000  0.41780  0.25000  Biso   1.000  C
  H65      1.0000 0.00000  0.47670  0.25000  Biso   1.000  H
  C114     1.0000 0.00000  0.24560  0.25000  Biso   1.000  C
  H66      1.0000 0.00000  0.18670  0.25000  Biso   1.000  H
  C115     1.0000 0.50000  0.91780  0.25000  Biso   1.000  C
  H67      1.0000 0.50000  0.97670  0.25000  Biso   1.000  H
  C116     1.0000 0.50000  0.74560  0.25000  Biso   1.000  C
  H68      1.0000 0.50000  0.68670  0.25000  Biso   1.000  H
  C117     1.0000 0.00000  0.58220  0.75000  Biso   1.000  C
  H69      1.0000 0.00000  0.52330  0.75000  Biso   1.000  H
  C118     1.0000 0.00000  0.75440  0.75000  Biso   1.000  C
  H70      1.0000 0.00000  0.81330  0.75000  Biso   1.000  H
  C119     1.0000 0.50000  0.08220  0.75000  Biso   1.000  C
  H71      1.0000 0.50000  0.02330  0.75000  Biso   1.000  H
  C120     1.0000 0.50000  0.25440  0.75000  Biso   1.000  C
  H72      1.0000 0.50000  0.31330  0.75000  Biso   1.000  H
