data_image0
_cell_length_a       22.1396
_cell_length_b       14.5936
_cell_length_c       28.1238
_cell_angle_alpha    90
_cell_angle_beta     116.317
_cell_angle_gamma    90

_symmetry_space_group_name_H-M    "P 1"
_symmetry_int_tables_number       1

loop_
  _symmetry_equiv_pos_as_xyz
  'x, y, z'

loop_
  _atom_site_label
  _atom_site_occupancy
  _atom_site_fract_x
  _atom_site_fract_y
  _atom_site_fract_z
  _atom_site_thermal_displace_type
  _atom_site_B_iso_or_equiv
  _atom_site_type_symbol
  Ni1      1.0000 0.24601  0.67163  0.24430  Biso   1.000  Ni
  Ni2      1.0000 0.21899  0.99414  0.53944  Biso   1.000  Ni
  O1       1.0000 0.78410  0.92790  0.34863  Biso   1.000  O
  O2       1.0000 0.21310  0.76040  0.28401  Biso   1.000  O
  O3       1.0000 0.13520  0.94960  0.47232  Biso   1.000  O
  O4       1.0000 0.84750  0.98810  0.42800  Biso   1.000  O
  O5       1.0000 0.22290  0.08290  0.29550  Biso   1.000  O
  O6       1.0000 0.16480  0.67520  0.32310  Biso   1.000  O
  N1       1.0000 0.34270  0.67110  0.30800  Biso   1.000  N
  O7       1.0000 0.17300  0.16490  0.33470  Biso   1.000  O
  N2       1.0000 0.27950  0.96950  0.50270  Biso   1.000  N
  N3       1.0000 0.65120  0.82460  0.68050  Biso   1.000  N
  N4       1.0000 0.56780  0.79910  0.60110  Biso   1.000  N
  N5       1.0000 0.42670  0.69900  0.38600  Biso   1.000  N
  C1       1.0000 0.02160  0.96420  0.40530  Biso   1.000  C
  O8       1.0000 0.08790  0.08850  0.45020  Biso   1.000  O
  C2       1.0000 0.52640  0.76370  0.45940  Biso   1.000  C
  H1       1.0000 0.54550  0.77370  0.43620  Biso   1.000  H
  C3       1.0000 0.09860  0.83900  0.33560  Biso   1.000  C
  H2       1.0000 0.07910  0.78400  0.33840  Biso   1.000  H
  N6       1.0000 0.36820  0.96860  0.48640  Biso   1.000  N
  C4       1.0000 0.07500  0.92070  0.34600  Biso   1.000  C
  C5       1.0000 0.48610  0.00050  0.54300  Biso   1.000  C
  H3       1.0000 0.47670  0.00060  0.57220  Biso   1.000  H
  C6       1.0000 0.01650  0.92420  0.35880  Biso   1.000  C
  C7       1.0000 0.17930  0.92050  0.31590  Biso   1.000  C
  H4       1.0000 0.21380  0.92030  0.30550  Biso   1.000  H
  C8       1.0000 0.47010  0.73210  0.52880  Biso   1.000  C
  H5       1.0000 0.45170  0.72160  0.55230  Biso   1.000  H
  C9       1.0000 0.56130  0.78830  0.51220  Biso   1.000  C
  H6       1.0000 0.60380  0.81480  0.52450  Biso   1.000  H
  C10      1.0000 0.36000  0.69470  0.35720  Biso   1.000  C
  H7       1.0000 0.32920  0.70690  0.37060  Biso   1.000  H
  C11      1.0000 0.46350  0.72430  0.44110  Biso   1.000  C
  C12      1.0000 0.89660  0.90320  0.32910  Biso   1.000  C
  H8       1.0000 0.85490  0.88370  0.30340  Biso   1.000  H
  C13      1.0000 0.84010  0.95350  0.38540  Biso   1.000  C
  C14      1.0000 0.53330  0.77370  0.54640  Biso   1.000  C
  C15      1.0000 0.63470  0.79970  0.63070  Biso   1.000  C
  H9       1.0000 0.66580  0.78480  0.61800  Biso   1.000  H
  C16      1.0000 0.43540  0.98360  0.49360  Biso   1.000  C
  C17      1.0000 0.34340  0.99030  0.52060  Biso   1.000  C
  H10      1.0000 0.36880  0.01720  0.55350  Biso   1.000  H
  C18      1.0000 0.26100  0.93240  0.45420  Biso   1.000  C
  H11      1.0000 0.21810  0.91130  0.43170  Biso   1.000  H
  C19      1.0000 0.95320  0.89310  0.32060  Biso   1.000  C
  H12      1.0000 0.94940  0.86570  0.28960  Biso   1.000  H
  C20      1.0000 0.08730  0.00380  0.44580  Biso   1.000  C
  C21      1.0000 0.45450  0.67580  0.35260  Biso   1.000  C
  H13      1.0000 0.50010  0.67290  0.36100  Biso   1.000  H
  C22      1.0000 0.44860  0.98260  0.44980  Biso   1.000  C
  H14      1.0000 0.41430  0.97070  0.41610  Biso   1.000  H
  C23      1.0000 0.15650  0.00370  0.32600  Biso   1.000  C
  C24      1.0000 0.90160  0.94270  0.37620  Biso   1.000  C
  C25      1.0000 0.10520  0.00160  0.34200  Biso   1.000  C
  H15      1.0000 0.09080  0.05650  0.35040  Biso   1.000  H
  C26      1.0000 0.43440  0.70600  0.47490  Biso   1.000  C
  H16      1.0000 0.39260  0.67750  0.46250  Biso   1.000  H
  C27      1.0000 0.15150  0.83770  0.32100  Biso   1.000  C
  C28      1.0000 0.96400  0.97270  0.41400  Biso   1.000  C
  H17      1.0000 0.96770  0.99870  0.44540  Biso   1.000  H
  C29      1.0000 0.40190  0.65790  0.30510  Biso   1.000  C
  H18      1.0000 0.40560  0.63930  0.27490  Biso   1.000  H
  C30      1.0000 0.59130  0.84120  0.68160  Biso   1.000  C
  H19      1.0000 0.58670  0.86050  0.71130  Biso   1.000  H
  C31      1.0000 0.53910  0.82580  0.63320  Biso   1.000  C
  H20      1.0000 0.49340  0.83210  0.62380  Biso   1.000  H
  C32      1.0000 0.18660  0.08980  0.31870  Biso   1.000  C
  C33      1.0000 0.31610  0.93090  0.44330  Biso   1.000  C
  H21      1.0000 0.31740  0.90870  0.41280  Biso   1.000  H
  C34      1.0000 0.17750  0.75050  0.30830  Biso   1.000  C
  Ni3      1.0000 0.25399  0.17163  0.25570  Biso   1.000  Ni
  Ni4      1.0000 0.28101  0.49414  0.96056  Biso   1.000  Ni
  O9       1.0000 0.71590  0.42790  0.15137  Biso   1.000  O
  O10      1.0000 0.28690  0.26040  0.21599  Biso   1.000  O
  O11      1.0000 0.36480  0.44960  0.02768  Biso   1.000  O
  O12      1.0000 0.65250  0.48810  0.07200  Biso   1.000  O
  O13      1.0000 0.27710  0.58290  0.20450  Biso   1.000  O
  O14      1.0000 0.33520  0.17520  0.17690  Biso   1.000  O
  N7       1.0000 0.15730  0.17110  0.19200  Biso   1.000  N
  O15      1.0000 0.32700  0.66490  0.16530  Biso   1.000  O
  N8       1.0000 0.22050  0.46950  0.99730  Biso   1.000  N
  N9       1.0000 0.84880  0.32460  0.81950  Biso   1.000  N
  N10      1.0000 0.93220  0.29910  0.89890  Biso   1.000  N
  N11      1.0000 0.07330  0.19900  0.11400  Biso   1.000  N
  C35      1.0000 0.47840  0.46420  0.09470  Biso   1.000  C
  O16      1.0000 0.41210  0.58850  0.04980  Biso   1.000  O
  C36      1.0000 0.97360  0.26370  0.04060  Biso   1.000  C
  H22      1.0000 0.95450  0.27370  0.06380  Biso   1.000  H
  C37      1.0000 0.40140  0.33900  0.16440  Biso   1.000  C
  H23      1.0000 0.42090  0.28400  0.16160  Biso   1.000  H
  N12      1.0000 0.13180  0.46860  0.01360  Biso   1.000  N
  C38      1.0000 0.42500  0.42070  0.15400  Biso   1.000  C
  C39      1.0000 0.01390  0.50050  0.95700  Biso   1.000  C
  H24      1.0000 0.02330  0.50060  0.92780  Biso   1.000  H
  C40      1.0000 0.48350  0.42420  0.14120  Biso   1.000  C
  C41      1.0000 0.32070  0.42050  0.18410  Biso   1.000  C
  H25      1.0000 0.28620  0.42030  0.19450  Biso   1.000  H
  C42      1.0000 0.02990  0.23210  0.97120  Biso   1.000  C
  H26      1.0000 0.04830  0.22160  0.94770  Biso   1.000  H
  C43      1.0000 0.93870  0.28830  0.98780  Biso   1.000  C
  H27      1.0000 0.89620  0.31480  0.97550  Biso   1.000  H
  C44      1.0000 0.14000  0.19470  0.14280  Biso   1.000  C
  H28      1.0000 0.17080  0.20690  0.12940  Biso   1.000  H
  C45      1.0000 0.03650  0.22430  0.05890  Biso   1.000  C
  C46      1.0000 0.60340  0.40320  0.17090  Biso   1.000  C
  H29      1.0000 0.64510  0.38370  0.19660  Biso   1.000  H
  C47      1.0000 0.65990  0.45350  0.11460  Biso   1.000  C
  C48      1.0000 0.96670  0.27370  0.95360  Biso   1.000  C
  C49      1.0000 0.86530  0.29970  0.86930  Biso   1.000  C
  H30      1.0000 0.83420  0.28480  0.88200  Biso   1.000  H
  C50      1.0000 0.06460  0.48360  0.00640  Biso   1.000  C
  C51      1.0000 0.15660  0.49030  0.97940  Biso   1.000  C
  H31      1.0000 0.13120  0.51720  0.94650  Biso   1.000  H
  C52      1.0000 0.23900  0.43240  0.04580  Biso   1.000  C
  H32      1.0000 0.28190  0.41130  0.06830  Biso   1.000  H
  C53      1.0000 0.54680  0.39310  0.17940  Biso   1.000  C
  H33      1.0000 0.55060  0.36570  0.21040  Biso   1.000  H
  C54      1.0000 0.41270  0.50380  0.05420  Biso   1.000  C
  C55      1.0000 0.04550  0.17580  0.14740  Biso   1.000  C
  H34      1.0000 0.99990  0.17290  0.13900  Biso   1.000  H
  C56      1.0000 0.05140  0.48260  0.05020  Biso   1.000  C
  H35      1.0000 0.08570  0.47070  0.08390  Biso   1.000  H
  C57      1.0000 0.34350  0.50370  0.17400  Biso   1.000  C
  C58      1.0000 0.59840  0.44270  0.12380  Biso   1.000  C
  C59      1.0000 0.39480  0.50160  0.15800  Biso   1.000  C
  H36      1.0000 0.40920  0.55650  0.14960  Biso   1.000  H
  C60      1.0000 0.06560  0.20600  0.02510  Biso   1.000  C
  H37      1.0000 0.10740  0.17750  0.03750  Biso   1.000  H
  C61      1.0000 0.34850  0.33770  0.17900  Biso   1.000  C
  C62      1.0000 0.53600  0.47270  0.08600  Biso   1.000  C
  H38      1.0000 0.53230  0.49870  0.05460  Biso   1.000  H
  C63      1.0000 0.09810  0.15790  0.19490  Biso   1.000  C
  H39      1.0000 0.09440  0.13930  0.22510  Biso   1.000  H
  C64      1.0000 0.90870  0.34120  0.81840  Biso   1.000  C
  H40      1.0000 0.91330  0.36050  0.78870  Biso   1.000  H
  C65      1.0000 0.96090  0.32580  0.86680  Biso   1.000  C
  H41      1.0000 0.00660  0.33210  0.87620  Biso   1.000  H
  C66      1.0000 0.31340  0.58980  0.18130  Biso   1.000  C
  C67      1.0000 0.18390  0.43090  0.05670  Biso   1.000  C
  H42      1.0000 0.18260  0.40870  0.08720  Biso   1.000  H
  C68      1.0000 0.32250  0.25050  0.19170  Biso   1.000  C
  Ni5      1.0000 0.75399  0.32837  0.75570  Biso   1.000  Ni
  Ni6      1.0000 0.78101  0.00586  0.46056  Biso   1.000  Ni
  O17      1.0000 0.21590  0.07210  0.65137  Biso   1.000  O
  O18      1.0000 0.78690  0.23960  0.71599  Biso   1.000  O
  O19      1.0000 0.86480  0.05040  0.52768  Biso   1.000  O
  O20      1.0000 0.15250  0.01190  0.57200  Biso   1.000  O
  O21      1.0000 0.77710  0.91710  0.70450  Biso   1.000  O
  O22      1.0000 0.83520  0.32480  0.67690  Biso   1.000  O
  N13      1.0000 0.65730  0.32890  0.69200  Biso   1.000  N
  O23      1.0000 0.82700  0.83510  0.66530  Biso   1.000  O
  N14      1.0000 0.72050  0.03050  0.49730  Biso   1.000  N
  N15      1.0000 0.34880  0.17540  0.31950  Biso   1.000  N
  N16      1.0000 0.43220  0.20090  0.39890  Biso   1.000  N
  N17      1.0000 0.57330  0.30100  0.61400  Biso   1.000  N
  C69      1.0000 0.97840  0.03580  0.59470  Biso   1.000  C
  O24      1.0000 0.91210  0.91150  0.54980  Biso   1.000  O
  C70      1.0000 0.47360  0.23630  0.54060  Biso   1.000  C
  H43      1.0000 0.45450  0.22630  0.56380  Biso   1.000  H
  C71      1.0000 0.90140  0.16100  0.66440  Biso   1.000  C
  H44      1.0000 0.92090  0.21600  0.66160  Biso   1.000  H
  N18      1.0000 0.63180  0.03140  0.51360  Biso   1.000  N
  C72      1.0000 0.92500  0.07930  0.65400  Biso   1.000  C
  C73      1.0000 0.51390  0.99950  0.45700  Biso   1.000  C
  H45      1.0000 0.52330  0.99940  0.42780  Biso   1.000  H
  C74      1.0000 0.98350  0.07580  0.64120  Biso   1.000  C
  C75      1.0000 0.82070  0.07950  0.68410  Biso   1.000  C
  H46      1.0000 0.78620  0.07970  0.69450  Biso   1.000  H
  C76      1.0000 0.52990  0.26790  0.47120  Biso   1.000  C
  H47      1.0000 0.54830  0.27840  0.44770  Biso   1.000  H
  C77      1.0000 0.43870  0.21170  0.48780  Biso   1.000  C
  H48      1.0000 0.39620  0.18520  0.47550  Biso   1.000  H
  C78      1.0000 0.64000  0.30530  0.64280  Biso   1.000  C
  H49      1.0000 0.67080  0.29310  0.62940  Biso   1.000  H
  C79      1.0000 0.53650  0.27570  0.55890  Biso   1.000  C
  C80      1.0000 0.10340  0.09680  0.67090  Biso   1.000  C
  H50      1.0000 0.14510  0.11630  0.69660  Biso   1.000  H
  C81      1.0000 0.15990  0.04650  0.61460  Biso   1.000  C
  C82      1.0000 0.46670  0.22630  0.45360  Biso   1.000  C
  C83      1.0000 0.36530  0.20030  0.36930  Biso   1.000  C
  H51      1.0000 0.33420  0.21520  0.38200  Biso   1.000  H
  C84      1.0000 0.56460  0.01640  0.50640  Biso   1.000  C
  C85      1.0000 0.65660  0.00970  0.47940  Biso   1.000  C
  H52      1.0000 0.63120  0.98280  0.44650  Biso   1.000  H
  C86      1.0000 0.73900  0.06760  0.54580  Biso   1.000  C
  H53      1.0000 0.78190  0.08870  0.56830  Biso   1.000  H
  C87      1.0000 0.04680  0.10690  0.67940  Biso   1.000  C
  H54      1.0000 0.05060  0.13430  0.71040  Biso   1.000  H
  C88      1.0000 0.91270  0.99620  0.55420  Biso   1.000  C
  C89      1.0000 0.54550  0.32420  0.64740  Biso   1.000  C
  H55      1.0000 0.49990  0.32710  0.63900  Biso   1.000  H
  C90      1.0000 0.55140  0.01740  0.55020  Biso   1.000  C
  H56      1.0000 0.58570  0.02930  0.58390  Biso   1.000  H
  C91      1.0000 0.84350  0.99630  0.67400  Biso   1.000  C
  C92      1.0000 0.09840  0.05730  0.62380  Biso   1.000  C
  C93      1.0000 0.89480  0.99840  0.65800  Biso   1.000  C
  H57      1.0000 0.90920  0.94350  0.64960  Biso   1.000  H
  C94      1.0000 0.56560  0.29400  0.52510  Biso   1.000  C
  H58      1.0000 0.60740  0.32250  0.53750  Biso   1.000  H
  C95      1.0000 0.84850  0.16230  0.67900  Biso   1.000  C
  C96      1.0000 0.03600  0.02730  0.58600  Biso   1.000  C
  H59      1.0000 0.03230  0.00130  0.55460  Biso   1.000  H
  C97      1.0000 0.59810  0.34210  0.69490  Biso   1.000  C
  H60      1.0000 0.59440  0.36070  0.72510  Biso   1.000  H
  C98      1.0000 0.40870  0.15880  0.31840  Biso   1.000  C
  H61      1.0000 0.41330  0.13950  0.28870  Biso   1.000  H
  C99      1.0000 0.46090  0.17420  0.36680  Biso   1.000  C
  H62      1.0000 0.50660  0.16790  0.37620  Biso   1.000  H
  C100     1.0000 0.81340  0.91020  0.68130  Biso   1.000  C
  C101     1.0000 0.68390  0.06910  0.55670  Biso   1.000  C
  H63      1.0000 0.68260  0.09130  0.58720  Biso   1.000  H
  C102     1.0000 0.82250  0.24950  0.69170  Biso   1.000  C
  Ni7      1.0000 0.74601  0.82837  0.74430  Biso   1.000  Ni
  Ni8      1.0000 0.71899  0.50586  0.03944  Biso   1.000  Ni
  O25      1.0000 0.28410  0.57210  0.84863  Biso   1.000  O
  O26      1.0000 0.71310  0.73960  0.78401  Biso   1.000  O
  O27      1.0000 0.63520  0.55040  0.97232  Biso   1.000  O
  O28      1.0000 0.34750  0.51190  0.92800  Biso   1.000  O
  O29      1.0000 0.72290  0.41710  0.79550  Biso   1.000  O
  O30      1.0000 0.66480  0.82480  0.82310  Biso   1.000  O
  N19      1.0000 0.84270  0.82890  0.80800  Biso   1.000  N
  O31      1.0000 0.67300  0.33510  0.83470  Biso   1.000  O
  N20      1.0000 0.77950  0.53050  0.00270  Biso   1.000  N
  N21      1.0000 0.15120  0.67540  0.18050  Biso   1.000  N
  N22      1.0000 0.06780  0.70090  0.10110  Biso   1.000  N
  N23      1.0000 0.92670  0.80100  0.88600  Biso   1.000  N
  C103     1.0000 0.52160  0.53580  0.90530  Biso   1.000  C
  O32      1.0000 0.58790  0.41150  0.95020  Biso   1.000  O
  C104     1.0000 0.02640  0.73630  0.95940  Biso   1.000  C
  H64      1.0000 0.04550  0.72630  0.93620  Biso   1.000  H
  C105     1.0000 0.59860  0.66100  0.83560  Biso   1.000  C
  H65      1.0000 0.57910  0.71600  0.83840  Biso   1.000  H
  N24      1.0000 0.86820  0.53140  0.98640  Biso   1.000  N
  C106     1.0000 0.57500  0.57930  0.84600  Biso   1.000  C
  C107     1.0000 0.98610  0.49950  0.04300  Biso   1.000  C
  H66      1.0000 0.97670  0.49940  0.07220  Biso   1.000  H
  C108     1.0000 0.51650  0.57580  0.85880  Biso   1.000  C
  C109     1.0000 0.67930  0.57950  0.81590  Biso   1.000  C
  H67      1.0000 0.71380  0.57970  0.80550  Biso   1.000  H
  C110     1.0000 0.97010  0.76790  0.02880  Biso   1.000  C
  H68      1.0000 0.95170  0.77840  0.05230  Biso   1.000  H
  C111     1.0000 0.06130  0.71170  0.01220  Biso   1.000  C
  H69      1.0000 0.10380  0.68520  0.02450  Biso   1.000  H
  C112     1.0000 0.86000  0.80530  0.85720  Biso   1.000  C
  H70      1.0000 0.82920  0.79310  0.87060  Biso   1.000  H
  C113     1.0000 0.96350  0.77570  0.94110  Biso   1.000  C
  C114     1.0000 0.39660  0.59680  0.82910  Biso   1.000  C
  H71      1.0000 0.35490  0.61630  0.80340  Biso   1.000  H
  C115     1.0000 0.34010  0.54650  0.88540  Biso   1.000  C
  C116     1.0000 0.03330  0.72630  0.04640  Biso   1.000  C
  C117     1.0000 0.13470  0.70030  0.13070  Biso   1.000  C
  H72      1.0000 0.16580  0.71520  0.11800  Biso   1.000  H
  C118     1.0000 0.93540  0.51640  0.99360  Biso   1.000  C
  C119     1.0000 0.84340  0.50970  0.02060  Biso   1.000  C
  H73      1.0000 0.86880  0.48280  0.05350  Biso   1.000  H
  C120     1.0000 0.76100  0.56760  0.95420  Biso   1.000  C
  H74      1.0000 0.71810  0.58870  0.93170  Biso   1.000  H
  C121     1.0000 0.45320  0.60690  0.82060  Biso   1.000  C
  H75      1.0000 0.44940  0.63430  0.78960  Biso   1.000  H
  C122     1.0000 0.58730  0.49620  0.94580  Biso   1.000  C
  C123     1.0000 0.95450  0.82420  0.85260  Biso   1.000  C
  H76      1.0000 0.00010  0.82710  0.86100  Biso   1.000  H
  C124     1.0000 0.94860  0.51740  0.94980  Biso   1.000  C
  H77      1.0000 0.91430  0.52930  0.91610  Biso   1.000  H
  C125     1.0000 0.65650  0.49630  0.82600  Biso   1.000  C
  C126     1.0000 0.40160  0.55730  0.87620  Biso   1.000  C
  C127     1.0000 0.60520  0.49840  0.84200  Biso   1.000  C
  H78      1.0000 0.59080  0.44350  0.85040  Biso   1.000  H
  C128     1.0000 0.93440  0.79400  0.97490  Biso   1.000  C
  H79      1.0000 0.89260  0.82250  0.96250  Biso   1.000  H
  C129     1.0000 0.65150  0.66230  0.82100  Biso   1.000  C
  C130     1.0000 0.46400  0.52730  0.91400  Biso   1.000  C
  H80      1.0000 0.46770  0.50130  0.94540  Biso   1.000  H
  C131     1.0000 0.90190  0.84210  0.80510  Biso   1.000  C
  H81      1.0000 0.90560  0.86070  0.77490  Biso   1.000  H
  C132     1.0000 0.09130  0.65880  0.18160  Biso   1.000  C
  H82      1.0000 0.08670  0.63950  0.21130  Biso   1.000  H
  C133     1.0000 0.03910  0.67420  0.13320  Biso   1.000  C
  H83      1.0000 0.99340  0.66790  0.12380  Biso   1.000  H
  C134     1.0000 0.68660  0.41020  0.81870  Biso   1.000  C
  C135     1.0000 0.81610  0.56910  0.94330  Biso   1.000  C
  H84      1.0000 0.81740  0.59130  0.91280  Biso   1.000  H
  C136     1.0000 0.67750  0.74950  0.80830  Biso   1.000  C
  Ni9      1.0000 0.74601  0.17163  0.24430  Biso   1.000  Ni
  Ni10     1.0000 0.71899  0.49414  0.53944  Biso   1.000  Ni
  O33      1.0000 0.28410  0.42790  0.34863  Biso   1.000  O
  O34      1.0000 0.71310  0.26040  0.28401  Biso   1.000  O
  O35      1.0000 0.63520  0.44960  0.47232  Biso   1.000  O
  O36      1.0000 0.34750  0.48810  0.42800  Biso   1.000  O
  O37      1.0000 0.72290  0.58290  0.29550  Biso   1.000  O
  O38      1.0000 0.66480  0.17520  0.32310  Biso   1.000  O
  N25      1.0000 0.84270  0.17110  0.30800  Biso   1.000  N
  O39      1.0000 0.67300  0.66490  0.33470  Biso   1.000  O
  N26      1.0000 0.77950  0.46950  0.50270  Biso   1.000  N
  N27      1.0000 0.15120  0.32460  0.68050  Biso   1.000  N
  N28      1.0000 0.06780  0.29910  0.60110  Biso   1.000  N
  N29      1.0000 0.92670  0.19900  0.38600  Biso   1.000  N
  C137     1.0000 0.52160  0.46420  0.40530  Biso   1.000  C
  O40      1.0000 0.58790  0.58850  0.45020  Biso   1.000  O
  C138     1.0000 0.02640  0.26370  0.45940  Biso   1.000  C
  H85      1.0000 0.04550  0.27370  0.43620  Biso   1.000  H
  C139     1.0000 0.59860  0.33900  0.33560  Biso   1.000  C
  H86      1.0000 0.57910  0.28400  0.33840  Biso   1.000  H
  N30      1.0000 0.86820  0.46860  0.48640  Biso   1.000  N
  C140     1.0000 0.57500  0.42070  0.34600  Biso   1.000  C
  C141     1.0000 0.98610  0.50050  0.54300  Biso   1.000  C
  H87      1.0000 0.97670  0.50060  0.57220  Biso   1.000  H
  C142     1.0000 0.51650  0.42420  0.35880  Biso   1.000  C
  C143     1.0000 0.67930  0.42050  0.31590  Biso   1.000  C
  H88      1.0000 0.71380  0.42030  0.30550  Biso   1.000  H
  C144     1.0000 0.97010  0.23210  0.52880  Biso   1.000  C
  H89      1.0000 0.95170  0.22160  0.55230  Biso   1.000  H
  C145     1.0000 0.06130  0.28830  0.51220  Biso   1.000  C
  H90      1.0000 0.10380  0.31480  0.52450  Biso   1.000  H
  C146     1.0000 0.86000  0.19470  0.35720  Biso   1.000  C
  H91      1.0000 0.82920  0.20690  0.37060  Biso   1.000  H
  C147     1.0000 0.96350  0.22430  0.44110  Biso   1.000  C
  C148     1.0000 0.39660  0.40320  0.32910  Biso   1.000  C
  H92      1.0000 0.35490  0.38370  0.30340  Biso   1.000  H
  C149     1.0000 0.34010  0.45350  0.38540  Biso   1.000  C
  C150     1.0000 0.03330  0.27370  0.54640  Biso   1.000  C
  C151     1.0000 0.13470  0.29970  0.63070  Biso   1.000  C
  H93      1.0000 0.16580  0.28480  0.61800  Biso   1.000  H
  C152     1.0000 0.93540  0.48360  0.49360  Biso   1.000  C
  C153     1.0000 0.84340  0.49030  0.52060  Biso   1.000  C
  H94      1.0000 0.86880  0.51720  0.55350  Biso   1.000  H
  C154     1.0000 0.76100  0.43240  0.45420  Biso   1.000  C
  H95      1.0000 0.71810  0.41130  0.43170  Biso   1.000  H
  C155     1.0000 0.45320  0.39310  0.32060  Biso   1.000  C
  H96      1.0000 0.44940  0.36570  0.28960  Biso   1.000  H
  C156     1.0000 0.58730  0.50380  0.44580  Biso   1.000  C
  C157     1.0000 0.95450  0.17580  0.35260  Biso   1.000  C
  H97      1.0000 0.00010  0.17290  0.36100  Biso   1.000  H
  C158     1.0000 0.94860  0.48260  0.44980  Biso   1.000  C
  H98      1.0000 0.91430  0.47070  0.41610  Biso   1.000  H
  C159     1.0000 0.65650  0.50370  0.32600  Biso   1.000  C
  C160     1.0000 0.40160  0.44270  0.37620  Biso   1.000  C
  C161     1.0000 0.60520  0.50160  0.34200  Biso   1.000  C
  H99      1.0000 0.59080  0.55650  0.35040  Biso   1.000  H
  C162     1.0000 0.93440  0.20600  0.47490  Biso   1.000  C
  H100     1.0000 0.89260  0.17750  0.46250  Biso   1.000  H
  C163     1.0000 0.65150  0.33770  0.32100  Biso   1.000  C
  C164     1.0000 0.46400  0.47270  0.41400  Biso   1.000  C
  H101     1.0000 0.46770  0.49870  0.44540  Biso   1.000  H
  C165     1.0000 0.90190  0.15790  0.30510  Biso   1.000  C
  H102     1.0000 0.90560  0.13930  0.27490  Biso   1.000  H
  C166     1.0000 0.09130  0.34120  0.68160  Biso   1.000  C
  H103     1.0000 0.08670  0.36050  0.71130  Biso   1.000  H
  C167     1.0000 0.03910  0.32580  0.63320  Biso   1.000  C
  H104     1.0000 0.99340  0.33210  0.62380  Biso   1.000  H
  C168     1.0000 0.68660  0.58980  0.31870  Biso   1.000  C
  C169     1.0000 0.81610  0.43090  0.44330  Biso   1.000  C
  H105     1.0000 0.81740  0.40870  0.41280  Biso   1.000  H
  C170     1.0000 0.67750  0.25050  0.30830  Biso   1.000  C
  Ni11     1.0000 0.75399  0.67163  0.25570  Biso   1.000  Ni
  Ni12     1.0000 0.78101  0.99414  0.96056  Biso   1.000  Ni
  O41      1.0000 0.21590  0.92790  0.15137  Biso   1.000  O
  O42      1.0000 0.78690  0.76040  0.21599  Biso   1.000  O
  O43      1.0000 0.86480  0.94960  0.02768  Biso   1.000  O
  O44      1.0000 0.15250  0.98810  0.07200  Biso   1.000  O
  O45      1.0000 0.77710  0.08290  0.20450  Biso   1.000  O
  O46      1.0000 0.83520  0.67520  0.17690  Biso   1.000  O
  N31      1.0000 0.65730  0.67110  0.19200  Biso   1.000  N
  O47      1.0000 0.82700  0.16490  0.16530  Biso   1.000  O
  N32      1.0000 0.72050  0.96950  0.99730  Biso   1.000  N
  N33      1.0000 0.34880  0.82460  0.81950  Biso   1.000  N
  N34      1.0000 0.43220  0.79910  0.89890  Biso   1.000  N
  N35      1.0000 0.57330  0.69900  0.11400  Biso   1.000  N
  C171     1.0000 0.97840  0.96420  0.09470  Biso   1.000  C
  O48      1.0000 0.91210  0.08850  0.04980  Biso   1.000  O
  C172     1.0000 0.47360  0.76370  0.04060  Biso   1.000  C
  H106     1.0000 0.45450  0.77370  0.06380  Biso   1.000  H
  C173     1.0000 0.90140  0.83900  0.16440  Biso   1.000  C
  H107     1.0000 0.92090  0.78400  0.16160  Biso   1.000  H
  N36      1.0000 0.63180  0.96860  0.01360  Biso   1.000  N
  C174     1.0000 0.92500  0.92070  0.15400  Biso   1.000  C
  C175     1.0000 0.51390  0.00050  0.95700  Biso   1.000  C
  H108     1.0000 0.52330  0.00060  0.92780  Biso   1.000  H
  C176     1.0000 0.98350  0.92420  0.14120  Biso   1.000  C
  C177     1.0000 0.82070  0.92050  0.18410  Biso   1.000  C
  H109     1.0000 0.78620  0.92030  0.19450  Biso   1.000  H
  C178     1.0000 0.52990  0.73210  0.97120  Biso   1.000  C
  H110     1.0000 0.54830  0.72160  0.94770  Biso   1.000  H
  C179     1.0000 0.43870  0.78830  0.98780  Biso   1.000  C
  H111     1.0000 0.39620  0.81480  0.97550  Biso   1.000  H
  C180     1.0000 0.64000  0.69470  0.14280  Biso   1.000  C
  H112     1.0000 0.67080  0.70690  0.12940  Biso   1.000  H
  C181     1.0000 0.53650  0.72430  0.05890  Biso   1.000  C
  C182     1.0000 0.10340  0.90320  0.17090  Biso   1.000  C
  H113     1.0000 0.14510  0.88370  0.19660  Biso   1.000  H
  C183     1.0000 0.15990  0.95350  0.11460  Biso   1.000  C
  C184     1.0000 0.46670  0.77370  0.95360  Biso   1.000  C
  C185     1.0000 0.36530  0.79970  0.86930  Biso   1.000  C
  H114     1.0000 0.33420  0.78480  0.88200  Biso   1.000  H
  C186     1.0000 0.56460  0.98360  0.00640  Biso   1.000  C
  C187     1.0000 0.65660  0.99030  0.97940  Biso   1.000  C
  H115     1.0000 0.63120  0.01720  0.94650  Biso   1.000  H
  C188     1.0000 0.73900  0.93240  0.04580  Biso   1.000  C
  H116     1.0000 0.78190  0.91130  0.06830  Biso   1.000  H
  C189     1.0000 0.04680  0.89310  0.17940  Biso   1.000  C
  H117     1.0000 0.05060  0.86570  0.21040  Biso   1.000  H
  C190     1.0000 0.91270  0.00380  0.05420  Biso   1.000  C
  C191     1.0000 0.54550  0.67580  0.14740  Biso   1.000  C
  H118     1.0000 0.49990  0.67290  0.13900  Biso   1.000  H
  C192     1.0000 0.55140  0.98260  0.05020  Biso   1.000  C
  H119     1.0000 0.58570  0.97070  0.08390  Biso   1.000  H
  C193     1.0000 0.84350  0.00370  0.17400  Biso   1.000  C
  C194     1.0000 0.09840  0.94270  0.12380  Biso   1.000  C
  C195     1.0000 0.89480  0.00160  0.15800  Biso   1.000  C
  H120     1.0000 0.90920  0.05650  0.14960  Biso   1.000  H
  C196     1.0000 0.56560  0.70600  0.02510  Biso   1.000  C
  H121     1.0000 0.60740  0.67750  0.03750  Biso   1.000  H
  C197     1.0000 0.84850  0.83770  0.17900  Biso   1.000  C
  C198     1.0000 0.03600  0.97270  0.08600  Biso   1.000  C
  H122     1.0000 0.03230  0.99870  0.05460  Biso   1.000  H
  C199     1.0000 0.59810  0.65790  0.19490  Biso   1.000  C
  H123     1.0000 0.59440  0.63930  0.22510  Biso   1.000  H
  C200     1.0000 0.40870  0.84120  0.81840  Biso   1.000  C
  H124     1.0000 0.41330  0.86050  0.78870  Biso   1.000  H
  C201     1.0000 0.46090  0.82580  0.86680  Biso   1.000  C
  H125     1.0000 0.50660  0.83210  0.87620  Biso   1.000  H
  C202     1.0000 0.81340  0.08980  0.18130  Biso   1.000  C
  C203     1.0000 0.68390  0.93090  0.05670  Biso   1.000  C
  H126     1.0000 0.68260  0.90870  0.08720  Biso   1.000  H
  C204     1.0000 0.82250  0.75050  0.19170  Biso   1.000  C
  Ni13     1.0000 0.25399  0.82837  0.75570  Biso   1.000  Ni
  Ni14     1.0000 0.28101  0.50586  0.46056  Biso   1.000  Ni
  O49      1.0000 0.71590  0.57210  0.65137  Biso   1.000  O
  O50      1.0000 0.28690  0.73960  0.71599  Biso   1.000  O
  O51      1.0000 0.36480  0.55040  0.52768  Biso   1.000  O
  O52      1.0000 0.65250  0.51190  0.57200  Biso   1.000  O
  O53      1.0000 0.27710  0.41710  0.70450  Biso   1.000  O
  O54      1.0000 0.33520  0.82480  0.67690  Biso   1.000  O
  N37      1.0000 0.15730  0.82890  0.69200  Biso   1.000  N
  O55      1.0000 0.32700  0.33510  0.66530  Biso   1.000  O
  N38      1.0000 0.22050  0.53050  0.49730  Biso   1.000  N
  N39      1.0000 0.84880  0.67540  0.31950  Biso   1.000  N
  N40      1.0000 0.93220  0.70090  0.39890  Biso   1.000  N
  N41      1.0000 0.07330  0.80100  0.61400  Biso   1.000  N
  C205     1.0000 0.47840  0.53580  0.59470  Biso   1.000  C
  O56      1.0000 0.41210  0.41150  0.54980  Biso   1.000  O
  C206     1.0000 0.97360  0.73630  0.54060  Biso   1.000  C
  H127     1.0000 0.95450  0.72630  0.56380  Biso   1.000  H
  C207     1.0000 0.40140  0.66100  0.66440  Biso   1.000  C
  H128     1.0000 0.42090  0.71600  0.66160  Biso   1.000  H
  N42      1.0000 0.13180  0.53140  0.51360  Biso   1.000  N
  C208     1.0000 0.42500  0.57930  0.65400  Biso   1.000  C
  C209     1.0000 0.01390  0.49950  0.45700  Biso   1.000  C
  H129     1.0000 0.02330  0.49940  0.42780  Biso   1.000  H
  C210     1.0000 0.48350  0.57580  0.64120  Biso   1.000  C
  C211     1.0000 0.32070  0.57950  0.68410  Biso   1.000  C
  H130     1.0000 0.28620  0.57970  0.69450  Biso   1.000  H
  C212     1.0000 0.02990  0.76790  0.47120  Biso   1.000  C
  H131     1.0000 0.04830  0.77840  0.44770  Biso   1.000  H
  C213     1.0000 0.93870  0.71170  0.48780  Biso   1.000  C
  H132     1.0000 0.89620  0.68520  0.47550  Biso   1.000  H
  C214     1.0000 0.14000  0.80530  0.64280  Biso   1.000  C
  H133     1.0000 0.17080  0.79310  0.62940  Biso   1.000  H
  C215     1.0000 0.03650  0.77570  0.55890  Biso   1.000  C
  C216     1.0000 0.60340  0.59680  0.67090  Biso   1.000  C
  H134     1.0000 0.64510  0.61630  0.69660  Biso   1.000  H
  C217     1.0000 0.65990  0.54650  0.61460  Biso   1.000  C
  C218     1.0000 0.96670  0.72630  0.45360  Biso   1.000  C
  C219     1.0000 0.86530  0.70030  0.36930  Biso   1.000  C
  H135     1.0000 0.83420  0.71520  0.38200  Biso   1.000  H
  C220     1.0000 0.06460  0.51640  0.50640  Biso   1.000  C
  C221     1.0000 0.15660  0.50970  0.47940  Biso   1.000  C
  H136     1.0000 0.13120  0.48280  0.44650  Biso   1.000  H
  C222     1.0000 0.23900  0.56760  0.54580  Biso   1.000  C
  H137     1.0000 0.28190  0.58870  0.56830  Biso   1.000  H
  C223     1.0000 0.54680  0.60690  0.67940  Biso   1.000  C
  H138     1.0000 0.55060  0.63430  0.71040  Biso   1.000  H
  C224     1.0000 0.41270  0.49620  0.55420  Biso   1.000  C
  C225     1.0000 0.04550  0.82420  0.64740  Biso   1.000  C
  H139     1.0000 0.99990  0.82710  0.63900  Biso   1.000  H
  C226     1.0000 0.05140  0.51740  0.55020  Biso   1.000  C
  H140     1.0000 0.08570  0.52930  0.58390  Biso   1.000  H
  C227     1.0000 0.34350  0.49630  0.67400  Biso   1.000  C
  C228     1.0000 0.59840  0.55730  0.62380  Biso   1.000  C
  C229     1.0000 0.39480  0.49840  0.65800  Biso   1.000  C
  H141     1.0000 0.40920  0.44350  0.64960  Biso   1.000  H
  C230     1.0000 0.06560  0.79400  0.52510  Biso   1.000  C
  H142     1.0000 0.10740  0.82250  0.53750  Biso   1.000  H
  C231     1.0000 0.34850  0.66230  0.67900  Biso   1.000  C
  C232     1.0000 0.53600  0.52730  0.58600  Biso   1.000  C
  H143     1.0000 0.53230  0.50130  0.55460  Biso   1.000  H
  C233     1.0000 0.09810  0.84210  0.69490  Biso   1.000  C
  H144     1.0000 0.09440  0.86070  0.72510  Biso   1.000  H
  C234     1.0000 0.90870  0.65880  0.31840  Biso   1.000  C
  H145     1.0000 0.91330  0.63950  0.28870  Biso   1.000  H
  C235     1.0000 0.96090  0.67420  0.36680  Biso   1.000  C
  H146     1.0000 0.00660  0.66790  0.37620  Biso   1.000  H
  C236     1.0000 0.31340  0.41020  0.68130  Biso   1.000  C
  C237     1.0000 0.18390  0.56910  0.55670  Biso   1.000  C
  H147     1.0000 0.18260  0.59130  0.58720  Biso   1.000  H
  C238     1.0000 0.32250  0.74950  0.69170  Biso   1.000  C
  Ni15     1.0000 0.24601  0.32837  0.74430  Biso   1.000  Ni
  Ni16     1.0000 0.21899  0.00586  0.03944  Biso   1.000  Ni
  O57      1.0000 0.78410  0.07210  0.84863  Biso   1.000  O
  O58      1.0000 0.21310  0.23960  0.78401  Biso   1.000  O
  O59      1.0000 0.13520  0.05040  0.97232  Biso   1.000  O
  O60      1.0000 0.84750  0.01190  0.92800  Biso   1.000  O
  O61      1.0000 0.22290  0.91710  0.79550  Biso   1.000  O
  O62      1.0000 0.16480  0.32480  0.82310  Biso   1.000  O
  N43      1.0000 0.34270  0.32890  0.80800  Biso   1.000  N
  O63      1.0000 0.17300  0.83510  0.83470  Biso   1.000  O
  N44      1.0000 0.27950  0.03050  0.00270  Biso   1.000  N
  N45      1.0000 0.65120  0.17540  0.18050  Biso   1.000  N
  N46      1.0000 0.56780  0.20090  0.10110  Biso   1.000  N
  N47      1.0000 0.42670  0.30100  0.88600  Biso   1.000  N
  C239     1.0000 0.02160  0.03580  0.90530  Biso   1.000  C
  O64      1.0000 0.08790  0.91150  0.95020  Biso   1.000  O
  C240     1.0000 0.52640  0.23630  0.95940  Biso   1.000  C
  H148     1.0000 0.54550  0.22630  0.93620  Biso   1.000  H
  C241     1.0000 0.09860  0.16100  0.83560  Biso   1.000  C
  H149     1.0000 0.07910  0.21600  0.83840  Biso   1.000  H
  N48      1.0000 0.36820  0.03140  0.98640  Biso   1.000  N
  C242     1.0000 0.07500  0.07930  0.84600  Biso   1.000  C
  C243     1.0000 0.48610  0.99950  0.04300  Biso   1.000  C
  H150     1.0000 0.47670  0.99940  0.07220  Biso   1.000  H
  C244     1.0000 0.01650  0.07580  0.85880  Biso   1.000  C
  C245     1.0000 0.17930  0.07950  0.81590  Biso   1.000  C
  H151     1.0000 0.21380  0.07970  0.80550  Biso   1.000  H
  C246     1.0000 0.47010  0.26790  0.02880  Biso   1.000  C
  H152     1.0000 0.45170  0.27840  0.05230  Biso   1.000  H
  C247     1.0000 0.56130  0.21170  0.01220  Biso   1.000  C
  H153     1.0000 0.60380  0.18520  0.02450  Biso   1.000  H
  C248     1.0000 0.36000  0.30530  0.85720  Biso   1.000  C
  H154     1.0000 0.32920  0.29310  0.87060  Biso   1.000  H
  C249     1.0000 0.46350  0.27570  0.94110  Biso   1.000  C
  C250     1.0000 0.89660  0.09680  0.82910  Biso   1.000  C
  H155     1.0000 0.85490  0.11630  0.80340  Biso   1.000  H
  C251     1.0000 0.84010  0.04650  0.88540  Biso   1.000  C
  C252     1.0000 0.53330  0.22630  0.04640  Biso   1.000  C
  C253     1.0000 0.63470  0.20030  0.13070  Biso   1.000  C
  H156     1.0000 0.66580  0.21520  0.11800  Biso   1.000  H
  C254     1.0000 0.43540  0.01640  0.99360  Biso   1.000  C
  C255     1.0000 0.34340  0.00970  0.02060  Biso   1.000  C
  H157     1.0000 0.36880  0.98280  0.05350  Biso   1.000  H
  C256     1.0000 0.26100  0.06760  0.95420  Biso   1.000  C
  H158     1.0000 0.21810  0.08870  0.93170  Biso   1.000  H
  C257     1.0000 0.95320  0.10690  0.82060  Biso   1.000  C
  H159     1.0000 0.94940  0.13430  0.78960  Biso   1.000  H
  C258     1.0000 0.08730  0.99620  0.94580  Biso   1.000  C
  C259     1.0000 0.45450  0.32420  0.85260  Biso   1.000  C
  H160     1.0000 0.50010  0.32710  0.86100  Biso   1.000  H
  C260     1.0000 0.44860  0.01740  0.94980  Biso   1.000  C
  H161     1.0000 0.41430  0.02930  0.91610  Biso   1.000  H
  C261     1.0000 0.15650  0.99630  0.82600  Biso   1.000  C
  C262     1.0000 0.90160  0.05730  0.87620  Biso   1.000  C
  C263     1.0000 0.10520  0.99840  0.84200  Biso   1.000  C
  H162     1.0000 0.09080  0.94350  0.85040  Biso   1.000  H
  C264     1.0000 0.43440  0.29400  0.97490  Biso   1.000  C
  H163     1.0000 0.39260  0.32250  0.96250  Biso   1.000  H
  C265     1.0000 0.15150  0.16230  0.82100  Biso   1.000  C
  C266     1.0000 0.96400  0.02730  0.91400  Biso   1.000  C
  H164     1.0000 0.96770  0.00130  0.94540  Biso   1.000  H
  C267     1.0000 0.40190  0.34210  0.80510  Biso   1.000  C
  H165     1.0000 0.40560  0.36070  0.77490  Biso   1.000  H
  C268     1.0000 0.59130  0.15880  0.18160  Biso   1.000  C
  H166     1.0000 0.58670  0.13950  0.21130  Biso   1.000  H
  C269     1.0000 0.53910  0.17420  0.13320  Biso   1.000  C
  H167     1.0000 0.49340  0.16790  0.12380  Biso   1.000  H
  C270     1.0000 0.18660  0.91020  0.81870  Biso   1.000  C
  C271     1.0000 0.31610  0.06910  0.94330  Biso   1.000  C
  H168     1.0000 0.31740  0.09130  0.91280  Biso   1.000  H
  C272     1.0000 0.17750  0.24950  0.80830  Biso   1.000  C
