data_LOFVUY_clean
_audit_creation_date              2014-07-02
_audit_creation_method            'Materials Studio'
_symmetry_space_group_name_H-M    'P1'
_symmetry_Int_Tables_number       1
_symmetry_cell_setting            triclinic
loop_
_symmetry_equiv_pos_as_xyz
  x,y,z
_cell_length_a                    13.1020
_cell_length_b                    26.1040
_cell_length_c                    26.2790
_cell_angle_alpha                 90.0000
_cell_angle_beta                  90.0000
_cell_angle_gamma                 93.9230
loop_
_atom_site_label
_atom_site_type_symbol
_atom_site_fract_x
_atom_site_fract_y
_atom_site_fract_z
_atom_site_U_iso_or_equiv
_atom_site_adp_type
_atom_site_occupancy
Tb1    Tb    0.52724   0.61657   0.70988   0.01267  Uiso   1.00
Tb2    Tb    0.52724   0.11657   0.79012   0.01267  Uiso   1.00
V1     V     0.86116   0.69552   0.20389   0.01267  Uiso   1.00
V2     V     0.87917   0.57114   0.19337   0.01267  Uiso   1.00
V3     V     0.06815   0.65156   0.15410   0.01267  Uiso   1.00
V4     V     0.08573   0.58160   0.24461   0.01267  Uiso   1.00
V5     V     0.06751   0.70543   0.25571   0.01267  Uiso   1.00
V6     V     0.87879   0.62503   0.29497   0.01267  Uiso   1.00
V7     V     0.86116   0.19552   0.29611   0.01267  Uiso   1.00
V8     V     0.87917   0.07114   0.30663   0.01267  Uiso   1.00
V9     V     0.06815   0.15156   0.34590   0.01267  Uiso   1.00
V10    V     0.08573   0.08160   0.25539   0.01267  Uiso   1.00
V11    V     0.06751   0.20543   0.24429   0.01267  Uiso   1.00
V12    V     0.87879   0.12503   0.20503   0.01267  Uiso   1.00
H1     H     0.97640   0.67290   0.39220   0.01267  Uiso   1.00
H2     H     0.06910   0.71130   0.37260   0.01267  Uiso   1.00
H3     H     0.22460   0.67670   0.33520   0.01267  Uiso   1.00
H4     H     0.23400   0.61620   0.32800   0.01267  Uiso   1.00
H5     H     0.09100   0.55360   0.36210   0.01267  Uiso   1.00
H6     H     0.98930   0.57670   0.38430   0.01267  Uiso   1.00
H7     H     0.14940   0.69990   0.43990   0.01267  Uiso   1.00
H8     H     0.24770   0.68400   0.40890   0.01267  Uiso   1.00
H9     H     0.88270   0.56330   0.07570   0.01267  Uiso   1.00
H10    H     0.97180   0.60430   0.05710   0.01267  Uiso   1.00
H11    H     0.95210   0.70140   0.06680   0.01267  Uiso   1.00
H12    H     0.85030   0.72020   0.09250   0.01267  Uiso   1.00
H13    H     0.71010   0.65650   0.11870   0.01267  Uiso   1.00
H14    H     0.72180   0.59600   0.11560   0.01267  Uiso   1.00
H15    H     0.74970   0.70520   0.01220   0.01267  Uiso   1.00
H16    H     0.66120   0.66500   0.03360   0.01267  Uiso   1.00
H17    H     0.75800   0.72420   0.93540   0.01267  Uiso   1.00
H18    H     0.70880   0.70460   0.84490   0.01267  Uiso   1.00
H19    H     0.59190   0.56340   0.86780   0.01267  Uiso   1.00
H20    H     0.63530   0.57530   0.96090   0.01267  Uiso   1.00
H21    H     0.45850   0.61020   0.52290   0.01267  Uiso   1.00
H22    H     0.37020   0.63320   0.44880   0.01267  Uiso   1.00
H23    H     0.15110   0.68960   0.53630   0.01267  Uiso   1.00
H24    H     0.23910   0.66680   0.61150   0.01267  Uiso   1.00
H25    H     0.41490   0.73440   0.67980   0.01267  Uiso   1.00
H26    H     0.38630   0.81590   0.70470   0.01267  Uiso   1.00
H27    H     0.68850   0.84310   0.73050   0.01267  Uiso   1.00
H28    H     0.71150   0.76170   0.70340   0.01267  Uiso   1.00
H29    H     0.63300   0.00250   0.76770   0.01267  Uiso   1.00
H30    H     0.66100   0.91980   0.73480   0.01267  Uiso   1.00
H31    H     0.36110   0.88090   0.74900   0.01267  Uiso   1.00
H32    H     0.33370   0.96070   0.77570   0.01267  Uiso   1.00
H33    H     0.28580   0.69420   0.73840   0.01267  Uiso   1.00
H34    H     0.11160   0.68570   0.72590   0.01267  Uiso   1.00
H35    H     0.11270   0.53430   0.75510   0.01267  Uiso   1.00
H36    H     0.28690   0.54760   0.77330   0.01267  Uiso   1.00
H37    H     0.77930   0.66840   0.72180   0.01267  Uiso   1.00
H38    H     0.94800   0.67490   0.74680   0.01267  Uiso   1.00
H39    H     0.97400   0.52990   0.70500   0.01267  Uiso   1.00
H40    H     0.80860   0.52540   0.67500   0.01267  Uiso   1.00
H41    H     0.13740   0.60090   0.43940   0.01267  Uiso   1.00
H42    H     0.82230   0.61390   0.00890   0.01267  Uiso   1.00
H43    H     0.97640   0.17290   0.10780   0.01267  Uiso   1.00
H44    H     0.06910   0.21130   0.12740   0.01267  Uiso   1.00
H45    H     0.22460   0.17670   0.16480   0.01267  Uiso   1.00
H46    H     0.23400   0.11620   0.17200   0.01267  Uiso   1.00
H47    H     0.09100   0.05360   0.13790   0.01267  Uiso   1.00
H48    H     0.98930   0.07670   0.11570   0.01267  Uiso   1.00
H49    H     0.14940   0.19990   0.06010   0.01267  Uiso   1.00
H50    H     0.24770   0.18400   0.09110   0.01267  Uiso   1.00
H51    H     0.88270   0.06330   0.42430   0.01267  Uiso   1.00
H52    H     0.97180   0.10430   0.44290   0.01267  Uiso   1.00
H53    H     0.95210   0.20140   0.43320   0.01267  Uiso   1.00
H54    H     0.85030   0.22020   0.40750   0.01267  Uiso   1.00
H55    H     0.71010   0.15650   0.38130   0.01267  Uiso   1.00
H56    H     0.72180   0.09600   0.38440   0.01267  Uiso   1.00
H57    H     0.74970   0.20520   0.48780   0.01267  Uiso   1.00
H58    H     0.66120   0.16500   0.46640   0.01267  Uiso   1.00
H59    H     0.75800   0.22420   0.56460   0.01267  Uiso   1.00
H60    H     0.70880   0.20460   0.65510   0.01267  Uiso   1.00
H61    H     0.59190   0.06340   0.63220   0.01267  Uiso   1.00
H62    H     0.63530   0.07530   0.53910   0.01267  Uiso   1.00
H63    H     0.45850   0.11020   0.97710   0.01267  Uiso   1.00
H64    H     0.37020   0.13320   0.05120   0.01267  Uiso   1.00
H65    H     0.15110   0.18960   0.96370   0.01267  Uiso   1.00
H66    H     0.23910   0.16680   0.88850   0.01267  Uiso   1.00
H67    H     0.41490   0.23440   0.82020   0.01267  Uiso   1.00
H68    H     0.38630   0.31590   0.79530   0.01267  Uiso   1.00
H69    H     0.68850   0.34310   0.76950   0.01267  Uiso   1.00
H70    H     0.71150   0.26170   0.79660   0.01267  Uiso   1.00
H71    H     0.63300   0.50250   0.73230   0.01267  Uiso   1.00
H72    H     0.66100   0.41980   0.76520   0.01267  Uiso   1.00
H73    H     0.36110   0.38090   0.75100   0.01267  Uiso   1.00
H74    H     0.33370   0.46070   0.72430   0.01267  Uiso   1.00
H75    H     0.28580   0.19420   0.76160   0.01267  Uiso   1.00
H76    H     0.11160   0.18570   0.77410   0.01267  Uiso   1.00
H77    H     0.11270   0.03430   0.74490   0.01267  Uiso   1.00
H78    H     0.28690   0.04760   0.72670   0.01267  Uiso   1.00
H79    H     0.77930   0.16840   0.77820   0.01267  Uiso   1.00
H80    H     0.94800   0.17490   0.75320   0.01267  Uiso   1.00
H81    H     0.97400   0.02990   0.79500   0.01267  Uiso   1.00
H82    H     0.80860   0.02540   0.82500   0.01267  Uiso   1.00
H83    H     0.13740   0.10090   0.06060   0.01267  Uiso   1.00
H84    H     0.82230   0.11390   0.49110   0.01267  Uiso   1.00
C1     C     0.02880   0.67870   0.36530   0.01267  Uiso   1.00
C2     C     0.18620   0.64390   0.32630   0.01267  Uiso   1.00
C3     C     0.10060   0.63310   0.36410   0.01267  Uiso   1.00
C4     C     0.04370   0.58140   0.35830   0.01267  Uiso   1.00
C5     C     0.19700   0.67260   0.43540   0.01267  Uiso   1.00
C6     C     0.91890   0.59690   0.08350   0.01267  Uiso   1.00
C7     C     0.90060   0.69370   0.09380   0.01267  Uiso   1.00
C8     C     0.84350   0.63860   0.08330   0.01267  Uiso   1.00
C9     C     0.75920   0.62950   0.12240   0.01267  Uiso   1.00
C10    C     0.72300   0.66880   0.01220   0.01267  Uiso   1.00
C11    C     0.70000   0.64990   0.95700   0.01267  Uiso   1.00
C12    C     0.72580   0.69230   0.92460   0.01267  Uiso   1.00
C13    C     0.69490   0.67930   0.87040   0.01267  Uiso   1.00
C14    C     0.65150   0.63650   0.85730   0.01267  Uiso   1.00
C15    C     0.62400   0.59390   0.88200   0.01267  Uiso   1.00
C16    C     0.65100   0.60250   0.93800   0.01267  Uiso   1.00
C17    C     0.61750   0.62980   0.80530   0.01267  Uiso   1.00
C18    C     0.41350   0.62390   0.62070   0.01267  Uiso   1.00
C19    C     0.35790   0.63610   0.57310   0.01267  Uiso   1.00
C20    C     0.39600   0.62640   0.52590   0.01267  Uiso   1.00
C21    C     0.34280   0.64030   0.48130   0.01267  Uiso   1.00
C22    C     0.25210   0.66380   0.48460   0.01267  Uiso   1.00
C23    C     0.21370   0.67350   0.53340   0.01267  Uiso   1.00
C24    C     0.26580   0.65990   0.57880   0.01267  Uiso   1.00
C25    C     0.47090   0.75700   0.69010   0.01267  Uiso   1.00
C26    C     0.45400   0.80500   0.70540   0.01267  Uiso   1.00
C27    C     0.53050   0.83750   0.72130   0.01267  Uiso   1.00
C28    C     0.63170   0.82090   0.72020   0.01267  Uiso   1.00
C29    C     0.64440   0.77340   0.70430   0.01267  Uiso   1.00
C30    C     0.51490   0.89210   0.73760   0.01267  Uiso   1.00
C31    C     0.57710   0.97770   0.76340   0.01267  Uiso   1.00
C32    C     0.59370   0.92790   0.74370   0.01267  Uiso   1.00
C33    C     0.41740   0.90570   0.75160   0.01267  Uiso   1.00
C34    C     0.40180   0.95250   0.76850   0.01267  Uiso   1.00
C35    C     0.24910   0.66210   0.74420   0.01267  Uiso   1.00
C36    C     0.14650   0.65640   0.73520   0.01267  Uiso   1.00
C37    C     0.09230   0.61020   0.73930   0.01267  Uiso   1.00
C38    C     0.14610   0.56770   0.75310   0.01267  Uiso   1.00
C39    C     0.24950   0.57600   0.76380   0.01267  Uiso   1.00
C40    C     0.82010   0.64000   0.71780   0.01267  Uiso   1.00
C41    C     0.91940   0.64380   0.73230   0.01267  Uiso   1.00
C42    C     0.97910   0.60290   0.72610   0.01267  Uiso   1.00
C43    C     0.93520   0.55930   0.70720   0.01267  Uiso   1.00
C44    C     0.83690   0.55580   0.69100   0.01267  Uiso   1.00
C45    C     0.02880   0.17870   0.13470   0.01267  Uiso   1.00
C46    C     0.18620   0.14390   0.17370   0.01267  Uiso   1.00
C47    C     0.10060   0.13310   0.13590   0.01267  Uiso   1.00
C48    C     0.04370   0.08140   0.14170   0.01267  Uiso   1.00
C49    C     0.19700   0.17260   0.06460   0.01267  Uiso   1.00
C50    C     0.91890   0.09690   0.41650   0.01267  Uiso   1.00
C51    C     0.90060   0.19370   0.40620   0.01267  Uiso   1.00
C52    C     0.84350   0.13860   0.41670   0.01267  Uiso   1.00
C53    C     0.75920   0.12950   0.37760   0.01267  Uiso   1.00
C54    C     0.72300   0.16880   0.48780   0.01267  Uiso   1.00
C55    C     0.70000   0.14990   0.54300   0.01267  Uiso   1.00
C56    C     0.72580   0.19230   0.57540   0.01267  Uiso   1.00
C57    C     0.69490   0.17930   0.62960   0.01267  Uiso   1.00
C58    C     0.65150   0.13650   0.64270   0.01267  Uiso   1.00
C59    C     0.62400   0.09390   0.61800   0.01267  Uiso   1.00
C60    C     0.65100   0.10250   0.56200   0.01267  Uiso   1.00
C61    C     0.61750   0.12980   0.69470   0.01267  Uiso   1.00
C62    C     0.41350   0.12390   0.87930   0.01267  Uiso   1.00
C63    C     0.35790   0.13610   0.92690   0.01267  Uiso   1.00
C64    C     0.39600   0.12640   0.97410   0.01267  Uiso   1.00
C65    C     0.34280   0.14030   0.01870   0.01267  Uiso   1.00
C66    C     0.25210   0.16380   0.01540   0.01267  Uiso   1.00
C67    C     0.21370   0.17350   0.96660   0.01267  Uiso   1.00
C68    C     0.26580   0.15990   0.92120   0.01267  Uiso   1.00
C69    C     0.47090   0.25700   0.80990   0.01267  Uiso   1.00
C70    C     0.45400   0.30500   0.79460   0.01267  Uiso   1.00
C71    C     0.53050   0.33750   0.77870   0.01267  Uiso   1.00
C72    C     0.63170   0.32090   0.77980   0.01267  Uiso   1.00
C73    C     0.64440   0.27340   0.79570   0.01267  Uiso   1.00
C74    C     0.51490   0.39210   0.76240   0.01267  Uiso   1.00
C75    C     0.57710   0.47770   0.73660   0.01267  Uiso   1.00
C76    C     0.59370   0.42790   0.75630   0.01267  Uiso   1.00
C77    C     0.41740   0.40570   0.74840   0.01267  Uiso   1.00
C78    C     0.40180   0.45250   0.73150   0.01267  Uiso   1.00
C79    C     0.24910   0.16210   0.75580   0.01267  Uiso   1.00
C80    C     0.14650   0.15640   0.76480   0.01267  Uiso   1.00
C81    C     0.09230   0.11020   0.76070   0.01267  Uiso   1.00
C82    C     0.14610   0.06770   0.74690   0.01267  Uiso   1.00
C83    C     0.24950   0.07600   0.73620   0.01267  Uiso   1.00
C84    C     0.82010   0.14000   0.78220   0.01267  Uiso   1.00
C85    C     0.91940   0.14380   0.76770   0.01267  Uiso   1.00
C86    C     0.97910   0.10290   0.77390   0.01267  Uiso   1.00
C87    C     0.93520   0.05930   0.79280   0.01267  Uiso   1.00
C88    C     0.83690   0.05580   0.80900   0.01267  Uiso   1.00
N1     N     0.14550   0.62860   0.42040   0.01267  Uiso   1.00
N2     N     0.79960   0.63650   0.03020   0.01267  Uiso   1.00
N3     N     0.77990   0.59630   0.69800   0.01267  Uiso   1.00
N4     N     0.56470   0.74110   0.68940   0.01267  Uiso   1.00
N5     N     0.29760   0.62190   0.76110   0.01267  Uiso   1.00
N6     N     0.48020   0.98960   0.77600   0.01267  Uiso   1.00
N7     N     0.14550   0.12860   0.07960   0.01267  Uiso   1.00
N8     N     0.79960   0.13650   0.46980   0.01267  Uiso   1.00
N9     N     0.77990   0.09630   0.80200   0.01267  Uiso   1.00
N10    N     0.56470   0.24110   0.81060   0.01267  Uiso   1.00
N11    N     0.29760   0.12190   0.73890   0.01267  Uiso   1.00
N12    N     0.48020   0.48960   0.72400   0.01267  Uiso   1.00
O1     O     0.98010   0.68120   0.31570   0.01267  Uiso   1.00
O2     O     0.99850   0.58050   0.30620   0.01267  Uiso   1.00
O3     O     0.14750   0.64710   0.27650   0.01267  Uiso   1.00
O4     O     0.80130   0.67180   0.26390   0.01267  Uiso   1.00
O5     O     0.95420   0.73860   0.23450   0.01267  Uiso   1.00
O6     O     0.82370   0.57060   0.25470   0.01267  Uiso   1.00
O7     O     0.97410   0.63750   0.22450   0.01267  Uiso   1.00
O8     O     0.12450   0.70440   0.19350   0.01267  Uiso   1.00
O9     O     0.99290   0.53810   0.21410   0.01267  Uiso   1.00
O10    O     0.14340   0.60500   0.18550   0.01267  Uiso   1.00
O11    O     0.79710   0.63000   0.17350   0.01267  Uiso   1.00
O12    O     0.95030   0.69550   0.14240   0.01267  Uiso   1.00
O13    O     0.96650   0.59480   0.13280   0.01267  Uiso   1.00
O14    O     0.61180   0.66610   0.77440   0.01267  Uiso   1.00
O15    O     0.59610   0.58370   0.78760   0.01267  Uiso   1.00
O16    O     0.37660   0.63570   0.66310   0.01267  Uiso   1.00
O17    O     0.49990   0.60430   0.61830   0.01267  Uiso   1.00
O18    O     0.68280   0.59150   0.68220   0.01267  Uiso   1.00
O19    O     0.58280   0.69550   0.67070   0.01267  Uiso   1.00
O20    O     0.39940   0.62810   0.76980   0.01267  Uiso   1.00
O21    O     0.46010   0.03320   0.79670   0.01267  Uiso   1.00
O22    O     0.98010   0.18120   0.18430   0.01267  Uiso   1.00
O23    O     0.99850   0.08050   0.19380   0.01267  Uiso   1.00
O24    O     0.14750   0.14710   0.22350   0.01267  Uiso   1.00
O25    O     0.80130   0.17180   0.23610   0.01267  Uiso   1.00
O26    O     0.95420   0.23860   0.26550   0.01267  Uiso   1.00
O27    O     0.82370   0.07060   0.24530   0.01267  Uiso   1.00
O28    O     0.97410   0.13750   0.27550   0.01267  Uiso   1.00
O29    O     0.12450   0.20440   0.30650   0.01267  Uiso   1.00
O30    O     0.99290   0.03810   0.28590   0.01267  Uiso   1.00
O31    O     0.14340   0.10500   0.31450   0.01267  Uiso   1.00
O32    O     0.79710   0.13000   0.32650   0.01267  Uiso   1.00
O33    O     0.95030   0.19550   0.35760   0.01267  Uiso   1.00
O34    O     0.96650   0.09480   0.36720   0.01267  Uiso   1.00
O35    O     0.61180   0.16610   0.72560   0.01267  Uiso   1.00
O36    O     0.59610   0.08370   0.71240   0.01267  Uiso   1.00
O37    O     0.37660   0.13570   0.83690   0.01267  Uiso   1.00
O38    O     0.49990   0.10430   0.88170   0.01267  Uiso   1.00
O39    O     0.68280   0.09150   0.81780   0.01267  Uiso   1.00
O40    O     0.58280   0.19550   0.82930   0.01267  Uiso   1.00
O41    O     0.39940   0.12810   0.73020   0.01267  Uiso   1.00
O42    O     0.46010   0.53320   0.70330   0.01267  Uiso   1.00
Tb3    Tb    0.47276   0.88343   0.20988   0.01267  Uiso   1.00
Tb4    Tb    0.47276   0.38343   0.29012   0.01267  Uiso   1.00
V13    V     0.13884   0.80448   0.70389   0.01267  Uiso   1.00
V14    V     0.12083   0.92886   0.69337   0.01267  Uiso   1.00
V15    V     0.93185   0.84844   0.65410   0.01267  Uiso   1.00
V16    V     0.91427   0.91840   0.74461   0.01267  Uiso   1.00
V17    V     0.93249   0.79457   0.75571   0.01267  Uiso   1.00
V18    V     0.12121   0.87497   0.79497   0.01267  Uiso   1.00
V19    V     0.13884   0.30448   0.79611   0.01267  Uiso   1.00
V20    V     0.12083   0.42886   0.80663   0.01267  Uiso   1.00
V21    V     0.93185   0.34844   0.84590   0.01267  Uiso   1.00
V22    V     0.91427   0.41840   0.75539   0.01267  Uiso   1.00
V23    V     0.93249   0.29457   0.74429   0.01267  Uiso   1.00
V24    V     0.12121   0.37497   0.70503   0.01267  Uiso   1.00
H85    H     0.02360   0.82710   0.89220   0.01267  Uiso   1.00
H86    H     0.93090   0.78870   0.87260   0.01267  Uiso   1.00
H87    H     0.77540   0.82330   0.83520   0.01267  Uiso   1.00
H88    H     0.76600   0.88380   0.82800   0.01267  Uiso   1.00
H89    H     0.90900   0.94640   0.86210   0.01267  Uiso   1.00
H90    H     0.01070   0.92330   0.88430   0.01267  Uiso   1.00
H91    H     0.85060   0.80010   0.93990   0.01267  Uiso   1.00
H92    H     0.75230   0.81600   0.90890   0.01267  Uiso   1.00
H93    H     0.11730   0.93670   0.57570   0.01267  Uiso   1.00
H94    H     0.02820   0.89570   0.55710   0.01267  Uiso   1.00
H95    H     0.04790   0.79860   0.56680   0.01267  Uiso   1.00
H96    H     0.14970   0.77980   0.59250   0.01267  Uiso   1.00
H97    H     0.28990   0.84350   0.61870   0.01267  Uiso   1.00
H98    H     0.27820   0.90400   0.61560   0.01267  Uiso   1.00
H99    H     0.25030   0.79480   0.51220   0.01267  Uiso   1.00
H100   H     0.33880   0.83500   0.53360   0.01267  Uiso   1.00
H101   H     0.24200   0.77580   0.43540   0.01267  Uiso   1.00
H102   H     0.29120   0.79540   0.34490   0.01267  Uiso   1.00
H103   H     0.40810   0.93660   0.36780   0.01267  Uiso   1.00
H104   H     0.36470   0.92470   0.46090   0.01267  Uiso   1.00
H105   H     0.54150   0.88980   0.02290   0.01267  Uiso   1.00
H106   H     0.62980   0.86680   0.94880   0.01267  Uiso   1.00
H107   H     0.84890   0.81040   0.03630   0.01267  Uiso   1.00
H108   H     0.76090   0.83320   0.11150   0.01267  Uiso   1.00
H109   H     0.58510   0.76560   0.17980   0.01267  Uiso   1.00
H110   H     0.61370   0.68410   0.20470   0.01267  Uiso   1.00
H111   H     0.31150   0.65690   0.23050   0.01267  Uiso   1.00
H112   H     0.28850   0.73830   0.20340   0.01267  Uiso   1.00
H113   H     0.36700   0.49750   0.26770   0.01267  Uiso   1.00
H114   H     0.33900   0.58020   0.23480   0.01267  Uiso   1.00
H115   H     0.63890   0.61910   0.24900   0.01267  Uiso   1.00
H116   H     0.66630   0.53930   0.27570   0.01267  Uiso   1.00
H117   H     0.71420   0.80580   0.23840   0.01267  Uiso   1.00
H118   H     0.88840   0.81430   0.22590   0.01267  Uiso   1.00
H119   H     0.88730   0.96570   0.25510   0.01267  Uiso   1.00
H120   H     0.71310   0.95240   0.27330   0.01267  Uiso   1.00
H121   H     0.22070   0.83160   0.22180   0.01267  Uiso   1.00
H122   H     0.05200   0.82510   0.24680   0.01267  Uiso   1.00
H123   H     0.02600   0.97010   0.20500   0.01267  Uiso   1.00
H124   H     0.19140   0.97460   0.17500   0.01267  Uiso   1.00
H125   H     0.86260   0.89910   0.93940   0.01267  Uiso   1.00
H126   H     0.17770   0.88610   0.50890   0.01267  Uiso   1.00
H127   H     0.02360   0.32710   0.60780   0.01267  Uiso   1.00
H128   H     0.93090   0.28870   0.62740   0.01267  Uiso   1.00
H129   H     0.77540   0.32330   0.66480   0.01267  Uiso   1.00
H130   H     0.76600   0.38380   0.67200   0.01267  Uiso   1.00
H131   H     0.90900   0.44640   0.63790   0.01267  Uiso   1.00
H132   H     0.01070   0.42330   0.61570   0.01267  Uiso   1.00
H133   H     0.85060   0.30010   0.56010   0.01267  Uiso   1.00
H134   H     0.75230   0.31600   0.59110   0.01267  Uiso   1.00
H135   H     0.11730   0.43670   0.92430   0.01267  Uiso   1.00
H136   H     0.02820   0.39570   0.94290   0.01267  Uiso   1.00
H137   H     0.04790   0.29860   0.93320   0.01267  Uiso   1.00
H138   H     0.14970   0.27980   0.90750   0.01267  Uiso   1.00
H139   H     0.28990   0.34350   0.88130   0.01267  Uiso   1.00
H140   H     0.27820   0.40400   0.88440   0.01267  Uiso   1.00
H141   H     0.25030   0.29480   0.98780   0.01267  Uiso   1.00
H142   H     0.33880   0.33500   0.96640   0.01267  Uiso   1.00
H143   H     0.24200   0.27580   0.06460   0.01267  Uiso   1.00
H144   H     0.29120   0.29540   0.15510   0.01267  Uiso   1.00
H145   H     0.40810   0.43660   0.13220   0.01267  Uiso   1.00
H146   H     0.36470   0.42470   0.03910   0.01267  Uiso   1.00
H147   H     0.54150   0.38980   0.47710   0.01267  Uiso   1.00
H148   H     0.62980   0.36680   0.55120   0.01267  Uiso   1.00
H149   H     0.84890   0.31040   0.46370   0.01267  Uiso   1.00
H150   H     0.76090   0.33320   0.38850   0.01267  Uiso   1.00
H151   H     0.58510   0.26560   0.32020   0.01267  Uiso   1.00
H152   H     0.61370   0.18410   0.29530   0.01267  Uiso   1.00
H153   H     0.31150   0.15690   0.26950   0.01267  Uiso   1.00
H154   H     0.28850   0.23830   0.29660   0.01267  Uiso   1.00
H155   H     0.36700   0.99750   0.23230   0.01267  Uiso   1.00
H156   H     0.33900   0.08020   0.26520   0.01267  Uiso   1.00
H157   H     0.63890   0.11910   0.25100   0.01267  Uiso   1.00
H158   H     0.66630   0.03930   0.22430   0.01267  Uiso   1.00
H159   H     0.71420   0.30580   0.26160   0.01267  Uiso   1.00
H160   H     0.88840   0.31430   0.27410   0.01267  Uiso   1.00
H161   H     0.88730   0.46570   0.24490   0.01267  Uiso   1.00
H162   H     0.71310   0.45240   0.22670   0.01267  Uiso   1.00
H163   H     0.22070   0.33160   0.27820   0.01267  Uiso   1.00
H164   H     0.05200   0.32510   0.25320   0.01267  Uiso   1.00
H165   H     0.02600   0.47010   0.29500   0.01267  Uiso   1.00
H166   H     0.19140   0.47460   0.32500   0.01267  Uiso   1.00
H167   H     0.86260   0.39910   0.56060   0.01267  Uiso   1.00
H168   H     0.17770   0.38610   0.99110   0.01267  Uiso   1.00
C89    C     0.97120   0.82130   0.86530   0.01267  Uiso   1.00
C90    C     0.81380   0.85610   0.82630   0.01267  Uiso   1.00
C91    C     0.89940   0.86690   0.86410   0.01267  Uiso   1.00
C92    C     0.95630   0.91860   0.85830   0.01267  Uiso   1.00
C93    C     0.80300   0.82740   0.93540   0.01267  Uiso   1.00
C94    C     0.08110   0.90310   0.58350   0.01267  Uiso   1.00
C95    C     0.09940   0.80630   0.59380   0.01267  Uiso   1.00
C96    C     0.15650   0.86140   0.58330   0.01267  Uiso   1.00
C97    C     0.24080   0.87050   0.62240   0.01267  Uiso   1.00
C98    C     0.27700   0.83120   0.51220   0.01267  Uiso   1.00
C99    C     0.30000   0.85010   0.45700   0.01267  Uiso   1.00
C100   C     0.27420   0.80770   0.42460   0.01267  Uiso   1.00
C101   C     0.30510   0.82070   0.37040   0.01267  Uiso   1.00
C102   C     0.34850   0.86350   0.35730   0.01267  Uiso   1.00
C103   C     0.37600   0.90610   0.38200   0.01267  Uiso   1.00
C104   C     0.34900   0.89750   0.43800   0.01267  Uiso   1.00
C105   C     0.38250   0.87020   0.30530   0.01267  Uiso   1.00
C106   C     0.58650   0.87610   0.12070   0.01267  Uiso   1.00
C107   C     0.64210   0.86390   0.07310   0.01267  Uiso   1.00
C108   C     0.60400   0.87360   0.02590   0.01267  Uiso   1.00
C109   C     0.65720   0.85970   0.98130   0.01267  Uiso   1.00
C110   C     0.74790   0.83620   0.98460   0.01267  Uiso   1.00
C111   C     0.78630   0.82650   0.03340   0.01267  Uiso   1.00
C112   C     0.73420   0.84010   0.07880   0.01267  Uiso   1.00
C113   C     0.52910   0.74300   0.19010   0.01267  Uiso   1.00
C114   C     0.54600   0.69500   0.20540   0.01267  Uiso   1.00
C115   C     0.46950   0.66250   0.22130   0.01267  Uiso   1.00
C116   C     0.36830   0.67910   0.22020   0.01267  Uiso   1.00
C117   C     0.35560   0.72660   0.20430   0.01267  Uiso   1.00
C118   C     0.48510   0.60790   0.23760   0.01267  Uiso   1.00
C119   C     0.42290   0.52230   0.26340   0.01267  Uiso   1.00
C120   C     0.40630   0.57210   0.24370   0.01267  Uiso   1.00
C121   C     0.58260   0.59430   0.25160   0.01267  Uiso   1.00
C122   C     0.59820   0.54750   0.26850   0.01267  Uiso   1.00
C123   C     0.75090   0.83790   0.24420   0.01267  Uiso   1.00
C124   C     0.85350   0.84360   0.23520   0.01267  Uiso   1.00
C125   C     0.90770   0.88980   0.23930   0.01267  Uiso   1.00
C126   C     0.85390   0.93230   0.25310   0.01267  Uiso   1.00
C127   C     0.75050   0.92400   0.26380   0.01267  Uiso   1.00
C128   C     0.17990   0.86000   0.21780   0.01267  Uiso   1.00
C129   C     0.08060   0.85620   0.23230   0.01267  Uiso   1.00
C130   C     0.02090   0.89710   0.22610   0.01267  Uiso   1.00
C131   C     0.06480   0.94070   0.20720   0.01267  Uiso   1.00
C132   C     0.16310   0.94420   0.19100   0.01267  Uiso   1.00
C133   C     0.97120   0.32130   0.63470   0.01267  Uiso   1.00
C134   C     0.81380   0.35610   0.67370   0.01267  Uiso   1.00
C135   C     0.89940   0.36690   0.63590   0.01267  Uiso   1.00
C136   C     0.95630   0.41860   0.64170   0.01267  Uiso   1.00
C137   C     0.80300   0.32740   0.56460   0.01267  Uiso   1.00
C138   C     0.08110   0.40310   0.91650   0.01267  Uiso   1.00
C139   C     0.09940   0.30630   0.90620   0.01267  Uiso   1.00
C140   C     0.15650   0.36140   0.91670   0.01267  Uiso   1.00
C141   C     0.24080   0.37050   0.87760   0.01267  Uiso   1.00
C142   C     0.27700   0.33120   0.98780   0.01267  Uiso   1.00
C143   C     0.30000   0.35010   0.04300   0.01267  Uiso   1.00
C144   C     0.27420   0.30770   0.07540   0.01267  Uiso   1.00
C145   C     0.30510   0.32070   0.12960   0.01267  Uiso   1.00
C146   C     0.34850   0.36350   0.14270   0.01267  Uiso   1.00
C147   C     0.37600   0.40610   0.11800   0.01267  Uiso   1.00
C148   C     0.34900   0.39750   0.06200   0.01267  Uiso   1.00
C149   C     0.38250   0.37020   0.19470   0.01267  Uiso   1.00
C150   C     0.58650   0.37610   0.37930   0.01267  Uiso   1.00
C151   C     0.64210   0.36390   0.42690   0.01267  Uiso   1.00
C152   C     0.60400   0.37360   0.47410   0.01267  Uiso   1.00
C153   C     0.65720   0.35970   0.51870   0.01267  Uiso   1.00
C154   C     0.74790   0.33620   0.51540   0.01267  Uiso   1.00
C155   C     0.78630   0.32650   0.46660   0.01267  Uiso   1.00
C156   C     0.73420   0.34010   0.42120   0.01267  Uiso   1.00
C157   C     0.52910   0.24300   0.30990   0.01267  Uiso   1.00
C158   C     0.54600   0.19500   0.29460   0.01267  Uiso   1.00
C159   C     0.46950   0.16250   0.27870   0.01267  Uiso   1.00
C160   C     0.36830   0.17910   0.27980   0.01267  Uiso   1.00
C161   C     0.35560   0.22660   0.29570   0.01267  Uiso   1.00
C162   C     0.48510   0.10790   0.26240   0.01267  Uiso   1.00
C163   C     0.42290   0.02230   0.23660   0.01267  Uiso   1.00
C164   C     0.40630   0.07210   0.25630   0.01267  Uiso   1.00
C165   C     0.58260   0.09430   0.24840   0.01267  Uiso   1.00
C166   C     0.59820   0.04750   0.23150   0.01267  Uiso   1.00
C167   C     0.75090   0.33790   0.25580   0.01267  Uiso   1.00
C168   C     0.85350   0.34360   0.26480   0.01267  Uiso   1.00
C169   C     0.90770   0.38980   0.26070   0.01267  Uiso   1.00
C170   C     0.85390   0.43230   0.24690   0.01267  Uiso   1.00
C171   C     0.75050   0.42400   0.23620   0.01267  Uiso   1.00
C172   C     0.17990   0.36000   0.28220   0.01267  Uiso   1.00
C173   C     0.08060   0.35620   0.26770   0.01267  Uiso   1.00
C174   C     0.02090   0.39710   0.27390   0.01267  Uiso   1.00
C175   C     0.06480   0.44070   0.29280   0.01267  Uiso   1.00
C176   C     0.16310   0.44420   0.30900   0.01267  Uiso   1.00
N13    N     0.85450   0.87140   0.92040   0.01267  Uiso   1.00
N14    N     0.20040   0.86350   0.53020   0.01267  Uiso   1.00
N15    N     0.22010   0.90370   0.19800   0.01267  Uiso   1.00
N16    N     0.43530   0.75890   0.18940   0.01267  Uiso   1.00
N17    N     0.70240   0.87810   0.26110   0.01267  Uiso   1.00
N18    N     0.51980   0.51040   0.27600   0.01267  Uiso   1.00
N19    N     0.85450   0.37140   0.57960   0.01267  Uiso   1.00
N20    N     0.20040   0.36350   0.96980   0.01267  Uiso   1.00
N21    N     0.22010   0.40370   0.30200   0.01267  Uiso   1.00
N22    N     0.43530   0.25890   0.31060   0.01267  Uiso   1.00
N23    N     0.70240   0.37810   0.23890   0.01267  Uiso   1.00
N24    N     0.51980   0.01040   0.22400   0.01267  Uiso   1.00
O43    O     0.01990   0.81880   0.81570   0.01267  Uiso   1.00
O44    O     0.00150   0.91950   0.80620   0.01267  Uiso   1.00
O45    O     0.85250   0.85290   0.77650   0.01267  Uiso   1.00
O46    O     0.19870   0.82820   0.76390   0.01267  Uiso   1.00
O47    O     0.04580   0.76140   0.73450   0.01267  Uiso   1.00
O48    O     0.17630   0.92940   0.75470   0.01267  Uiso   1.00
O49    O     0.02590   0.86250   0.72450   0.01267  Uiso   1.00
O50    O     0.87550   0.79560   0.69350   0.01267  Uiso   1.00
O51    O     0.00710   0.96190   0.71410   0.01267  Uiso   1.00
O52    O     0.85660   0.89500   0.68550   0.01267  Uiso   1.00
O53    O     0.20290   0.87000   0.67350   0.01267  Uiso   1.00
O54    O     0.04970   0.80450   0.64240   0.01267  Uiso   1.00
O55    O     0.03350   0.90520   0.63280   0.01267  Uiso   1.00
O56    O     0.38820   0.83390   0.27440   0.01267  Uiso   1.00
O57    O     0.40390   0.91630   0.28760   0.01267  Uiso   1.00
O58    O     0.62340   0.86430   0.16310   0.01267  Uiso   1.00
O59    O     0.50010   0.89570   0.11830   0.01267  Uiso   1.00
O60    O     0.31720   0.90850   0.18220   0.01267  Uiso   1.00
O61    O     0.41720   0.80450   0.17070   0.01267  Uiso   1.00
O62    O     0.60060   0.87190   0.26980   0.01267  Uiso   1.00
O63    O     0.53990   0.46680   0.29670   0.01267  Uiso   1.00
O64    O     0.01990   0.31880   0.68430   0.01267  Uiso   1.00
O65    O     0.00150   0.41950   0.69380   0.01267  Uiso   1.00
O66    O     0.85250   0.35290   0.72350   0.01267  Uiso   1.00
O67    O     0.19870   0.32820   0.73610   0.01267  Uiso   1.00
O68    O     0.04580   0.26140   0.76550   0.01267  Uiso   1.00
O69    O     0.17630   0.42940   0.74530   0.01267  Uiso   1.00
O70    O     0.02590   0.36250   0.77550   0.01267  Uiso   1.00
O71    O     0.87550   0.29560   0.80650   0.01267  Uiso   1.00
O72    O     0.00710   0.46190   0.78590   0.01267  Uiso   1.00
O73    O     0.85660   0.39500   0.81450   0.01267  Uiso   1.00
O74    O     0.20290   0.37000   0.82650   0.01267  Uiso   1.00
O75    O     0.04970   0.30450   0.85760   0.01267  Uiso   1.00
O76    O     0.03350   0.40520   0.86720   0.01267  Uiso   1.00
O77    O     0.38820   0.33390   0.22560   0.01267  Uiso   1.00
O78    O     0.40390   0.41630   0.21240   0.01267  Uiso   1.00
O79    O     0.62340   0.36430   0.33690   0.01267  Uiso   1.00
O80    O     0.50010   0.39570   0.38170   0.01267  Uiso   1.00
O81    O     0.31720   0.40850   0.31780   0.01267  Uiso   1.00
O82    O     0.41720   0.30450   0.32930   0.01267  Uiso   1.00
O83    O     0.60060   0.37190   0.23020   0.01267  Uiso   1.00
O84    O     0.53990   0.96680   0.20330   0.01267  Uiso   1.00
