data_LOFVUY01_clean
_audit_creation_date              2014-07-02
_audit_creation_method            'Materials Studio'
_symmetry_space_group_name_H-M    'P1'
_symmetry_Int_Tables_number       1
_symmetry_cell_setting            triclinic
loop_
_symmetry_equiv_pos_as_xyz
  x,y,z
_cell_length_a                    13.1020
_cell_length_b                    26.1040
_cell_length_c                    26.2790
_cell_angle_alpha                 90.0000
_cell_angle_beta                  90.0000
_cell_angle_gamma                 93.9230
loop_
_atom_site_label
_atom_site_type_symbol
_atom_site_fract_x
_atom_site_fract_y
_atom_site_fract_z
_atom_site_U_iso_or_equiv
_atom_site_adp_type
_atom_site_occupancy
Tb1    Tb    0.52725   0.61657   0.70990   0.01267  Uiso   1.00
Tb2    Tb    0.52725   0.11657   0.79010   0.01267  Uiso   1.00
V1     V     0.86110   0.69547   0.20393   0.01267  Uiso   1.00
V2     V     0.87890   0.57119   0.19339   0.01267  Uiso   1.00
V3     V     0.06820   0.65140   0.15427   0.01267  Uiso   1.00
V4     V     0.08570   0.58174   0.24451   0.01267  Uiso   1.00
V5     V     0.06740   0.70540   0.25567   0.01267  Uiso   1.00
V6     V     0.87890   0.62510   0.29492   0.01267  Uiso   1.00
V7     V     0.86110   0.19547   0.29607   0.01267  Uiso   1.00
V8     V     0.87890   0.07119   0.30661   0.01267  Uiso   1.00
V9     V     0.06820   0.15140   0.34573   0.01267  Uiso   1.00
V10    V     0.08570   0.08174   0.25549   0.01267  Uiso   1.00
V11    V     0.06740   0.20540   0.24433   0.01267  Uiso   1.00
V12    V     0.87890   0.12510   0.20508   0.01267  Uiso   1.00
H1     H     0.97720   0.67070   0.39010   0.01267  Uiso   1.00
H2     H     0.06810   0.71030   0.37110   0.01267  Uiso   1.00
H3     H     0.22610   0.67620   0.33530   0.01267  Uiso   1.00
H4     H     0.23380   0.61560   0.32780   0.01267  Uiso   1.00
H5     H     0.09250   0.55450   0.36140   0.01267  Uiso   1.00
H6     H     0.99180   0.57810   0.38420   0.01267  Uiso   1.00
H7     H     0.14140   0.69370   0.44030   0.01267  Uiso   1.00
H8     H     0.23890   0.68070   0.40770   0.01267  Uiso   1.00
H9     H     0.88260   0.56260   0.07700   0.01267  Uiso   1.00
H10    H     0.97130   0.60360   0.05820   0.01267  Uiso   1.00
H11    H     0.94910   0.69980   0.06710   0.01267  Uiso   1.00
H12    H     0.84700   0.71800   0.09270   0.01267  Uiso   1.00
H13    H     0.71230   0.65740   0.11840   0.01267  Uiso   1.00
H14    H     0.72090   0.59670   0.11540   0.01267  Uiso   1.00
H15    H     0.76390   0.70400   0.01480   0.01267  Uiso   1.00
H16    H     0.67130   0.66530   0.03420   0.01267  Uiso   1.00
H17    H     0.76300   0.72330   0.93170   0.01267  Uiso   1.00
H18    H     0.71760   0.70940   0.84540   0.01267  Uiso   1.00
H19    H     0.59380   0.56160   0.87750   0.01267  Uiso   1.00
H20    H     0.64540   0.58350   0.96040   0.01267  Uiso   1.00
H21    H     0.46100   0.61090   0.52190   0.01267  Uiso   1.00
H22    H     0.37250   0.63440   0.44640   0.01267  Uiso   1.00
H23    H     0.14940   0.68850   0.53480   0.01267  Uiso   1.00
H24    H     0.23480   0.66650   0.61070   0.01267  Uiso   1.00
H25    H     0.41300   0.23430   0.82030   0.01267  Uiso   1.00
H26    H     0.38570   0.31580   0.79390   0.01267  Uiso   1.00
H27    H     0.68770   0.34330   0.76990   0.01267  Uiso   1.00
H28    H     0.71080   0.26080   0.79470   0.01267  Uiso   1.00
H29    H     0.63350   0.50230   0.73120   0.01267  Uiso   1.00
H30    H     0.66010   0.41910   0.76590   0.01267  Uiso   1.00
H31    H     0.36120   0.38070   0.75030   0.01267  Uiso   1.00
H32    H     0.33370   0.45950   0.72250   0.01267  Uiso   1.00
H33    H     0.28600   0.69490   0.73730   0.01267  Uiso   1.00
H34    H     0.11180   0.68540   0.72590   0.01267  Uiso   1.00
H35    H     0.11370   0.53520   0.75910   0.01267  Uiso   1.00
H36    H     0.28610   0.54800   0.77270   0.01267  Uiso   1.00
H37    H     0.77720   0.66730   0.72150   0.01267  Uiso   1.00
H38    H     0.94860   0.67510   0.74770   0.01267  Uiso   1.00
H39    H     0.97620   0.53170   0.70440   0.01267  Uiso   1.00
H40    H     0.80910   0.52470   0.67590   0.01267  Uiso   1.00
H41    H     0.13710   0.60010   0.43790   0.01267  Uiso   1.00
H42    H     0.82120   0.61310   0.00900   0.01267  Uiso   1.00
H43    H     0.97720   0.17070   0.10990   0.01267  Uiso   1.00
H44    H     0.06810   0.21030   0.12890   0.01267  Uiso   1.00
H45    H     0.22610   0.17620   0.16470   0.01267  Uiso   1.00
H46    H     0.23380   0.11560   0.17220   0.01267  Uiso   1.00
H47    H     0.09250   0.05450   0.13860   0.01267  Uiso   1.00
H48    H     0.99180   0.07810   0.11580   0.01267  Uiso   1.00
H49    H     0.14140   0.19370   0.05970   0.01267  Uiso   1.00
H50    H     0.23890   0.18070   0.09230   0.01267  Uiso   1.00
H51    H     0.88260   0.06260   0.42300   0.01267  Uiso   1.00
H52    H     0.97130   0.10360   0.44180   0.01267  Uiso   1.00
H53    H     0.94910   0.19980   0.43290   0.01267  Uiso   1.00
H54    H     0.84700   0.21800   0.40730   0.01267  Uiso   1.00
H55    H     0.71230   0.15740   0.38160   0.01267  Uiso   1.00
H56    H     0.72090   0.09670   0.38460   0.01267  Uiso   1.00
H57    H     0.76390   0.20400   0.48520   0.01267  Uiso   1.00
H58    H     0.67130   0.16530   0.46580   0.01267  Uiso   1.00
H59    H     0.76300   0.22330   0.56830   0.01267  Uiso   1.00
H60    H     0.71760   0.20940   0.65460   0.01267  Uiso   1.00
H61    H     0.59380   0.06160   0.62250   0.01267  Uiso   1.00
H62    H     0.64540   0.08350   0.53960   0.01267  Uiso   1.00
H63    H     0.46100   0.11090   0.97810   0.01267  Uiso   1.00
H64    H     0.37250   0.13440   0.05360   0.01267  Uiso   1.00
H65    H     0.14940   0.18850   0.96520   0.01267  Uiso   1.00
H66    H     0.23480   0.16650   0.88930   0.01267  Uiso   1.00
H67    H     0.41300   0.73430   0.67970   0.01267  Uiso   1.00
H68    H     0.38570   0.81580   0.70610   0.01267  Uiso   1.00
H69    H     0.68770   0.84330   0.73010   0.01267  Uiso   1.00
H70    H     0.71080   0.76080   0.70530   0.01267  Uiso   1.00
H71    H     0.63350   0.00230   0.76880   0.01267  Uiso   1.00
H72    H     0.66010   0.91910   0.73410   0.01267  Uiso   1.00
H73    H     0.36120   0.88070   0.74970   0.01267  Uiso   1.00
H74    H     0.33370   0.95950   0.77750   0.01267  Uiso   1.00
H75    H     0.28600   0.19490   0.76270   0.01267  Uiso   1.00
H76    H     0.11180   0.18540   0.77410   0.01267  Uiso   1.00
H77    H     0.11370   0.03520   0.74090   0.01267  Uiso   1.00
H78    H     0.28610   0.04800   0.72730   0.01267  Uiso   1.00
H79    H     0.77720   0.16730   0.77850   0.01267  Uiso   1.00
H80    H     0.94860   0.17510   0.75230   0.01267  Uiso   1.00
H81    H     0.97620   0.03170   0.79560   0.01267  Uiso   1.00
H82    H     0.80910   0.02470   0.82410   0.01267  Uiso   1.00
H83    H     0.13710   0.10010   0.06210   0.01267  Uiso   1.00
H84    H     0.82120   0.11310   0.49100   0.01267  Uiso   1.00
C1     C     0.02900   0.67740   0.36320   0.01267  Uiso   1.00
C2     C     0.18680   0.64370   0.32620   0.01267  Uiso   1.00
C3     C     0.10300   0.63360   0.36270   0.01267  Uiso   1.00
C4     C     0.04550   0.58240   0.35770   0.01267  Uiso   1.00
C5     C     0.19200   0.66770   0.43490   0.01267  Uiso   1.00
C6     C     0.91900   0.59630   0.08470   0.01267  Uiso   1.00
C7     C     0.89830   0.69190   0.09430   0.01267  Uiso   1.00
C8     C     0.84300   0.63750   0.08400   0.01267  Uiso   1.00
C9     C     0.75990   0.62980   0.12230   0.01267  Uiso   1.00
C10    C     0.73400   0.66800   0.01300   0.01267  Uiso   1.00
C11    C     0.70900   0.65300   0.95900   0.01267  Uiso   1.00
C12    C     0.73000   0.69100   0.92180   0.01267  Uiso   1.00
C13    C     0.70300   0.68350   0.87020   0.01267  Uiso   1.00
C14    C     0.65400   0.63640   0.85680   0.01267  Uiso   1.00
C15    C     0.62700   0.59400   0.88700   0.01267  Uiso   1.00
C16    C     0.66000   0.61000   0.93600   0.01267  Uiso   1.00
C17    C     0.61760   0.63060   0.80480   0.01267  Uiso   1.00
C18    C     0.41300   0.62340   0.62080   0.01267  Uiso   1.00
C19    C     0.35900   0.63570   0.57310   0.01267  Uiso   1.00
C20    C     0.39800   0.62670   0.52480   0.01267  Uiso   1.00
C21    C     0.34500   0.64080   0.47910   0.01267  Uiso   1.00
C22    C     0.25500   0.66370   0.48440   0.01267  Uiso   1.00
C23    C     0.21300   0.67300   0.53270   0.01267  Uiso   1.00
C24    C     0.26300   0.65980   0.57830   0.01267  Uiso   1.00
C25    C     0.46910   0.25680   0.80980   0.01267  Uiso   1.00
C26    C     0.45340   0.30500   0.79400   0.01267  Uiso   1.00
C27    C     0.53010   0.33800   0.77860   0.01267  Uiso   1.00
C28    C     0.63080   0.32100   0.77970   0.01267  Uiso   1.00
C29    C     0.64400   0.27270   0.79500   0.01267  Uiso   1.00
C30    C     0.51580   0.39220   0.76220   0.01267  Uiso   1.00
C31    C     0.57740   0.47780   0.73610   0.01267  Uiso   1.00
C32    C     0.59310   0.42720   0.75650   0.01267  Uiso   1.00
C33    C     0.41730   0.40560   0.74770   0.01267  Uiso   1.00
C34    C     0.40160   0.45170   0.73060   0.01267  Uiso   1.00
C35    C     0.24940   0.66290   0.74370   0.01267  Uiso   1.00
C36    C     0.14720   0.65630   0.73520   0.01267  Uiso   1.00
C37    C     0.09210   0.61010   0.73940   0.01267  Uiso   1.00
C38    C     0.14710   0.56840   0.75500   0.01267  Uiso   1.00
C39    C     0.24820   0.57650   0.76410   0.01267  Uiso   1.00
C40    C     0.81880   0.63920   0.71750   0.01267  Uiso   1.00
C41    C     0.92040   0.64400   0.73290   0.01267  Uiso   1.00
C42    C     0.97950   0.60270   0.72620   0.01267  Uiso   1.00
C43    C     0.93640   0.56070   0.70730   0.01267  Uiso   1.00
C44    C     0.83670   0.55570   0.69110   0.01267  Uiso   1.00
C45    C     0.02900   0.17740   0.13680   0.01267  Uiso   1.00
C46    C     0.18680   0.14370   0.17380   0.01267  Uiso   1.00
C47    C     0.10300   0.13360   0.13730   0.01267  Uiso   1.00
C48    C     0.04550   0.08240   0.14230   0.01267  Uiso   1.00
C49    C     0.19200   0.16770   0.06510   0.01267  Uiso   1.00
C50    C     0.91900   0.09630   0.41530   0.01267  Uiso   1.00
C51    C     0.89830   0.19190   0.40570   0.01267  Uiso   1.00
C52    C     0.84300   0.13750   0.41600   0.01267  Uiso   1.00
C53    C     0.75990   0.12980   0.37770   0.01267  Uiso   1.00
C54    C     0.73400   0.16800   0.48700   0.01267  Uiso   1.00
C55    C     0.70900   0.15300   0.54100   0.01267  Uiso   1.00
C56    C     0.73000   0.19100   0.57820   0.01267  Uiso   1.00
C57    C     0.70300   0.18350   0.62980   0.01267  Uiso   1.00
C58    C     0.65400   0.13640   0.64320   0.01267  Uiso   1.00
C59    C     0.62700   0.09400   0.61300   0.01267  Uiso   1.00
C60    C     0.66000   0.11000   0.56400   0.01267  Uiso   1.00
C61    C     0.61760   0.13060   0.69520   0.01267  Uiso   1.00
C62    C     0.41300   0.12340   0.87920   0.01267  Uiso   1.00
C63    C     0.35900   0.13570   0.92690   0.01267  Uiso   1.00
C64    C     0.39800   0.12670   0.97520   0.01267  Uiso   1.00
C65    C     0.34500   0.14080   0.02090   0.01267  Uiso   1.00
C66    C     0.25500   0.16370   0.01560   0.01267  Uiso   1.00
C67    C     0.21300   0.17300   0.96730   0.01267  Uiso   1.00
C68    C     0.26300   0.15980   0.92170   0.01267  Uiso   1.00
C69    C     0.46910   0.75680   0.69020   0.01267  Uiso   1.00
C70    C     0.45340   0.80500   0.70600   0.01267  Uiso   1.00
C71    C     0.53010   0.83800   0.72140   0.01267  Uiso   1.00
C72    C     0.63080   0.82100   0.72030   0.01267  Uiso   1.00
C73    C     0.64400   0.77270   0.70500   0.01267  Uiso   1.00
C74    C     0.51580   0.89220   0.73780   0.01267  Uiso   1.00
C75    C     0.57740   0.97780   0.76390   0.01267  Uiso   1.00
C76    C     0.59310   0.92720   0.74350   0.01267  Uiso   1.00
C77    C     0.41730   0.90560   0.75230   0.01267  Uiso   1.00
C78    C     0.40160   0.95170   0.76940   0.01267  Uiso   1.00
C79    C     0.24940   0.16290   0.75630   0.01267  Uiso   1.00
C80    C     0.14720   0.15630   0.76480   0.01267  Uiso   1.00
C81    C     0.09210   0.11010   0.76060   0.01267  Uiso   1.00
C82    C     0.14710   0.06840   0.74500   0.01267  Uiso   1.00
C83    C     0.24820   0.07650   0.73590   0.01267  Uiso   1.00
C84    C     0.81880   0.13920   0.78250   0.01267  Uiso   1.00
C85    C     0.92040   0.14400   0.76710   0.01267  Uiso   1.00
C86    C     0.97950   0.10270   0.77380   0.01267  Uiso   1.00
C87    C     0.93640   0.06070   0.79270   0.01267  Uiso   1.00
C88    C     0.83670   0.05570   0.80890   0.01267  Uiso   1.00
N1     N     0.14600   0.62830   0.41960   0.01267  Uiso   1.00
N2     N     0.80000   0.63640   0.03010   0.01267  Uiso   1.00
N3     N     0.77930   0.59580   0.69730   0.01267  Uiso   1.00
N4     N     0.56550   0.24090   0.81060   0.01267  Uiso   1.00
N5     N     0.29700   0.62260   0.76140   0.01267  Uiso   1.00
N6     N     0.48020   0.48930   0.72410   0.01267  Uiso   1.00
N7     N     0.14600   0.12830   0.08040   0.01267  Uiso   1.00
N8     N     0.80000   0.13640   0.46990   0.01267  Uiso   1.00
N9     N     0.77930   0.09580   0.80270   0.01267  Uiso   1.00
N10    N     0.56550   0.74090   0.68940   0.01267  Uiso   1.00
N11    N     0.29700   0.12260   0.73860   0.01267  Uiso   1.00
N12    N     0.48020   0.98930   0.77590   0.01267  Uiso   1.00
O1     O     0.98020   0.68130   0.31580   0.01267  Uiso   1.00
O2     O     0.99890   0.58140   0.30610   0.01267  Uiso   1.00
O3     O     0.14760   0.64730   0.27670   0.01267  Uiso   1.00
O4     O     0.80170   0.67180   0.26360   0.01267  Uiso   1.00
O5     O     0.95420   0.73870   0.23470   0.01267  Uiso   1.00
O6     O     0.82360   0.57080   0.25460   0.01267  Uiso   1.00
O7     O     0.97410   0.63740   0.22450   0.01267  Uiso   1.00
O8     O     0.12370   0.70490   0.19380   0.01267  Uiso   1.00
O9     O     0.99270   0.53840   0.21350   0.01267  Uiso   1.00
O10    O     0.14220   0.60440   0.18590   0.01267  Uiso   1.00
O11    O     0.79680   0.62980   0.17390   0.01267  Uiso   1.00
O12    O     0.94920   0.69580   0.14270   0.01267  Uiso   1.00
O13    O     0.96550   0.59440   0.13260   0.01267  Uiso   1.00
O14    O     0.61090   0.66660   0.77440   0.01267  Uiso   1.00
O15    O     0.59600   0.58340   0.78690   0.01267  Uiso   1.00
O16    O     0.37700   0.63570   0.66380   0.01267  Uiso   1.00
O17    O     0.49950   0.60470   0.61840   0.01267  Uiso   1.00
O18    O     0.68250   0.59110   0.68190   0.01267  Uiso   1.00
O19    O     0.58230   0.19510   0.82930   0.01267  Uiso   1.00
O20    O     0.39920   0.62860   0.77050   0.01267  Uiso   1.00
O21    O     0.46110   0.53300   0.70330   0.01267  Uiso   1.00
O22    O     0.98020   0.18130   0.18420   0.01267  Uiso   1.00
O23    O     0.99890   0.08140   0.19390   0.01267  Uiso   1.00
O24    O     0.14760   0.14730   0.22330   0.01267  Uiso   1.00
O25    O     0.80170   0.17180   0.23640   0.01267  Uiso   1.00
O26    O     0.95420   0.23870   0.26530   0.01267  Uiso   1.00
O27    O     0.82360   0.07080   0.24540   0.01267  Uiso   1.00
O28    O     0.97410   0.13740   0.27550   0.01267  Uiso   1.00
O29    O     0.12370   0.20490   0.30620   0.01267  Uiso   1.00
O30    O     0.99270   0.03840   0.28650   0.01267  Uiso   1.00
O31    O     0.14220   0.10440   0.31410   0.01267  Uiso   1.00
O32    O     0.79680   0.12980   0.32610   0.01267  Uiso   1.00
O33    O     0.94920   0.19580   0.35730   0.01267  Uiso   1.00
O34    O     0.96550   0.09440   0.36740   0.01267  Uiso   1.00
O35    O     0.61090   0.16660   0.72560   0.01267  Uiso   1.00
O36    O     0.59600   0.08340   0.71310   0.01267  Uiso   1.00
O37    O     0.37700   0.13570   0.83620   0.01267  Uiso   1.00
O38    O     0.49950   0.10470   0.88160   0.01267  Uiso   1.00
O39    O     0.68250   0.09110   0.81810   0.01267  Uiso   1.00
O40    O     0.58230   0.69510   0.67070   0.01267  Uiso   1.00
O41    O     0.39920   0.12860   0.72950   0.01267  Uiso   1.00
O42    O     0.46110   0.03300   0.79670   0.01267  Uiso   1.00
Tb3    Tb    0.47275   0.88343   0.20990   0.01267  Uiso   1.00
Tb4    Tb    0.47275   0.38343   0.29010   0.01267  Uiso   1.00
V13    V     0.13890   0.80453   0.70393   0.01267  Uiso   1.00
V14    V     0.12110   0.92881   0.69339   0.01267  Uiso   1.00
V15    V     0.93180   0.84860   0.65427   0.01267  Uiso   1.00
V16    V     0.91430   0.91826   0.74451   0.01267  Uiso   1.00
V17    V     0.93260   0.79460   0.75567   0.01267  Uiso   1.00
V18    V     0.12110   0.87490   0.79492   0.01267  Uiso   1.00
V19    V     0.13890   0.30453   0.79607   0.01267  Uiso   1.00
V20    V     0.12110   0.42881   0.80661   0.01267  Uiso   1.00
V21    V     0.93180   0.34860   0.84573   0.01267  Uiso   1.00
V22    V     0.91430   0.41826   0.75549   0.01267  Uiso   1.00
V23    V     0.93260   0.29460   0.74433   0.01267  Uiso   1.00
V24    V     0.12110   0.37490   0.70508   0.01267  Uiso   1.00
H85    H     0.02280   0.82930   0.89010   0.01267  Uiso   1.00
H86    H     0.93190   0.78970   0.87110   0.01267  Uiso   1.00
H87    H     0.77390   0.82380   0.83530   0.01267  Uiso   1.00
H88    H     0.76620   0.88440   0.82780   0.01267  Uiso   1.00
H89    H     0.90750   0.94550   0.86140   0.01267  Uiso   1.00
H90    H     0.00820   0.92190   0.88420   0.01267  Uiso   1.00
H91    H     0.85860   0.80630   0.94030   0.01267  Uiso   1.00
H92    H     0.76110   0.81930   0.90770   0.01267  Uiso   1.00
H93    H     0.11740   0.93740   0.57700   0.01267  Uiso   1.00
H94    H     0.02870   0.89640   0.55820   0.01267  Uiso   1.00
H95    H     0.05090   0.80020   0.56710   0.01267  Uiso   1.00
H96    H     0.15300   0.78200   0.59270   0.01267  Uiso   1.00
H97    H     0.28770   0.84260   0.61840   0.01267  Uiso   1.00
H98    H     0.27910   0.90330   0.61540   0.01267  Uiso   1.00
H99    H     0.23610   0.79600   0.51480   0.01267  Uiso   1.00
H100   H     0.32870   0.83470   0.53420   0.01267  Uiso   1.00
H101   H     0.23700   0.77670   0.43170   0.01267  Uiso   1.00
H102   H     0.28240   0.79060   0.34540   0.01267  Uiso   1.00
H103   H     0.40620   0.93840   0.37750   0.01267  Uiso   1.00
H104   H     0.35460   0.91650   0.46040   0.01267  Uiso   1.00
H105   H     0.53900   0.88910   0.02190   0.01267  Uiso   1.00
H106   H     0.62750   0.86560   0.94640   0.01267  Uiso   1.00
H107   H     0.85060   0.81150   0.03480   0.01267  Uiso   1.00
H108   H     0.76520   0.83350   0.11070   0.01267  Uiso   1.00
H109   H     0.58700   0.26570   0.32030   0.01267  Uiso   1.00
H110   H     0.61430   0.18420   0.29390   0.01267  Uiso   1.00
H111   H     0.31230   0.15670   0.26990   0.01267  Uiso   1.00
H112   H     0.28920   0.23920   0.29470   0.01267  Uiso   1.00
H113   H     0.36650   0.99770   0.23120   0.01267  Uiso   1.00
H114   H     0.33990   0.08090   0.26590   0.01267  Uiso   1.00
H115   H     0.63880   0.11930   0.25030   0.01267  Uiso   1.00
H116   H     0.66630   0.04050   0.22250   0.01267  Uiso   1.00
H117   H     0.71400   0.80510   0.23730   0.01267  Uiso   1.00
H118   H     0.88820   0.81460   0.22590   0.01267  Uiso   1.00
H119   H     0.88630   0.96480   0.25910   0.01267  Uiso   1.00
H120   H     0.71390   0.95200   0.27270   0.01267  Uiso   1.00
H121   H     0.22280   0.83270   0.22150   0.01267  Uiso   1.00
H122   H     0.05140   0.82490   0.24770   0.01267  Uiso   1.00
H123   H     0.02380   0.96830   0.20440   0.01267  Uiso   1.00
H124   H     0.19090   0.97530   0.17590   0.01267  Uiso   1.00
H125   H     0.86290   0.89990   0.93790   0.01267  Uiso   1.00
H126   H     0.17880   0.88690   0.50900   0.01267  Uiso   1.00
H127   H     0.02280   0.32930   0.60990   0.01267  Uiso   1.00
H128   H     0.93190   0.28970   0.62890   0.01267  Uiso   1.00
H129   H     0.77390   0.32380   0.66470   0.01267  Uiso   1.00
H130   H     0.76620   0.38440   0.67220   0.01267  Uiso   1.00
H131   H     0.90750   0.44550   0.63860   0.01267  Uiso   1.00
H132   H     0.00820   0.42190   0.61580   0.01267  Uiso   1.00
H133   H     0.85860   0.30630   0.55970   0.01267  Uiso   1.00
H134   H     0.76110   0.31930   0.59230   0.01267  Uiso   1.00
H135   H     0.11740   0.43740   0.92300   0.01267  Uiso   1.00
H136   H     0.02870   0.39640   0.94180   0.01267  Uiso   1.00
H137   H     0.05090   0.30020   0.93290   0.01267  Uiso   1.00
H138   H     0.15300   0.28200   0.90730   0.01267  Uiso   1.00
H139   H     0.28770   0.34260   0.88160   0.01267  Uiso   1.00
H140   H     0.27910   0.40330   0.88460   0.01267  Uiso   1.00
H141   H     0.23610   0.29600   0.98520   0.01267  Uiso   1.00
H142   H     0.32870   0.33470   0.96580   0.01267  Uiso   1.00
H143   H     0.23700   0.27670   0.06830   0.01267  Uiso   1.00
H144   H     0.28240   0.29060   0.15460   0.01267  Uiso   1.00
H145   H     0.40620   0.43840   0.12250   0.01267  Uiso   1.00
H146   H     0.35460   0.41650   0.03960   0.01267  Uiso   1.00
H147   H     0.53900   0.38910   0.47810   0.01267  Uiso   1.00
H148   H     0.62750   0.36560   0.55360   0.01267  Uiso   1.00
H149   H     0.85060   0.31150   0.46520   0.01267  Uiso   1.00
H150   H     0.76520   0.33350   0.38930   0.01267  Uiso   1.00
H151   H     0.58700   0.76570   0.17970   0.01267  Uiso   1.00
H152   H     0.61430   0.68420   0.20610   0.01267  Uiso   1.00
H153   H     0.31230   0.65670   0.23010   0.01267  Uiso   1.00
H154   H     0.28920   0.73920   0.20530   0.01267  Uiso   1.00
H155   H     0.36650   0.49770   0.26880   0.01267  Uiso   1.00
H156   H     0.33990   0.58090   0.23410   0.01267  Uiso   1.00
H157   H     0.63880   0.61930   0.24970   0.01267  Uiso   1.00
H158   H     0.66630   0.54050   0.27750   0.01267  Uiso   1.00
H159   H     0.71400   0.30510   0.26270   0.01267  Uiso   1.00
H160   H     0.88820   0.31460   0.27410   0.01267  Uiso   1.00
H161   H     0.88630   0.46480   0.24090   0.01267  Uiso   1.00
H162   H     0.71390   0.45200   0.22730   0.01267  Uiso   1.00
H163   H     0.22280   0.33270   0.27850   0.01267  Uiso   1.00
H164   H     0.05140   0.32490   0.25230   0.01267  Uiso   1.00
H165   H     0.02380   0.46830   0.29560   0.01267  Uiso   1.00
H166   H     0.19090   0.47530   0.32410   0.01267  Uiso   1.00
H167   H     0.86290   0.39990   0.56210   0.01267  Uiso   1.00
H168   H     0.17880   0.38690   0.99100   0.01267  Uiso   1.00
C89    C     0.97100   0.82260   0.86320   0.01267  Uiso   1.00
C90    C     0.81320   0.85630   0.82620   0.01267  Uiso   1.00
C91    C     0.89700   0.86640   0.86270   0.01267  Uiso   1.00
C92    C     0.95450   0.91760   0.85770   0.01267  Uiso   1.00
C93    C     0.80800   0.83230   0.93490   0.01267  Uiso   1.00
C94    C     0.08100   0.90370   0.58470   0.01267  Uiso   1.00
C95    C     0.10170   0.80810   0.59430   0.01267  Uiso   1.00
C96    C     0.15700   0.86250   0.58400   0.01267  Uiso   1.00
C97    C     0.24010   0.87020   0.62230   0.01267  Uiso   1.00
C98    C     0.26600   0.83200   0.51300   0.01267  Uiso   1.00
C99    C     0.29100   0.84700   0.45900   0.01267  Uiso   1.00
C100   C     0.27000   0.80900   0.42180   0.01267  Uiso   1.00
C101   C     0.29700   0.81650   0.37020   0.01267  Uiso   1.00
C102   C     0.34600   0.86360   0.35680   0.01267  Uiso   1.00
C103   C     0.37300   0.90600   0.38700   0.01267  Uiso   1.00
C104   C     0.34000   0.89000   0.43600   0.01267  Uiso   1.00
C105   C     0.38240   0.86940   0.30480   0.01267  Uiso   1.00
C106   C     0.58700   0.87660   0.12080   0.01267  Uiso   1.00
C107   C     0.64100   0.86430   0.07310   0.01267  Uiso   1.00
C108   C     0.60200   0.87330   0.02480   0.01267  Uiso   1.00
C109   C     0.65500   0.85920   0.97910   0.01267  Uiso   1.00
C110   C     0.74500   0.83630   0.98440   0.01267  Uiso   1.00
C111   C     0.78700   0.82700   0.03270   0.01267  Uiso   1.00
C112   C     0.73700   0.84020   0.07830   0.01267  Uiso   1.00
C113   C     0.53090   0.24320   0.30980   0.01267  Uiso   1.00
C114   C     0.54660   0.19500   0.29400   0.01267  Uiso   1.00
C115   C     0.46990   0.16200   0.27860   0.01267  Uiso   1.00
C116   C     0.36920   0.17900   0.27970   0.01267  Uiso   1.00
C117   C     0.35600   0.22730   0.29500   0.01267  Uiso   1.00
C118   C     0.48420   0.10780   0.26220   0.01267  Uiso   1.00
C119   C     0.42260   0.02220   0.23610   0.01267  Uiso   1.00
C120   C     0.40690   0.07280   0.25650   0.01267  Uiso   1.00
C121   C     0.58270   0.09440   0.24770   0.01267  Uiso   1.00
C122   C     0.59840   0.04830   0.23060   0.01267  Uiso   1.00
C123   C     0.75060   0.83710   0.24370   0.01267  Uiso   1.00
C124   C     0.85280   0.84370   0.23520   0.01267  Uiso   1.00
C125   C     0.90790   0.88990   0.23940   0.01267  Uiso   1.00
C126   C     0.85290   0.93160   0.25500   0.01267  Uiso   1.00
C127   C     0.75180   0.92350   0.26410   0.01267  Uiso   1.00
C128   C     0.18120   0.86080   0.21750   0.01267  Uiso   1.00
C129   C     0.07960   0.85600   0.23290   0.01267  Uiso   1.00
C130   C     0.02050   0.89730   0.22620   0.01267  Uiso   1.00
C131   C     0.06360   0.93930   0.20730   0.01267  Uiso   1.00
C132   C     0.16330   0.94430   0.19110   0.01267  Uiso   1.00
C133   C     0.97100   0.32260   0.63680   0.01267  Uiso   1.00
C134   C     0.81320   0.35630   0.67380   0.01267  Uiso   1.00
C135   C     0.89700   0.36640   0.63730   0.01267  Uiso   1.00
C136   C     0.95450   0.41760   0.64230   0.01267  Uiso   1.00
C137   C     0.80800   0.33230   0.56510   0.01267  Uiso   1.00
C138   C     0.08100   0.40370   0.91530   0.01267  Uiso   1.00
C139   C     0.10170   0.30810   0.90570   0.01267  Uiso   1.00
C140   C     0.15700   0.36250   0.91600   0.01267  Uiso   1.00
C141   C     0.24010   0.37020   0.87770   0.01267  Uiso   1.00
C142   C     0.26600   0.33200   0.98700   0.01267  Uiso   1.00
C143   C     0.29100   0.34700   0.04100   0.01267  Uiso   1.00
C144   C     0.27000   0.30900   0.07820   0.01267  Uiso   1.00
C145   C     0.29700   0.31650   0.12980   0.01267  Uiso   1.00
C146   C     0.34600   0.36360   0.14320   0.01267  Uiso   1.00
C147   C     0.37300   0.40600   0.11300   0.01267  Uiso   1.00
C148   C     0.34000   0.39000   0.06400   0.01267  Uiso   1.00
C149   C     0.38240   0.36940   0.19520   0.01267  Uiso   1.00
C150   C     0.58700   0.37660   0.37920   0.01267  Uiso   1.00
C151   C     0.64100   0.36430   0.42690   0.01267  Uiso   1.00
C152   C     0.60200   0.37330   0.47520   0.01267  Uiso   1.00
C153   C     0.65500   0.35920   0.52090   0.01267  Uiso   1.00
C154   C     0.74500   0.33630   0.51560   0.01267  Uiso   1.00
C155   C     0.78700   0.32700   0.46730   0.01267  Uiso   1.00
C156   C     0.73700   0.34020   0.42170   0.01267  Uiso   1.00
C157   C     0.53090   0.74320   0.19020   0.01267  Uiso   1.00
C158   C     0.54660   0.69500   0.20600   0.01267  Uiso   1.00
C159   C     0.46990   0.66200   0.22140   0.01267  Uiso   1.00
C160   C     0.36920   0.67900   0.22030   0.01267  Uiso   1.00
C161   C     0.35600   0.72730   0.20500   0.01267  Uiso   1.00
C162   C     0.48420   0.60780   0.23780   0.01267  Uiso   1.00
C163   C     0.42260   0.52220   0.26390   0.01267  Uiso   1.00
C164   C     0.40690   0.57280   0.24350   0.01267  Uiso   1.00
C165   C     0.58270   0.59440   0.25230   0.01267  Uiso   1.00
C166   C     0.59840   0.54830   0.26940   0.01267  Uiso   1.00
C167   C     0.75060   0.33710   0.25630   0.01267  Uiso   1.00
C168   C     0.85280   0.34370   0.26480   0.01267  Uiso   1.00
C169   C     0.90790   0.38990   0.26060   0.01267  Uiso   1.00
C170   C     0.85290   0.43160   0.24500   0.01267  Uiso   1.00
C171   C     0.75180   0.42350   0.23590   0.01267  Uiso   1.00
C172   C     0.18120   0.36080   0.28250   0.01267  Uiso   1.00
C173   C     0.07960   0.35600   0.26710   0.01267  Uiso   1.00
C174   C     0.02050   0.39730   0.27380   0.01267  Uiso   1.00
C175   C     0.06360   0.43930   0.29270   0.01267  Uiso   1.00
C176   C     0.16330   0.44430   0.30890   0.01267  Uiso   1.00
N13    N     0.85400   0.87170   0.91960   0.01267  Uiso   1.00
N14    N     0.20000   0.86360   0.53010   0.01267  Uiso   1.00
N15    N     0.22070   0.90420   0.19730   0.01267  Uiso   1.00
N16    N     0.43450   0.25910   0.31060   0.01267  Uiso   1.00
N17    N     0.70300   0.87740   0.26140   0.01267  Uiso   1.00
N18    N     0.51980   0.01070   0.22410   0.01267  Uiso   1.00
N19    N     0.85400   0.37170   0.58040   0.01267  Uiso   1.00
N20    N     0.20000   0.36360   0.96990   0.01267  Uiso   1.00
N21    N     0.22070   0.40420   0.30270   0.01267  Uiso   1.00
N22    N     0.43450   0.75910   0.18940   0.01267  Uiso   1.00
N23    N     0.70300   0.37740   0.23860   0.01267  Uiso   1.00
N24    N     0.51980   0.51070   0.27590   0.01267  Uiso   1.00
O43    O     0.01980   0.81870   0.81580   0.01267  Uiso   1.00
O44    O     0.00110   0.91860   0.80610   0.01267  Uiso   1.00
O45    O     0.85240   0.85270   0.77670   0.01267  Uiso   1.00
O46    O     0.19830   0.82820   0.76360   0.01267  Uiso   1.00
O47    O     0.04580   0.76130   0.73470   0.01267  Uiso   1.00
O48    O     0.17640   0.92920   0.75460   0.01267  Uiso   1.00
O49    O     0.02590   0.86260   0.72450   0.01267  Uiso   1.00
O50    O     0.87630   0.79510   0.69380   0.01267  Uiso   1.00
O51    O     0.00730   0.96160   0.71350   0.01267  Uiso   1.00
O52    O     0.85780   0.89560   0.68590   0.01267  Uiso   1.00
O53    O     0.20320   0.87020   0.67390   0.01267  Uiso   1.00
O54    O     0.05080   0.80420   0.64270   0.01267  Uiso   1.00
O55    O     0.03450   0.90560   0.63260   0.01267  Uiso   1.00
O56    O     0.38910   0.83340   0.27440   0.01267  Uiso   1.00
O57    O     0.40400   0.91660   0.28690   0.01267  Uiso   1.00
O58    O     0.62300   0.86430   0.16380   0.01267  Uiso   1.00
O59    O     0.50050   0.89530   0.11840   0.01267  Uiso   1.00
O60    O     0.31750   0.90890   0.18190   0.01267  Uiso   1.00
O61    O     0.41770   0.30490   0.32930   0.01267  Uiso   1.00
O62    O     0.60080   0.87140   0.27050   0.01267  Uiso   1.00
O63    O     0.53890   0.96700   0.20330   0.01267  Uiso   1.00
O64    O     0.01980   0.31870   0.68420   0.01267  Uiso   1.00
O65    O     0.00110   0.41860   0.69390   0.01267  Uiso   1.00
O66    O     0.85240   0.35270   0.72330   0.01267  Uiso   1.00
O67    O     0.19830   0.32820   0.73640   0.01267  Uiso   1.00
O68    O     0.04580   0.26130   0.76530   0.01267  Uiso   1.00
O69    O     0.17640   0.42920   0.74540   0.01267  Uiso   1.00
O70    O     0.02590   0.36260   0.77550   0.01267  Uiso   1.00
O71    O     0.87630   0.29510   0.80620   0.01267  Uiso   1.00
O72    O     0.00730   0.46160   0.78650   0.01267  Uiso   1.00
O73    O     0.85780   0.39560   0.81410   0.01267  Uiso   1.00
O74    O     0.20320   0.37020   0.82610   0.01267  Uiso   1.00
O75    O     0.05080   0.30420   0.85730   0.01267  Uiso   1.00
O76    O     0.03450   0.40560   0.86740   0.01267  Uiso   1.00
O77    O     0.38910   0.33340   0.22560   0.01267  Uiso   1.00
O78    O     0.40400   0.41660   0.21310   0.01267  Uiso   1.00
O79    O     0.62300   0.36430   0.33620   0.01267  Uiso   1.00
O80    O     0.50050   0.39530   0.38160   0.01267  Uiso   1.00
O81    O     0.31750   0.40890   0.31810   0.01267  Uiso   1.00
O82    O     0.41770   0.80490   0.17070   0.01267  Uiso   1.00
O83    O     0.60080   0.37140   0.22950   0.01267  Uiso   1.00
O84    O     0.53890   0.46700   0.29670   0.01267  Uiso   1.00
