data_image0
_cell_length_a       18.74
_cell_length_b       18.74
_cell_length_c       9.439
_cell_angle_alpha    90
_cell_angle_beta     90
_cell_angle_gamma    90

_symmetry_space_group_name_H-M    "P 1"
_symmetry_int_tables_number       1

loop_
  _symmetry_equiv_pos_as_xyz
  'x, y, z'

loop_
  _atom_site_label
  _atom_site_occupancy
  _atom_site_fract_x
  _atom_site_fract_y
  _atom_site_fract_z
  _atom_site_thermal_displace_type
  _atom_site_B_iso_or_equiv
  _atom_site_type_symbol
  Al1      1.0000 0.06610  0.55131  0.33500  Biso   1.000  Al
  O1       1.0000 0.06020  0.62780  0.23960  Biso   1.000  O
  O2       1.0000 0.08030  0.57450  0.50580  Biso   1.000  O
  O3       1.0000 0.13700  0.50020  0.28240  Biso   1.000  O
  O4       1.0000 0.98710  0.50510  0.31980  Biso   1.000  O
  P1       1.0000 0.06750  0.66610  0.09240  Biso   1.000  P
  Al2      1.0000 0.95474  0.66417  0.84290  Biso   1.000  Al
  O5       1.0000 0.99920  0.65440  0.00600  Biso   1.000  O
  O6       1.0000 0.00970  0.63060  0.70910  Biso   1.000  O
  O7       1.0000 0.87350  0.62140  0.84450  Biso   1.000  O
  O8       1.0000 0.93610  0.75240  0.80860  Biso   1.000  O
  P2       1.0000 0.16630  0.45100  0.15960  Biso   1.000  P
  Al3      1.0000 0.16560  0.56600  0.91670  Biso   1.000  Al
  O9       1.0000 0.15600  0.48730  0.01140  Biso   1.000  O
  O10      1.0000 0.13320  0.63650  0.00960  Biso   1.000  O
  O11      1.0000 0.12340  0.55990  0.75690  Biso   1.000  O
  O12      1.0000 0.08000  0.74700  0.12550  Biso   1.000  O
  P3       1.0000 0.05544  0.56510  0.66390  Biso   1.000  P
  Al4      1.0000 0.43390  0.94869  0.33500  Biso   1.000  Al
  O13      1.0000 0.43980  0.87220  0.23960  Biso   1.000  O
  O14      1.0000 0.41970  0.92550  0.50580  Biso   1.000  O
  O15      1.0000 0.36300  0.99980  0.28240  Biso   1.000  O
  O16      1.0000 0.51290  0.99490  0.31980  Biso   1.000  O
  P4       1.0000 0.43250  0.83390  0.09240  Biso   1.000  P
  Al5      1.0000 0.54526  0.83583  0.84290  Biso   1.000  Al
  O17      1.0000 0.50080  0.84560  0.00600  Biso   1.000  O
  O18      1.0000 0.49030  0.86940  0.70910  Biso   1.000  O
  O19      1.0000 0.62650  0.87860  0.84450  Biso   1.000  O
  O20      1.0000 0.56390  0.74760  0.80860  Biso   1.000  O
  P5       1.0000 0.33370  0.04900  0.15960  Biso   1.000  P
  Al6      1.0000 0.33440  0.93400  0.91670  Biso   1.000  Al
  O21      1.0000 0.34400  0.01270  0.01140  Biso   1.000  O
  O22      1.0000 0.36680  0.86350  0.00960  Biso   1.000  O
  O23      1.0000 0.37660  0.94010  0.75690  Biso   1.000  O
  O24      1.0000 0.42000  0.75300  0.12550  Biso   1.000  O
  P6       1.0000 0.44456  0.93490  0.66390  Biso   1.000  P
  Al7      1.0000 0.94869  0.06610  0.33500  Biso   1.000  Al
  O25      1.0000 0.87220  0.06020  0.23960  Biso   1.000  O
  O26      1.0000 0.92550  0.08030  0.50580  Biso   1.000  O
  O27      1.0000 0.99980  0.13700  0.28240  Biso   1.000  O
  O28      1.0000 0.99490  0.98710  0.31980  Biso   1.000  O
  P7       1.0000 0.83390  0.06750  0.09240  Biso   1.000  P
  Al8      1.0000 0.83583  0.95474  0.84290  Biso   1.000  Al
  O29      1.0000 0.84560  0.99920  0.00600  Biso   1.000  O
  O30      1.0000 0.86940  0.00970  0.70910  Biso   1.000  O
  O31      1.0000 0.87860  0.87350  0.84450  Biso   1.000  O
  O32      1.0000 0.74760  0.93610  0.80860  Biso   1.000  O
  P8       1.0000 0.04900  0.16630  0.15960  Biso   1.000  P
  Al9      1.0000 0.93400  0.16560  0.91670  Biso   1.000  Al
  O33      1.0000 0.01270  0.15600  0.01140  Biso   1.000  O
  O34      1.0000 0.86350  0.13320  0.00960  Biso   1.000  O
  O35      1.0000 0.94010  0.12340  0.75690  Biso   1.000  O
  O36      1.0000 0.75300  0.08000  0.12550  Biso   1.000  O
  P9       1.0000 0.93490  0.05544  0.66390  Biso   1.000  P
  Al10     1.0000 0.55131  0.43390  0.33500  Biso   1.000  Al
  O37      1.0000 0.62780  0.43980  0.23960  Biso   1.000  O
  O38      1.0000 0.57450  0.41970  0.50580  Biso   1.000  O
  O39      1.0000 0.50020  0.36300  0.28240  Biso   1.000  O
  O40      1.0000 0.50510  0.51290  0.31980  Biso   1.000  O
  P10      1.0000 0.66610  0.43250  0.09240  Biso   1.000  P
  Al11     1.0000 0.66417  0.54526  0.84290  Biso   1.000  Al
  O41      1.0000 0.65440  0.50080  0.00600  Biso   1.000  O
  O42      1.0000 0.63060  0.49030  0.70910  Biso   1.000  O
  O43      1.0000 0.62140  0.62650  0.84450  Biso   1.000  O
  O44      1.0000 0.75240  0.56390  0.80860  Biso   1.000  O
  P11      1.0000 0.45100  0.33370  0.15960  Biso   1.000  P
  Al12     1.0000 0.56600  0.33440  0.91670  Biso   1.000  Al
  O45      1.0000 0.48730  0.34400  0.01140  Biso   1.000  O
  O46      1.0000 0.63650  0.36680  0.00960  Biso   1.000  O
  O47      1.0000 0.55990  0.37660  0.75690  Biso   1.000  O
  O48      1.0000 0.74700  0.42000  0.12550  Biso   1.000  O
  P12      1.0000 0.56510  0.44456  0.66390  Biso   1.000  P
  Al13     1.0000 0.93390  0.44869  0.66500  Biso   1.000  Al
  O49      1.0000 0.93980  0.37220  0.76040  Biso   1.000  O
  O50      1.0000 0.91970  0.42550  0.49420  Biso   1.000  O
  O51      1.0000 0.86300  0.49980  0.71760  Biso   1.000  O
  O52      1.0000 0.01290  0.49490  0.68020  Biso   1.000  O
  P13      1.0000 0.93250  0.33390  0.90760  Biso   1.000  P
  Al14     1.0000 0.04526  0.33583  0.15710  Biso   1.000  Al
  O53      1.0000 0.00080  0.34560  0.99400  Biso   1.000  O
  O54      1.0000 0.99030  0.36940  0.29090  Biso   1.000  O
  O55      1.0000 0.12650  0.37860  0.15550  Biso   1.000  O
  O56      1.0000 0.06390  0.24760  0.19140  Biso   1.000  O
  P14      1.0000 0.83370  0.54900  0.84040  Biso   1.000  P
  Al15     1.0000 0.83440  0.43400  0.08330  Biso   1.000  Al
  O57      1.0000 0.84400  0.51270  0.98860  Biso   1.000  O
  O58      1.0000 0.86680  0.36350  0.99040  Biso   1.000  O
  O59      1.0000 0.87660  0.44010  0.24310  Biso   1.000  O
  O60      1.0000 0.92000  0.25300  0.87450  Biso   1.000  O
  P15      1.0000 0.94456  0.43490  0.33610  Biso   1.000  P
  Al16     1.0000 0.56610  0.05131  0.66500  Biso   1.000  Al
  O61      1.0000 0.56020  0.12780  0.76040  Biso   1.000  O
  O62      1.0000 0.58030  0.07450  0.49420  Biso   1.000  O
  O63      1.0000 0.63700  0.00020  0.71760  Biso   1.000  O
  O64      1.0000 0.48710  0.00510  0.68020  Biso   1.000  O
  P16      1.0000 0.56750  0.16610  0.90760  Biso   1.000  P
  Al17     1.0000 0.45474  0.16417  0.15710  Biso   1.000  Al
  O65      1.0000 0.49920  0.15440  0.99400  Biso   1.000  O
  O66      1.0000 0.50970  0.13060  0.29090  Biso   1.000  O
  O67      1.0000 0.37350  0.12140  0.15550  Biso   1.000  O
  O68      1.0000 0.43610  0.25240  0.19140  Biso   1.000  O
  P17      1.0000 0.66630  0.95100  0.84040  Biso   1.000  P
  Al18     1.0000 0.66560  0.06600  0.08330  Biso   1.000  Al
  O69      1.0000 0.65600  0.98730  0.98860  Biso   1.000  O
  O70      1.0000 0.63320  0.13650  0.99040  Biso   1.000  O
  O71      1.0000 0.62340  0.05990  0.24310  Biso   1.000  O
  O72      1.0000 0.58000  0.24700  0.87450  Biso   1.000  O
  P18      1.0000 0.55544  0.06510  0.33610  Biso   1.000  P
  Al19     1.0000 0.05131  0.93390  0.66500  Biso   1.000  Al
  O73      1.0000 0.12780  0.93980  0.76040  Biso   1.000  O
  O74      1.0000 0.07450  0.91970  0.49420  Biso   1.000  O
  O75      1.0000 0.00020  0.86300  0.71760  Biso   1.000  O
  O76      1.0000 0.00510  0.01290  0.68020  Biso   1.000  O
  P19      1.0000 0.16610  0.93250  0.90760  Biso   1.000  P
  Al20     1.0000 0.16417  0.04526  0.15710  Biso   1.000  Al
  O77      1.0000 0.15440  0.00080  0.99400  Biso   1.000  O
  O78      1.0000 0.13060  0.99030  0.29090  Biso   1.000  O
  O79      1.0000 0.12140  0.12650  0.15550  Biso   1.000  O
  O80      1.0000 0.25240  0.06390  0.19140  Biso   1.000  O
  P20      1.0000 0.95100  0.83370  0.84040  Biso   1.000  P
  Al21     1.0000 0.06600  0.83440  0.08330  Biso   1.000  Al
  O81      1.0000 0.98730  0.84400  0.98860  Biso   1.000  O
  O82      1.0000 0.13650  0.86680  0.99040  Biso   1.000  O
  O83      1.0000 0.05990  0.87660  0.24310  Biso   1.000  O
  O84      1.0000 0.24700  0.92000  0.87450  Biso   1.000  O
  P21      1.0000 0.06510  0.94456  0.33610  Biso   1.000  P
  Al22     1.0000 0.44869  0.56610  0.66500  Biso   1.000  Al
  O85      1.0000 0.37220  0.56020  0.76040  Biso   1.000  O
  O86      1.0000 0.42550  0.58030  0.49420  Biso   1.000  O
  O87      1.0000 0.49980  0.63700  0.71760  Biso   1.000  O
  O88      1.0000 0.49490  0.48710  0.68020  Biso   1.000  O
  P22      1.0000 0.33390  0.56750  0.90760  Biso   1.000  P
  Al23     1.0000 0.33583  0.45474  0.15710  Biso   1.000  Al
  O89      1.0000 0.34560  0.49920  0.99400  Biso   1.000  O
  O90      1.0000 0.36940  0.50970  0.29090  Biso   1.000  O
  O91      1.0000 0.37860  0.37350  0.15550  Biso   1.000  O
  O92      1.0000 0.24760  0.43610  0.19140  Biso   1.000  O
  P23      1.0000 0.54900  0.66630  0.84040  Biso   1.000  P
  Al24     1.0000 0.43400  0.66560  0.08330  Biso   1.000  Al
  O93      1.0000 0.51270  0.65600  0.98860  Biso   1.000  O
  O94      1.0000 0.36350  0.63320  0.99040  Biso   1.000  O
  O95      1.0000 0.44010  0.62340  0.24310  Biso   1.000  O
  O96      1.0000 0.25300  0.58000  0.87450  Biso   1.000  O
  P24      1.0000 0.43490  0.55544  0.33610  Biso   1.000  P
