data_image0
_cell_length_a       11.9183
_cell_length_b       16.9983
_cell_length_c       15.4986
_cell_angle_alpha    90
_cell_angle_beta     90
_cell_angle_gamma    90

_symmetry_space_group_name_H-M    "P 1"
_symmetry_int_tables_number       1

loop_
  _symmetry_equiv_pos_as_xyz
  'x, y, z'

loop_
  _atom_site_label
  _atom_site_occupancy
  _atom_site_fract_x
  _atom_site_fract_y
  _atom_site_fract_z
  _atom_site_thermal_displace_type
  _atom_site_B_iso_or_equiv
  _atom_site_type_symbol
  N1       1.0000 0.62450  0.15990  0.38670  Biso   1.000  N
  C1       1.0000 0.67140  0.10280  0.39000  Biso   1.000  C
  N2       1.0000 0.12450  0.65990  0.38670  Biso   1.000  N
  C2       1.0000 0.17140  0.60280  0.39000  Biso   1.000  C
  N3       1.0000 0.37550  0.34010  0.38670  Biso   1.000  N
  C3       1.0000 0.32860  0.39720  0.39000  Biso   1.000  C
  N4       1.0000 0.87550  0.84010  0.38670  Biso   1.000  N
  C4       1.0000 0.82860  0.89720  0.39000  Biso   1.000  C
  N5       1.0000 0.62450  0.34010  0.38670  Biso   1.000  N
  C5       1.0000 0.67140  0.39720  0.39000  Biso   1.000  C
  N6       1.0000 0.12450  0.84010  0.38670  Biso   1.000  N
  C6       1.0000 0.17140  0.89720  0.39000  Biso   1.000  C
  N7       1.0000 0.37550  0.15990  0.38670  Biso   1.000  N
  C7       1.0000 0.32860  0.10280  0.39000  Biso   1.000  C
  N8       1.0000 0.87550  0.65990  0.38670  Biso   1.000  N
  C8       1.0000 0.82860  0.60280  0.39000  Biso   1.000  C
  Au1      1.0000 0.75000  0.00000  0.39434  Biso   1.000  Au
  Au2      1.0000 0.25000  0.50000  0.39434  Biso   1.000  Au
  Au3      1.0000 0.75000  0.50000  0.39434  Biso   1.000  Au
  Au4      1.0000 0.25000  0.00000  0.39434  Biso   1.000  Au
  Fe1      1.0000 0.50000  0.25000  0.38594  Biso   1.000  Fe
  N9       1.0000 0.50000  0.25000  0.24240  Biso   1.000  N
  N10      1.0000 0.50000  0.25000  0.52690  Biso   1.000  N
  C9       1.0000 0.50000  0.25000  0.06380  Biso   1.000  C
  C10      1.0000 0.50000  0.25000  0.96890  Biso   1.000  C
  C11      1.0000 0.50000  0.25000  0.80510  Biso   1.000  C
  C12      1.0000 0.50000  0.25000  0.70760  Biso   1.000  C
  Fe2      1.0000 0.00000  0.75000  0.38594  Biso   1.000  Fe
  N11      1.0000 0.00000  0.75000  0.24240  Biso   1.000  N
  N12      1.0000 0.00000  0.75000  0.52690  Biso   1.000  N
  C13      1.0000 0.00000  0.75000  0.06380  Biso   1.000  C
  C14      1.0000 0.00000  0.75000  0.96890  Biso   1.000  C
  C15      1.0000 0.00000  0.75000  0.80510  Biso   1.000  C
  C16      1.0000 0.00000  0.75000  0.70760  Biso   1.000  C
  N13      1.0000 0.60020  0.25000  0.92730  Biso   1.000  N
  N14      1.0000 0.59820  0.25000  0.84090  Biso   1.000  N
  C17      1.0000 0.59340  0.25000  0.19900  Biso   1.000  C
  H1       1.0000 0.66050  0.25000  0.22960  Biso   1.000  H
  C18      1.0000 0.59840  0.25000  0.10950  Biso   1.000  C
  H2       1.0000 0.66710  0.25000  0.08110  Biso   1.000  H
  C19      1.0000 0.59700  0.25000  0.66250  Biso   1.000  C
  H3       1.0000 0.66580  0.25000  0.69090  Biso   1.000  H
  C20      1.0000 0.59200  0.25000  0.57140  Biso   1.000  C
  H4       1.0000 0.65950  0.25000  0.54130  Biso   1.000  H
  N15      1.0000 0.10020  0.75000  0.92730  Biso   1.000  N
  N16      1.0000 0.09820  0.75000  0.84090  Biso   1.000  N
  C21      1.0000 0.09340  0.75000  0.19900  Biso   1.000  C
  H5       1.0000 0.16050  0.75000  0.22960  Biso   1.000  H
  C22      1.0000 0.09840  0.75000  0.10950  Biso   1.000  C
  H6       1.0000 0.16710  0.75000  0.08110  Biso   1.000  H
  C23      1.0000 0.09700  0.75000  0.66250  Biso   1.000  C
  H7       1.0000 0.16580  0.75000  0.69090  Biso   1.000  H
  C24      1.0000 0.09200  0.75000  0.57140  Biso   1.000  C
  H8       1.0000 0.15950  0.75000  0.54130  Biso   1.000  H
  N17      1.0000 0.39980  0.25000  0.92730  Biso   1.000  N
  N18      1.0000 0.40180  0.25000  0.84090  Biso   1.000  N
  C25      1.0000 0.40660  0.25000  0.19900  Biso   1.000  C
  H9       1.0000 0.33950  0.25000  0.22960  Biso   1.000  H
  C26      1.0000 0.40160  0.25000  0.10950  Biso   1.000  C
  H10      1.0000 0.33290  0.25000  0.08110  Biso   1.000  H
  C27      1.0000 0.40300  0.25000  0.66250  Biso   1.000  C
  H11      1.0000 0.33420  0.25000  0.69090  Biso   1.000  H
  C28      1.0000 0.40800  0.25000  0.57140  Biso   1.000  C
  H12      1.0000 0.34050  0.25000  0.54130  Biso   1.000  H
  N19      1.0000 0.89980  0.75000  0.92730  Biso   1.000  N
  N20      1.0000 0.90180  0.75000  0.84090  Biso   1.000  N
  C29      1.0000 0.90660  0.75000  0.19900  Biso   1.000  C
  H13      1.0000 0.83950  0.75000  0.22960  Biso   1.000  H
  C30      1.0000 0.90160  0.75000  0.10950  Biso   1.000  C
  H14      1.0000 0.83290  0.75000  0.08110  Biso   1.000  H
  C31      1.0000 0.90300  0.75000  0.66250  Biso   1.000  C
  H15      1.0000 0.83420  0.75000  0.69090  Biso   1.000  H
  C32      1.0000 0.90800  0.75000  0.57140  Biso   1.000  C
  H16      1.0000 0.84050  0.75000  0.54130  Biso   1.000  H
  N21      1.0000 0.37550  0.65990  0.61330  Biso   1.000  N
  C33      1.0000 0.32860  0.60280  0.61000  Biso   1.000  C
  N22      1.0000 0.87550  0.15990  0.61330  Biso   1.000  N
  C34      1.0000 0.82860  0.10280  0.61000  Biso   1.000  C
  N23      1.0000 0.62450  0.84010  0.61330  Biso   1.000  N
  C35      1.0000 0.67140  0.89720  0.61000  Biso   1.000  C
  N24      1.0000 0.12450  0.34010  0.61330  Biso   1.000  N
  C36      1.0000 0.17140  0.39720  0.61000  Biso   1.000  C
  N25      1.0000 0.37550  0.84010  0.61330  Biso   1.000  N
  C37      1.0000 0.32860  0.89720  0.61000  Biso   1.000  C
  N26      1.0000 0.87550  0.34010  0.61330  Biso   1.000  N
  C38      1.0000 0.82860  0.39720  0.61000  Biso   1.000  C
  N27      1.0000 0.62450  0.65990  0.61330  Biso   1.000  N
  C39      1.0000 0.67140  0.60280  0.61000  Biso   1.000  C
  N28      1.0000 0.12450  0.15990  0.61330  Biso   1.000  N
  C40      1.0000 0.17140  0.10280  0.61000  Biso   1.000  C
  Au5      1.0000 0.25000  0.50000  0.60566  Biso   1.000  Au
  Au6      1.0000 0.75000  0.00000  0.60566  Biso   1.000  Au
  Au7      1.0000 0.25000  0.00000  0.60566  Biso   1.000  Au
  Au8      1.0000 0.75000  0.50000  0.60566  Biso   1.000  Au
  Fe3      1.0000 0.50000  0.75000  0.61406  Biso   1.000  Fe
  N29      1.0000 0.50000  0.75000  0.75760  Biso   1.000  N
  N30      1.0000 0.50000  0.75000  0.47310  Biso   1.000  N
  C41      1.0000 0.50000  0.75000  0.93620  Biso   1.000  C
  C42      1.0000 0.50000  0.75000  0.03110  Biso   1.000  C
  C43      1.0000 0.50000  0.75000  0.19490  Biso   1.000  C
  C44      1.0000 0.50000  0.75000  0.29240  Biso   1.000  C
  Fe4      1.0000 0.00000  0.25000  0.61406  Biso   1.000  Fe
  N31      1.0000 0.00000  0.25000  0.75760  Biso   1.000  N
  N32      1.0000 0.00000  0.25000  0.47310  Biso   1.000  N
  C45      1.0000 0.00000  0.25000  0.93620  Biso   1.000  C
  C46      1.0000 0.00000  0.25000  0.03110  Biso   1.000  C
  C47      1.0000 0.00000  0.25000  0.19490  Biso   1.000  C
  C48      1.0000 0.00000  0.25000  0.29240  Biso   1.000  C
  N33      1.0000 0.39980  0.75000  0.07270  Biso   1.000  N
  N34      1.0000 0.40180  0.75000  0.15910  Biso   1.000  N
  C49      1.0000 0.40660  0.75000  0.80100  Biso   1.000  C
  H17      1.0000 0.33950  0.75000  0.77040  Biso   1.000  H
  C50      1.0000 0.40160  0.75000  0.89050  Biso   1.000  C
  H18      1.0000 0.33290  0.75000  0.91890  Biso   1.000  H
  C51      1.0000 0.40300  0.75000  0.33750  Biso   1.000  C
  H19      1.0000 0.33420  0.75000  0.30910  Biso   1.000  H
  C52      1.0000 0.40800  0.75000  0.42860  Biso   1.000  C
  H20      1.0000 0.34050  0.75000  0.45870  Biso   1.000  H
  N35      1.0000 0.89980  0.25000  0.07270  Biso   1.000  N
  N36      1.0000 0.90180  0.25000  0.15910  Biso   1.000  N
  C53      1.0000 0.90660  0.25000  0.80100  Biso   1.000  C
  H21      1.0000 0.83950  0.25000  0.77040  Biso   1.000  H
  C54      1.0000 0.90160  0.25000  0.89050  Biso   1.000  C
  H22      1.0000 0.83290  0.25000  0.91890  Biso   1.000  H
  C55      1.0000 0.90300  0.25000  0.33750  Biso   1.000  C
  H23      1.0000 0.83420  0.25000  0.30910  Biso   1.000  H
  C56      1.0000 0.90800  0.25000  0.42860  Biso   1.000  C
  H24      1.0000 0.84050  0.25000  0.45870  Biso   1.000  H
  N37      1.0000 0.60020  0.75000  0.07270  Biso   1.000  N
  N38      1.0000 0.59820  0.75000  0.15910  Biso   1.000  N
  C57      1.0000 0.59340  0.75000  0.80100  Biso   1.000  C
  H25      1.0000 0.66050  0.75000  0.77040  Biso   1.000  H
  C58      1.0000 0.59840  0.75000  0.89050  Biso   1.000  C
  H26      1.0000 0.66710  0.75000  0.91890  Biso   1.000  H
  C59      1.0000 0.59700  0.75000  0.33750  Biso   1.000  C
  H27      1.0000 0.66580  0.75000  0.30910  Biso   1.000  H
  C60      1.0000 0.59200  0.75000  0.42860  Biso   1.000  C
  H28      1.0000 0.65950  0.75000  0.45870  Biso   1.000  H
  N39      1.0000 0.10020  0.25000  0.07270  Biso   1.000  N
  N40      1.0000 0.09820  0.25000  0.15910  Biso   1.000  N
  C61      1.0000 0.09340  0.25000  0.80100  Biso   1.000  C
  H29      1.0000 0.16050  0.25000  0.77040  Biso   1.000  H
  C62      1.0000 0.09840  0.25000  0.89050  Biso   1.000  C
  H30      1.0000 0.16710  0.25000  0.91890  Biso   1.000  H
  C63      1.0000 0.09700  0.25000  0.33750  Biso   1.000  C
  H31      1.0000 0.16580  0.25000  0.30910  Biso   1.000  H
  C64      1.0000 0.09200  0.25000  0.42860  Biso   1.000  C
  H32      1.0000 0.15950  0.25000  0.45870  Biso   1.000  H
