data_LOJNAA_clean
_audit_creation_date              2014-07-02
_audit_creation_method            'Materials Studio'
_symmetry_space_group_name_H-M    'P1'
_symmetry_Int_Tables_number       1
_symmetry_cell_setting            triclinic
loop_
_symmetry_equiv_pos_as_xyz
  x,y,z
_cell_length_a                    18.5770
_cell_length_b                    20.1250
_cell_length_c                    20.8950
_cell_angle_alpha                 90.0000
_cell_angle_beta                  90.0000
_cell_angle_gamma                 90.0000
loop_
_atom_site_label
_atom_site_type_symbol
_atom_site_fract_x
_atom_site_fract_y
_atom_site_fract_z
_atom_site_U_iso_or_equiv
_atom_site_adp_type
_atom_site_occupancy
Ni1    Ni    0.45031   0.35797   0.18708   0.01267  Uiso   1.00
Ni2    Ni    0.28036   0.99185   0.01287   0.01267  Uiso   1.00
Ni3    Ni    0.04969   0.64203   0.68708   0.01267  Uiso   1.00
Ni4    Ni    0.21964   0.00815   0.51287   0.01267  Uiso   1.00
Ni5    Ni    0.54969   0.85797   0.31292   0.01267  Uiso   1.00
Ni6    Ni    0.71964   0.49185   0.48713   0.01267  Uiso   1.00
Ni7    Ni    0.95031   0.14203   0.81292   0.01267  Uiso   1.00
Ni8    Ni    0.78036   0.50815   0.98713   0.01267  Uiso   1.00
Mo1    Mo    0.33176   0.20593   0.17892   0.01267  Uiso   1.00
Mo2    Mo    0.31307   0.20953   0.34137   0.01267  Uiso   1.00
Mo3    Mo    0.36517   0.06216   0.40137   0.01267  Uiso   1.00
Mo4    Mo    0.39250   0.95398   0.27591   0.01267  Uiso   1.00
Mo5    Mo    0.40896   0.05861   0.13740   0.01267  Uiso   1.00
Mo6    Mo    0.16824   0.79407   0.67892   0.01267  Uiso   1.00
Mo7    Mo    0.18693   0.79047   0.84137   0.01267  Uiso   1.00
Mo8    Mo    0.13483   0.93784   0.90137   0.01267  Uiso   1.00
Mo9    Mo    0.10750   0.04602   0.77591   0.01267  Uiso   1.00
Mo10   Mo    0.09104   0.94139   0.63740   0.01267  Uiso   1.00
Mo11   Mo    0.66824   0.70593   0.32108   0.01267  Uiso   1.00
Mo12   Mo    0.68693   0.70953   0.15863   0.01267  Uiso   1.00
Mo13   Mo    0.63483   0.56216   0.09863   0.01267  Uiso   1.00
Mo14   Mo    0.60750   0.45398   0.22409   0.01267  Uiso   1.00
Mo15   Mo    0.59104   0.55861   0.36260   0.01267  Uiso   1.00
Mo16   Mo    0.83176   0.29407   0.82108   0.01267  Uiso   1.00
Mo17   Mo    0.81307   0.29047   0.65863   0.01267  Uiso   1.00
Mo18   Mo    0.86517   0.43784   0.59863   0.01267  Uiso   1.00
Mo19   Mo    0.89250   0.54602   0.72409   0.01267  Uiso   1.00
Mo20   Mo    0.90896   0.44139   0.86260   0.01267  Uiso   1.00
P1     P     0.26864   0.06870   0.25561   0.01267  Uiso   1.00
P2     P     0.46039   0.12270   0.27653   0.01267  Uiso   1.00
P3     P     0.23136   0.93130   0.75561   0.01267  Uiso   1.00
P4     P     0.03961   0.87730   0.77653   0.01267  Uiso   1.00
P5     P     0.73136   0.56870   0.24439   0.01267  Uiso   1.00
P6     P     0.53961   0.62270   0.22347   0.01267  Uiso   1.00
P7     P     0.76864   0.43130   0.74439   0.01267  Uiso   1.00
P8     P     0.96039   0.37730   0.72347   0.01267  Uiso   1.00
H1     H     0.31470   0.36420   0.09380   0.01267  Uiso   1.00
H2     H     0.47920   0.47480   0.08210   0.01267  Uiso   1.00
H3     H     0.38480   0.52070   0.94340   0.01267  Uiso   1.00
H4     H     0.44500   0.55050   0.98770   0.01267  Uiso   1.00
H5     H     0.28780   0.59130   0.92930   0.01267  Uiso   1.00
H6     H     0.21170   0.67130   0.96370   0.01267  Uiso   1.00
H7     H     0.31640   0.67980   0.13250   0.01267  Uiso   1.00
H8     H     0.39090   0.59670   0.09280   0.01267  Uiso   1.00
H9     H     0.18290   0.72050   0.11600   0.01267  Uiso   1.00
H10    H     0.16230   0.73670   0.04500   0.01267  Uiso   1.00
H11    H     0.29190   0.91640   0.15320   0.01267  Uiso   1.00
H12    H     0.23820   0.83930   0.99460   0.01267  Uiso   1.00
H13    H     0.50210   0.21090   0.14290   0.01267  Uiso   1.00
H14    H     0.59640   0.37370   0.09800   0.01267  Uiso   1.00
H15    H     0.65900   0.15680   0.06690   0.01267  Uiso   1.00
H16    H     0.58280   0.12880   0.08510   0.01267  Uiso   1.00
H17    H     0.68620   0.18740   0.95610   0.01267  Uiso   1.00
H18    H     0.66550   0.16450   0.85000   0.01267  Uiso   1.00
H19    H     0.46110   0.11640   0.89270   0.01267  Uiso   1.00
H20    H     0.48830   0.12160   0.00060   0.01267  Uiso   1.00
H21    H     0.58780   0.10280   0.77470   0.01267  Uiso   1.00
H22    H     0.54580   0.17020   0.77100   0.01267  Uiso   1.00
H23    H     0.32780   0.09110   0.74610   0.01267  Uiso   1.00
H24    H     0.49370   0.99340   0.78870   0.01267  Uiso   1.00
H25    H     0.95340   0.52560   0.98390   0.01267  Uiso   1.00
H26    H     0.82680   0.59020   0.11710   0.01267  Uiso   1.00
H27    H     0.07010   0.58930   0.01720   0.01267  Uiso   1.00
H28    H     0.05170   0.65350   0.05570   0.01267  Uiso   1.00
H29    H     0.13960   0.50480   0.06640   0.01267  Uiso   1.00
H30    H     0.22870   0.49080   0.14050   0.01267  Uiso   1.00
H31    H     0.14580   0.63170   0.24590   0.01267  Uiso   1.00
H32    H     0.05630   0.64550   0.17400   0.01267  Uiso   1.00
H33    H     0.29350   0.59180   0.23240   0.01267  Uiso   1.00
H34    H     0.23990   0.56980   0.28570   0.01267  Uiso   1.00
H35    H     0.40800   0.50570   0.23320   0.01267  Uiso   1.00
H36    H     0.28910   0.35010   0.25040   0.01267  Uiso   1.00
H37    H     0.26280   0.06150   0.87310   0.01267  Uiso   1.00
H38    H     0.32350   0.15010   0.02520   0.01267  Uiso   1.00
H39    H     0.27330   0.27830   0.92030   0.01267  Uiso   1.00
H40    H     0.30480   0.27000   0.98940   0.01267  Uiso   1.00
H41    H     0.43120   0.28670   0.00550   0.01267  Uiso   1.00
H42    H     0.53700   0.33540   0.97080   0.01267  Uiso   1.00
H43    H     0.47230   0.30620   0.79210   0.01267  Uiso   1.00
H44    H     0.36770   0.26170   0.82700   0.01267  Uiso   1.00
H45    H     0.58340   0.36090   0.80690   0.01267  Uiso   1.00
H46    H     0.62160   0.31340   0.85550   0.01267  Uiso   1.00
H47    H     0.71230   0.37530   0.91730   0.01267  Uiso   1.00
H48    H     0.61970   0.54900   0.93050   0.01267  Uiso   1.00
H49    H     0.37130   0.98440   0.76500   0.01267  Uiso   1.00
H50    H     0.18530   0.63580   0.59380   0.01267  Uiso   1.00
H51    H     0.02080   0.52520   0.58210   0.01267  Uiso   1.00
H52    H     0.11520   0.47930   0.44340   0.01267  Uiso   1.00
H53    H     0.05500   0.44950   0.48770   0.01267  Uiso   1.00
H54    H     0.21220   0.40870   0.42930   0.01267  Uiso   1.00
H55    H     0.28830   0.32870   0.46370   0.01267  Uiso   1.00
H56    H     0.18360   0.32020   0.63250   0.01267  Uiso   1.00
H57    H     0.10910   0.40330   0.59280   0.01267  Uiso   1.00
H58    H     0.31710   0.27950   0.61600   0.01267  Uiso   1.00
H59    H     0.33770   0.26330   0.54500   0.01267  Uiso   1.00
H60    H     0.20810   0.08360   0.65320   0.01267  Uiso   1.00
H61    H     0.26180   0.16070   0.49460   0.01267  Uiso   1.00
H62    H     0.99790   0.78910   0.64290   0.01267  Uiso   1.00
H63    H     0.90360   0.62630   0.59800   0.01267  Uiso   1.00
H64    H     0.84100   0.84320   0.56690   0.01267  Uiso   1.00
H65    H     0.91720   0.87120   0.58510   0.01267  Uiso   1.00
H66    H     0.81380   0.81260   0.45610   0.01267  Uiso   1.00
H67    H     0.83450   0.83550   0.35000   0.01267  Uiso   1.00
H68    H     0.03890   0.88360   0.39270   0.01267  Uiso   1.00
H69    H     0.01170   0.87840   0.50060   0.01267  Uiso   1.00
H70    H     0.91220   0.89720   0.27470   0.01267  Uiso   1.00
H71    H     0.95420   0.82980   0.27100   0.01267  Uiso   1.00
H72    H     0.17220   0.90890   0.24610   0.01267  Uiso   1.00
H73    H     0.00630   0.00660   0.28870   0.01267  Uiso   1.00
H74    H     0.54660   0.47440   0.48390   0.01267  Uiso   1.00
H75    H     0.67320   0.40980   0.61710   0.01267  Uiso   1.00
H76    H     0.42990   0.41070   0.51720   0.01267  Uiso   1.00
H77    H     0.44830   0.34650   0.55570   0.01267  Uiso   1.00
H78    H     0.36040   0.49520   0.56640   0.01267  Uiso   1.00
H79    H     0.27130   0.50920   0.64050   0.01267  Uiso   1.00
H80    H     0.35420   0.36830   0.74590   0.01267  Uiso   1.00
H81    H     0.44370   0.35450   0.67400   0.01267  Uiso   1.00
H82    H     0.20650   0.40820   0.73240   0.01267  Uiso   1.00
H83    H     0.26010   0.43020   0.78570   0.01267  Uiso   1.00
H84    H     0.09200   0.49430   0.73320   0.01267  Uiso   1.00
H85    H     0.21090   0.64990   0.75040   0.01267  Uiso   1.00
H86    H     0.23720   0.93850   0.37310   0.01267  Uiso   1.00
H87    H     0.17650   0.84990   0.52520   0.01267  Uiso   1.00
H88    H     0.22670   0.72170   0.42030   0.01267  Uiso   1.00
H89    H     0.19520   0.73000   0.48940   0.01267  Uiso   1.00
H90    H     0.06880   0.71330   0.50550   0.01267  Uiso   1.00
H91    H     0.96300   0.66460   0.47080   0.01267  Uiso   1.00
H92    H     0.02770   0.69380   0.29210   0.01267  Uiso   1.00
H93    H     0.13230   0.73830   0.32700   0.01267  Uiso   1.00
H94    H     0.91660   0.63910   0.30690   0.01267  Uiso   1.00
H95    H     0.87840   0.68660   0.35550   0.01267  Uiso   1.00
H96    H     0.78770   0.62470   0.41730   0.01267  Uiso   1.00
H97    H     0.88030   0.45100   0.43050   0.01267  Uiso   1.00
H98    H     0.12870   0.01560   0.26500   0.01267  Uiso   1.00
H99    H     0.68530   0.86420   0.40620   0.01267  Uiso   1.00
H100   H     0.52080   0.97480   0.41790   0.01267  Uiso   1.00
H101   H     0.61520   0.02070   0.55660   0.01267  Uiso   1.00
H102   H     0.55500   0.05050   0.51230   0.01267  Uiso   1.00
H103   H     0.71220   0.09130   0.57070   0.01267  Uiso   1.00
H104   H     0.78830   0.17130   0.53630   0.01267  Uiso   1.00
H105   H     0.68360   0.17980   0.36750   0.01267  Uiso   1.00
H106   H     0.60910   0.09670   0.40720   0.01267  Uiso   1.00
H107   H     0.81710   0.22050   0.38400   0.01267  Uiso   1.00
H108   H     0.83770   0.23670   0.45500   0.01267  Uiso   1.00
H109   H     0.70810   0.41640   0.34680   0.01267  Uiso   1.00
H110   H     0.76180   0.33930   0.50540   0.01267  Uiso   1.00
H111   H     0.49790   0.71090   0.35710   0.01267  Uiso   1.00
H112   H     0.40360   0.87370   0.40200   0.01267  Uiso   1.00
H113   H     0.34100   0.65680   0.43310   0.01267  Uiso   1.00
H114   H     0.41720   0.62880   0.41490   0.01267  Uiso   1.00
H115   H     0.31380   0.68740   0.54390   0.01267  Uiso   1.00
H116   H     0.33450   0.66450   0.65000   0.01267  Uiso   1.00
H117   H     0.53890   0.61640   0.60730   0.01267  Uiso   1.00
H118   H     0.51170   0.62160   0.49940   0.01267  Uiso   1.00
H119   H     0.41220   0.60280   0.72530   0.01267  Uiso   1.00
H120   H     0.45420   0.67020   0.72900   0.01267  Uiso   1.00
H121   H     0.67220   0.59110   0.75390   0.01267  Uiso   1.00
H122   H     0.50630   0.49340   0.71130   0.01267  Uiso   1.00
H123   H     0.04660   0.02560   0.51610   0.01267  Uiso   1.00
H124   H     0.17320   0.09020   0.38290   0.01267  Uiso   1.00
H125   H     0.92990   0.08930   0.48280   0.01267  Uiso   1.00
H126   H     0.94830   0.15350   0.44430   0.01267  Uiso   1.00
H127   H     0.86040   0.00480   0.43360   0.01267  Uiso   1.00
H128   H     0.77130   0.99080   0.35950   0.01267  Uiso   1.00
H129   H     0.85420   0.13170   0.25410   0.01267  Uiso   1.00
H130   H     0.94370   0.14550   0.32600   0.01267  Uiso   1.00
H131   H     0.70650   0.09180   0.26760   0.01267  Uiso   1.00
H132   H     0.76010   0.06980   0.21430   0.01267  Uiso   1.00
H133   H     0.59200   0.00570   0.26680   0.01267  Uiso   1.00
H134   H     0.71090   0.85010   0.24960   0.01267  Uiso   1.00
H135   H     0.73720   0.56150   0.62690   0.01267  Uiso   1.00
H136   H     0.67650   0.65010   0.47480   0.01267  Uiso   1.00
H137   H     0.72670   0.77830   0.57970   0.01267  Uiso   1.00
H138   H     0.69520   0.77000   0.51060   0.01267  Uiso   1.00
H139   H     0.56880   0.78670   0.49450   0.01267  Uiso   1.00
H140   H     0.46300   0.83540   0.52920   0.01267  Uiso   1.00
H141   H     0.52770   0.80620   0.70790   0.01267  Uiso   1.00
H142   H     0.63230   0.76170   0.67300   0.01267  Uiso   1.00
H143   H     0.41660   0.86090   0.69310   0.01267  Uiso   1.00
H144   H     0.37840   0.81340   0.64450   0.01267  Uiso   1.00
H145   H     0.28770   0.87530   0.58270   0.01267  Uiso   1.00
H146   H     0.38030   0.04900   0.56950   0.01267  Uiso   1.00
H147   H     0.62870   0.48440   0.73500   0.01267  Uiso   1.00
H148   H     0.81470   0.13580   0.90620   0.01267  Uiso   1.00
H149   H     0.97920   0.02520   0.91790   0.01267  Uiso   1.00
H150   H     0.88480   0.97930   0.05660   0.01267  Uiso   1.00
H151   H     0.94500   0.94950   0.01230   0.01267  Uiso   1.00
H152   H     0.78780   0.90870   0.07070   0.01267  Uiso   1.00
H153   H     0.71170   0.82870   0.03630   0.01267  Uiso   1.00
H154   H     0.81640   0.82020   0.86750   0.01267  Uiso   1.00
H155   H     0.89090   0.90330   0.90720   0.01267  Uiso   1.00
H156   H     0.68290   0.77950   0.88400   0.01267  Uiso   1.00
H157   H     0.66230   0.76330   0.95500   0.01267  Uiso   1.00
H158   H     0.79190   0.58360   0.84680   0.01267  Uiso   1.00
H159   H     0.73820   0.66070   0.00540   0.01267  Uiso   1.00
H160   H     0.00210   0.28910   0.85710   0.01267  Uiso   1.00
H161   H     0.09640   0.12630   0.90200   0.01267  Uiso   1.00
H162   H     0.15900   0.34320   0.93310   0.01267  Uiso   1.00
H163   H     0.08280   0.37120   0.91490   0.01267  Uiso   1.00
H164   H     0.18620   0.31260   0.04390   0.01267  Uiso   1.00
H165   H     0.16550   0.33550   0.15000   0.01267  Uiso   1.00
H166   H     0.96110   0.38360   0.10730   0.01267  Uiso   1.00
H167   H     0.98830   0.37840   0.99940   0.01267  Uiso   1.00
H168   H     0.08780   0.39720   0.22530   0.01267  Uiso   1.00
H169   H     0.04580   0.32980   0.22900   0.01267  Uiso   1.00
H170   H     0.82780   0.40890   0.25390   0.01267  Uiso   1.00
H171   H     0.99370   0.50660   0.21130   0.01267  Uiso   1.00
H172   H     0.45340   0.97440   0.01610   0.01267  Uiso   1.00
H173   H     0.32680   0.90980   0.88290   0.01267  Uiso   1.00
H174   H     0.57010   0.91070   0.98280   0.01267  Uiso   1.00
H175   H     0.55170   0.84650   0.94430   0.01267  Uiso   1.00
H176   H     0.63960   0.99520   0.93360   0.01267  Uiso   1.00
H177   H     0.72870   0.00920   0.85950   0.01267  Uiso   1.00
H178   H     0.64580   0.86830   0.75410   0.01267  Uiso   1.00
H179   H     0.55630   0.85450   0.82600   0.01267  Uiso   1.00
H180   H     0.79350   0.90820   0.76760   0.01267  Uiso   1.00
H181   H     0.73990   0.93020   0.71430   0.01267  Uiso   1.00
H182   H     0.90800   0.99430   0.76680   0.01267  Uiso   1.00
H183   H     0.78910   0.14990   0.74960   0.01267  Uiso   1.00
H184   H     0.76280   0.43850   0.12690   0.01267  Uiso   1.00
H185   H     0.82350   0.34990   0.97480   0.01267  Uiso   1.00
H186   H     0.77330   0.22170   0.07970   0.01267  Uiso   1.00
H187   H     0.80480   0.23000   0.01060   0.01267  Uiso   1.00
H188   H     0.93120   0.21330   0.99450   0.01267  Uiso   1.00
H189   H     0.03700   0.16460   0.02920   0.01267  Uiso   1.00
H190   H     0.97230   0.19380   0.20790   0.01267  Uiso   1.00
H191   H     0.86770   0.23830   0.17300   0.01267  Uiso   1.00
H192   H     0.08340   0.13910   0.19310   0.01267  Uiso   1.00
H193   H     0.12160   0.18660   0.14450   0.01267  Uiso   1.00
H194   H     0.21230   0.12470   0.08270   0.01267  Uiso   1.00
H195   H     0.11970   0.95100   0.06950   0.01267  Uiso   1.00
H196   H     0.87130   0.51560   0.23500   0.01267  Uiso   1.00
C1     C     0.34720   0.39580   0.07910   0.01267  Uiso   1.00
C2     C     0.43540   0.45430   0.07340   0.01267  Uiso   1.00
C3     C     0.39630   0.53310   0.98710   0.01267  Uiso   1.00
C4     C     0.34510   0.58550   0.00940   0.01267  Uiso   1.00
C5     C     0.29290   0.60870   0.97030   0.01267  Uiso   1.00
C6     C     0.24840   0.65640   0.99040   0.01267  Uiso   1.00
C7     C     0.25670   0.68440   0.05180   0.01267  Uiso   1.00
C8     C     0.30980   0.66240   0.09170   0.01267  Uiso   1.00
C9     C     0.35360   0.61240   0.06730   0.01267  Uiso   1.00
C10    C     0.20200   0.73530   0.07520   0.01267  Uiso   1.00
C11    C     0.27230   0.88750   0.12310   0.01267  Uiso   1.00
C12    C     0.24470   0.84770   0.03800   0.01267  Uiso   1.00
C13    C     0.53260   0.24230   0.12470   0.01267  Uiso   1.00
C14    C     0.58430   0.32890   0.09950   0.01267  Uiso   1.00
C15    C     0.60770   0.16290   0.06080   0.01267  Uiso   1.00
C16    C     0.59010   0.15570   0.99190   0.01267  Uiso   1.00
C17    C     0.64200   0.16990   0.94390   0.01267  Uiso   1.00
C18    C     0.62930   0.15860   0.88020   0.01267  Uiso   1.00
C19    C     0.55910   0.13750   0.86140   0.01267  Uiso   1.00
C20    C     0.50750   0.12730   0.90570   0.01267  Uiso   1.00
C21    C     0.52320   0.13310   0.97070   0.01267  Uiso   1.00
C22    C     0.54740   0.12730   0.79220   0.01267  Uiso   1.00
C23    C     0.37570   0.08180   0.75530   0.01267  Uiso   1.00
C24    C     0.46220   0.02800   0.77950   0.01267  Uiso   1.00
C25    C     0.93510   0.54790   0.01940   0.01267  Uiso   1.00
C26    C     0.86800   0.58330   0.09260   0.01267  Uiso   1.00
C27    C     0.05010   0.60540   0.05720   0.01267  Uiso   1.00
C28    C     0.09790   0.58330   0.10940   0.01267  Uiso   1.00
C29    C     0.14330   0.53300   0.10150   0.01267  Uiso   1.00
C30    C     0.19460   0.52430   0.14590   0.01267  Uiso   1.00
C31    C     0.19730   0.56240   0.19680   0.01267  Uiso   1.00
C32    C     0.14550   0.60730   0.20810   0.01267  Uiso   1.00
C33    C     0.09420   0.61660   0.16560   0.01267  Uiso   1.00
C34    C     0.25900   0.55780   0.24400   0.01267  Uiso   1.00
C35    C     0.36930   0.47690   0.23860   0.01267  Uiso   1.00
C36    C     0.30330   0.39440   0.25040   0.01267  Uiso   1.00
C37    C     0.27610   0.09460   0.90170   0.01267  Uiso   1.00
C38    C     0.30820   0.14130   0.98370   0.01267  Uiso   1.00
C39    C     0.31090   0.25680   0.94500   0.01267  Uiso   1.00
C40    C     0.38410   0.28230   0.92150   0.01267  Uiso   1.00
C41    C     0.43760   0.29540   0.96220   0.01267  Uiso   1.00
C42    C     0.50280   0.32170   0.94120   0.01267  Uiso   1.00
C43    C     0.51700   0.32780   0.87580   0.01267  Uiso   1.00
C44    C     0.46380   0.30470   0.83600   0.01267  Uiso   1.00
C45    C     0.40020   0.27990   0.85600   0.01267  Uiso   1.00
C46    C     0.58770   0.34990   0.85190   0.01267  Uiso   1.00
C47    C     0.67980   0.41030   0.91410   0.01267  Uiso   1.00
C48    C     0.62900   0.50480   0.92050   0.01267  Uiso   1.00
C49    C     0.15280   0.60420   0.57910   0.01267  Uiso   1.00
C50    C     0.06460   0.54570   0.57340   0.01267  Uiso   1.00
C51    C     0.10370   0.46690   0.48710   0.01267  Uiso   1.00
C52    C     0.15490   0.41450   0.50940   0.01267  Uiso   1.00
C53    C     0.20710   0.39130   0.47030   0.01267  Uiso   1.00
C54    C     0.25160   0.34360   0.49040   0.01267  Uiso   1.00
C55    C     0.24330   0.31560   0.55180   0.01267  Uiso   1.00
C56    C     0.19020   0.33760   0.59170   0.01267  Uiso   1.00
C57    C     0.14640   0.38760   0.56730   0.01267  Uiso   1.00
C58    C     0.29800   0.26470   0.57520   0.01267  Uiso   1.00
C59    C     0.22770   0.11250   0.62310   0.01267  Uiso   1.00
C60    C     0.25530   0.15230   0.53800   0.01267  Uiso   1.00
C61    C     0.96740   0.75770   0.62470   0.01267  Uiso   1.00
C62    C     0.91570   0.67110   0.59950   0.01267  Uiso   1.00
C63    C     0.89230   0.83710   0.56080   0.01267  Uiso   1.00
C64    C     0.90990   0.84430   0.49190   0.01267  Uiso   1.00
C65    C     0.85800   0.83010   0.44390   0.01267  Uiso   1.00
C66    C     0.87070   0.84140   0.38020   0.01267  Uiso   1.00
C67    C     0.94090   0.86250   0.36140   0.01267  Uiso   1.00
C68    C     0.99250   0.87270   0.40570   0.01267  Uiso   1.00
C69    C     0.97680   0.86690   0.47070   0.01267  Uiso   1.00
C70    C     0.95260   0.87270   0.29220   0.01267  Uiso   1.00
C71    C     0.12430   0.91820   0.25530   0.01267  Uiso   1.00
C72    C     0.03780   0.97200   0.27950   0.01267  Uiso   1.00
C73    C     0.56490   0.45210   0.51940   0.01267  Uiso   1.00
C74    C     0.63200   0.41670   0.59260   0.01267  Uiso   1.00
C75    C     0.44990   0.39460   0.55720   0.01267  Uiso   1.00
C76    C     0.40210   0.41670   0.60940   0.01267  Uiso   1.00
C77    C     0.35670   0.46700   0.60150   0.01267  Uiso   1.00
C78    C     0.30540   0.47570   0.64590   0.01267  Uiso   1.00
C79    C     0.30270   0.43760   0.69680   0.01267  Uiso   1.00
C80    C     0.35450   0.39270   0.70810   0.01267  Uiso   1.00
C81    C     0.40580   0.38340   0.66560   0.01267  Uiso   1.00
C82    C     0.24100   0.44220   0.74400   0.01267  Uiso   1.00
C83    C     0.13070   0.52310   0.73860   0.01267  Uiso   1.00
C84    C     0.19670   0.60560   0.75040   0.01267  Uiso   1.00
C85    C     0.22390   0.90540   0.40170   0.01267  Uiso   1.00
C86    C     0.19180   0.85870   0.48370   0.01267  Uiso   1.00
C87    C     0.18910   0.74320   0.44500   0.01267  Uiso   1.00
C88    C     0.11590   0.71770   0.42150   0.01267  Uiso   1.00
C89    C     0.06240   0.70460   0.46220   0.01267  Uiso   1.00
C90    C     0.99720   0.67830   0.44120   0.01267  Uiso   1.00
C91    C     0.98300   0.67220   0.37580   0.01267  Uiso   1.00
C92    C     0.03620   0.69530   0.33600   0.01267  Uiso   1.00
C93    C     0.09980   0.72010   0.35600   0.01267  Uiso   1.00
C94    C     0.91230   0.65010   0.35190   0.01267  Uiso   1.00
C95    C     0.82020   0.58970   0.41410   0.01267  Uiso   1.00
C96    C     0.87100   0.49520   0.42050   0.01267  Uiso   1.00
C97    C     0.65280   0.89580   0.42090   0.01267  Uiso   1.00
C98    C     0.56460   0.95430   0.42660   0.01267  Uiso   1.00
C99    C     0.60370   0.03310   0.51290   0.01267  Uiso   1.00
C100   C     0.65490   0.08550   0.49060   0.01267  Uiso   1.00
C101   C     0.70710   0.10870   0.52970   0.01267  Uiso   1.00
C102   C     0.75160   0.15640   0.50960   0.01267  Uiso   1.00
C103   C     0.74330   0.18440   0.44820   0.01267  Uiso   1.00
C104   C     0.69020   0.16240   0.40830   0.01267  Uiso   1.00
C105   C     0.64640   0.11240   0.43270   0.01267  Uiso   1.00
C106   C     0.79800   0.23530   0.42480   0.01267  Uiso   1.00
C107   C     0.72770   0.38750   0.37690   0.01267  Uiso   1.00
C108   C     0.75530   0.34770   0.46200   0.01267  Uiso   1.00
C109   C     0.46740   0.74230   0.37530   0.01267  Uiso   1.00
C110   C     0.41570   0.82890   0.40050   0.01267  Uiso   1.00
C111   C     0.39230   0.66290   0.43920   0.01267  Uiso   1.00
C112   C     0.40990   0.65570   0.50810   0.01267  Uiso   1.00
C113   C     0.35800   0.66990   0.55610   0.01267  Uiso   1.00
C114   C     0.37070   0.65860   0.61980   0.01267  Uiso   1.00
C115   C     0.44090   0.63750   0.63860   0.01267  Uiso   1.00
C116   C     0.49250   0.62730   0.59430   0.01267  Uiso   1.00
C117   C     0.47680   0.63310   0.52930   0.01267  Uiso   1.00
C118   C     0.45260   0.62730   0.70780   0.01267  Uiso   1.00
C119   C     0.62430   0.58180   0.74470   0.01267  Uiso   1.00
C120   C     0.53780   0.52800   0.72050   0.01267  Uiso   1.00
C121   C     0.06490   0.04790   0.48060   0.01267  Uiso   1.00
C122   C     0.13200   0.08330   0.40740   0.01267  Uiso   1.00
C123   C     0.94990   0.10540   0.44280   0.01267  Uiso   1.00
C124   C     0.90210   0.08330   0.39060   0.01267  Uiso   1.00
C125   C     0.85670   0.03300   0.39850   0.01267  Uiso   1.00
C126   C     0.80540   0.02430   0.35410   0.01267  Uiso   1.00
C127   C     0.80270   0.06240   0.30320   0.01267  Uiso   1.00
C128   C     0.85450   0.10730   0.29190   0.01267  Uiso   1.00
C129   C     0.90580   0.11660   0.33440   0.01267  Uiso   1.00
C130   C     0.74100   0.05780   0.25600   0.01267  Uiso   1.00
C131   C     0.63070   0.97690   0.26140   0.01267  Uiso   1.00
C132   C     0.69670   0.89440   0.24960   0.01267  Uiso   1.00
C133   C     0.72390   0.59460   0.59830   0.01267  Uiso   1.00
C134   C     0.69180   0.64130   0.51630   0.01267  Uiso   1.00
C135   C     0.68910   0.75680   0.55500   0.01267  Uiso   1.00
C136   C     0.61590   0.78230   0.57850   0.01267  Uiso   1.00
C137   C     0.56240   0.79540   0.53780   0.01267  Uiso   1.00
C138   C     0.49720   0.82170   0.55880   0.01267  Uiso   1.00
C139   C     0.48300   0.82780   0.62420   0.01267  Uiso   1.00
C140   C     0.53620   0.80470   0.66400   0.01267  Uiso   1.00
C141   C     0.59980   0.77990   0.64400   0.01267  Uiso   1.00
C142   C     0.41230   0.84990   0.64810   0.01267  Uiso   1.00
C143   C     0.32020   0.91030   0.58590   0.01267  Uiso   1.00
C144   C     0.37100   0.00480   0.57950   0.01267  Uiso   1.00
C145   C     0.84720   0.10420   0.92090   0.01267  Uiso   1.00
C146   C     0.93540   0.04570   0.92660   0.01267  Uiso   1.00
C147   C     0.89630   0.96690   0.01290   0.01267  Uiso   1.00
C148   C     0.84510   0.91450   0.99060   0.01267  Uiso   1.00
C149   C     0.79290   0.89130   0.02970   0.01267  Uiso   1.00
C150   C     0.74840   0.84360   0.00960   0.01267  Uiso   1.00
C151   C     0.75670   0.81560   0.94820   0.01267  Uiso   1.00
C152   C     0.80980   0.83760   0.90830   0.01267  Uiso   1.00
C153   C     0.85360   0.88760   0.93270   0.01267  Uiso   1.00
C154   C     0.70200   0.76470   0.92480   0.01267  Uiso   1.00
C155   C     0.77230   0.61250   0.87690   0.01267  Uiso   1.00
C156   C     0.74470   0.65230   0.96200   0.01267  Uiso   1.00
C157   C     0.03260   0.25770   0.87530   0.01267  Uiso   1.00
C158   C     0.08430   0.17110   0.90050   0.01267  Uiso   1.00
C159   C     0.10770   0.33710   0.93920   0.01267  Uiso   1.00
C160   C     0.09010   0.34430   0.00810   0.01267  Uiso   1.00
C161   C     0.14200   0.33010   0.05610   0.01267  Uiso   1.00
C162   C     0.12930   0.34140   0.11980   0.01267  Uiso   1.00
C163   C     0.05910   0.36250   0.13860   0.01267  Uiso   1.00
C164   C     0.00750   0.37270   0.09430   0.01267  Uiso   1.00
C165   C     0.02320   0.36690   0.02930   0.01267  Uiso   1.00
C166   C     0.04740   0.37270   0.20780   0.01267  Uiso   1.00
C167   C     0.87570   0.41820   0.24470   0.01267  Uiso   1.00
C168   C     0.96220   0.47200   0.22050   0.01267  Uiso   1.00
C169   C     0.43510   0.95210   0.98060   0.01267  Uiso   1.00
C170   C     0.36800   0.91670   0.90740   0.01267  Uiso   1.00
C171   C     0.55010   0.89460   0.94280   0.01267  Uiso   1.00
C172   C     0.59790   0.91670   0.89060   0.01267  Uiso   1.00
C173   C     0.64330   0.96700   0.89850   0.01267  Uiso   1.00
C174   C     0.69460   0.97570   0.85410   0.01267  Uiso   1.00
C175   C     0.69730   0.93760   0.80320   0.01267  Uiso   1.00
C176   C     0.64550   0.89270   0.79190   0.01267  Uiso   1.00
C177   C     0.59420   0.88340   0.83440   0.01267  Uiso   1.00
C178   C     0.75900   0.94220   0.75600   0.01267  Uiso   1.00
C179   C     0.86930   0.02310   0.76140   0.01267  Uiso   1.00
C180   C     0.80330   0.10560   0.74960   0.01267  Uiso   1.00
C181   C     0.77610   0.40540   0.09830   0.01267  Uiso   1.00
C182   C     0.80820   0.35870   0.01630   0.01267  Uiso   1.00
C183   C     0.81090   0.24320   0.05500   0.01267  Uiso   1.00
C184   C     0.88410   0.21770   0.07850   0.01267  Uiso   1.00
C185   C     0.93760   0.20460   0.03780   0.01267  Uiso   1.00
C186   C     0.00280   0.17830   0.05880   0.01267  Uiso   1.00
C187   C     0.01700   0.17220   0.12420   0.01267  Uiso   1.00
C188   C     0.96380   0.19530   0.16400   0.01267  Uiso   1.00
C189   C     0.90020   0.22010   0.14400   0.01267  Uiso   1.00
C190   C     0.08770   0.15010   0.14810   0.01267  Uiso   1.00
C191   C     0.17980   0.08970   0.08590   0.01267  Uiso   1.00
C192   C     0.12900   0.99520   0.07950   0.01267  Uiso   1.00
N1     N     0.41100   0.40230   0.10460   0.01267  Uiso   1.00
N2     N     0.33110   0.43590   0.03200   0.01267  Uiso   1.00
N3     N     0.39180   0.47330   0.02920   0.01267  Uiso   1.00
N4     N     0.26840   0.90460   0.06100   0.01267  Uiso   1.00
N5     N     0.24790   0.82930   0.14020   0.01267  Uiso   1.00
N6     N     0.23110   0.80430   0.08310   0.01267  Uiso   1.00
N7     N     0.52940   0.30660   0.13440   0.01267  Uiso   1.00
N8     N     0.62080   0.28320   0.06710   0.01267  Uiso   1.00
N9     N     0.58630   0.22930   0.08450   0.01267  Uiso   1.00
N10    N     0.39620   0.02040   0.76630   0.01267  Uiso   1.00
N11    N     0.42230   0.12840   0.75730   0.01267  Uiso   1.00
N12    N     0.48050   0.09100   0.77840   0.01267  Uiso   1.00
N13    N     0.86920   0.54710   0.03670   0.01267  Uiso   1.00
N14    N     0.93190   0.60690   0.10740   0.01267  Uiso   1.00
N15    N     0.97460   0.58530   0.05980   0.01267  Uiso   1.00
N16    N     0.37070   0.41100   0.23480   0.01267  Uiso   1.00
N17    N     0.25820   0.44040   0.26530   0.01267  Uiso   1.00
N18    N     0.29970   0.49380   0.25190   0.01267  Uiso   1.00
N19    N     0.29050   0.08030   0.96210   0.01267  Uiso   1.00
N20    N     0.28080   0.15670   0.88320   0.01267  Uiso   1.00
N21    N     0.30150   0.18510   0.94040   0.01267  Uiso   1.00
N22    N     0.68980   0.47240   0.93760   0.01267  Uiso   1.00
N23    N     0.58340   0.46600   0.88740   0.01267  Uiso   1.00
N24    N     0.61690   0.40770   0.88620   0.01267  Uiso   1.00
N25    N     0.08900   0.59770   0.60460   0.01267  Uiso   1.00
N26    N     0.16890   0.56410   0.53200   0.01267  Uiso   1.00
N27    N     0.10820   0.52670   0.52920   0.01267  Uiso   1.00
N28    N     0.23160   0.09540   0.56100   0.01267  Uiso   1.00
N29    N     0.25210   0.17070   0.64020   0.01267  Uiso   1.00
N30    N     0.26890   0.19570   0.58310   0.01267  Uiso   1.00
N31    N     0.97060   0.69340   0.63440   0.01267  Uiso   1.00
N32    N     0.87920   0.71680   0.56710   0.01267  Uiso   1.00
N33    N     0.91370   0.77070   0.58450   0.01267  Uiso   1.00
N34    N     0.10380   0.97960   0.26630   0.01267  Uiso   1.00
N35    N     0.07770   0.87160   0.25730   0.01267  Uiso   1.00
N36    N     0.01950   0.90900   0.27840   0.01267  Uiso   1.00
N37    N     0.63080   0.45290   0.53670   0.01267  Uiso   1.00
N38    N     0.56810   0.39310   0.60740   0.01267  Uiso   1.00
N39    N     0.52540   0.41470   0.55980   0.01267  Uiso   1.00
N40    N     0.12930   0.58900   0.73480   0.01267  Uiso   1.00
N41    N     0.24180   0.55960   0.76530   0.01267  Uiso   1.00
N42    N     0.20030   0.50620   0.75190   0.01267  Uiso   1.00
N43    N     0.20950   0.91970   0.46210   0.01267  Uiso   1.00
N44    N     0.21920   0.84330   0.38320   0.01267  Uiso   1.00
N45    N     0.19850   0.81490   0.44040   0.01267  Uiso   1.00
N46    N     0.81020   0.52760   0.43760   0.01267  Uiso   1.00
N47    N     0.91660   0.53400   0.38740   0.01267  Uiso   1.00
N48    N     0.88310   0.59230   0.38620   0.01267  Uiso   1.00
N49    N     0.58900   0.90230   0.39540   0.01267  Uiso   1.00
N50    N     0.66890   0.93590   0.46800   0.01267  Uiso   1.00
N51    N     0.60820   0.97330   0.47080   0.01267  Uiso   1.00
N52    N     0.73160   0.40460   0.43900   0.01267  Uiso   1.00
N53    N     0.75210   0.32930   0.35980   0.01267  Uiso   1.00
N54    N     0.76890   0.30430   0.41690   0.01267  Uiso   1.00
N55    N     0.47060   0.80660   0.36560   0.01267  Uiso   1.00
N56    N     0.37920   0.78320   0.43290   0.01267  Uiso   1.00
N57    N     0.41370   0.72930   0.41550   0.01267  Uiso   1.00
N58    N     0.60380   0.52040   0.73370   0.01267  Uiso   1.00
N59    N     0.57770   0.62840   0.74270   0.01267  Uiso   1.00
N60    N     0.51950   0.59100   0.72160   0.01267  Uiso   1.00
N61    N     0.13080   0.04710   0.46330   0.01267  Uiso   1.00
N62    N     0.06810   0.10690   0.39260   0.01267  Uiso   1.00
N63    N     0.02540   0.08530   0.44020   0.01267  Uiso   1.00
N64    N     0.62930   0.91100   0.26520   0.01267  Uiso   1.00
N65    N     0.74180   0.94040   0.23470   0.01267  Uiso   1.00
N66    N     0.70030   0.99380   0.24810   0.01267  Uiso   1.00
N67    N     0.70950   0.58030   0.53790   0.01267  Uiso   1.00
N68    N     0.71920   0.65670   0.61680   0.01267  Uiso   1.00
N69    N     0.69850   0.68510   0.55960   0.01267  Uiso   1.00
N70    N     0.31020   0.97240   0.56240   0.01267  Uiso   1.00
N71    N     0.41660   0.96600   0.61260   0.01267  Uiso   1.00
N72    N     0.38310   0.90770   0.61380   0.01267  Uiso   1.00
N73    N     0.91100   0.09770   0.89540   0.01267  Uiso   1.00
N74    N     0.83110   0.06410   0.96800   0.01267  Uiso   1.00
N75    N     0.89180   0.02670   0.97080   0.01267  Uiso   1.00
N76    N     0.76840   0.59540   0.93900   0.01267  Uiso   1.00
N77    N     0.74790   0.67070   0.85980   0.01267  Uiso   1.00
N78    N     0.73110   0.69570   0.91690   0.01267  Uiso   1.00
N79    N     0.02940   0.19340   0.86560   0.01267  Uiso   1.00
N80    N     0.12080   0.21680   0.93290   0.01267  Uiso   1.00
N81    N     0.08630   0.27070   0.91550   0.01267  Uiso   1.00
N82    N     0.89620   0.47960   0.23370   0.01267  Uiso   1.00
N83    N     0.92230   0.37160   0.24270   0.01267  Uiso   1.00
N84    N     0.98050   0.40900   0.22160   0.01267  Uiso   1.00
N85    N     0.36920   0.95290   0.96330   0.01267  Uiso   1.00
N86    N     0.43190   0.89310   0.89260   0.01267  Uiso   1.00
N87    N     0.47460   0.91470   0.94020   0.01267  Uiso   1.00
N88    N     0.87070   0.08900   0.76520   0.01267  Uiso   1.00
N89    N     0.75820   0.05960   0.73470   0.01267  Uiso   1.00
N90    N     0.79970   0.00620   0.74810   0.01267  Uiso   1.00
N91    N     0.79050   0.41970   0.03790   0.01267  Uiso   1.00
N92    N     0.78080   0.34330   0.11680   0.01267  Uiso   1.00
N93    N     0.80150   0.31490   0.05960   0.01267  Uiso   1.00
N94    N     0.18980   0.02760   0.06240   0.01267  Uiso   1.00
N95    N     0.08340   0.03400   0.11260   0.01267  Uiso   1.00
N96    N     0.11690   0.09230   0.11380   0.01267  Uiso   1.00
O1     O     0.37980   0.27890   0.17480   0.01267  Uiso   1.00
O2     O     0.39600   0.15330   0.12810   0.01267  Uiso   1.00
O3     O     0.27820   0.22150   0.25460   0.01267  Uiso   1.00
O4     O     0.41000   0.18230   0.27170   0.01267  Uiso   1.00
O5     O     0.30870   0.10150   0.20020   0.01267  Uiso   1.00
O6     O     0.36670   0.15770   0.40110   0.01267  Uiso   1.00
O7     O     0.28930   0.10110   0.31940   0.01267  Uiso   1.00
O8     O     0.28810   0.04850   0.44540   0.01267  Uiso   1.00
O9     O     0.36290   0.97850   0.35930   0.01267  Uiso   1.00
O10    O     0.48000   0.93440   0.29480   0.01267  Uiso   1.00
O11    O     0.42620   0.06520   0.31160   0.01267  Uiso   1.00
O12    O     0.48090   0.10030   0.20850   0.01267  Uiso   1.00
O13    O     0.28380   0.99600   0.25660   0.01267  Uiso   1.00
O14    O     0.40710   0.98500   0.19110   0.01267  Uiso   1.00
O15    O     0.34520   0.03240   0.08350   0.01267  Uiso   1.00
O16    O     0.52930   0.14330   0.31100   0.01267  Uiso   1.00
O17    O     0.18740   0.08020   0.24310   0.01267  Uiso   1.00
O18    O     0.12020   0.72110   0.67480   0.01267  Uiso   1.00
O19    O     0.10400   0.84670   0.62810   0.01267  Uiso   1.00
O20    O     0.22180   0.77850   0.75460   0.01267  Uiso   1.00
O21    O     0.09000   0.81770   0.77170   0.01267  Uiso   1.00
O22    O     0.19130   0.89850   0.70020   0.01267  Uiso   1.00
O23    O     0.13330   0.84230   0.90110   0.01267  Uiso   1.00
O24    O     0.21070   0.89890   0.81940   0.01267  Uiso   1.00
O25    O     0.21190   0.95150   0.94540   0.01267  Uiso   1.00
O26    O     0.13710   0.02150   0.85930   0.01267  Uiso   1.00
O27    O     0.02000   0.06560   0.79480   0.01267  Uiso   1.00
O28    O     0.07380   0.93480   0.81160   0.01267  Uiso   1.00
O29    O     0.01910   0.89970   0.70850   0.01267  Uiso   1.00
O30    O     0.21620   0.00400   0.75660   0.01267  Uiso   1.00
O31    O     0.09290   0.01500   0.69110   0.01267  Uiso   1.00
O32    O     0.15480   0.96760   0.58350   0.01267  Uiso   1.00
O33    O     0.97070   0.85670   0.81100   0.01267  Uiso   1.00
O34    O     0.31260   0.91980   0.74310   0.01267  Uiso   1.00
O35    O     0.62020   0.77890   0.32520   0.01267  Uiso   1.00
O36    O     0.60400   0.65330   0.37190   0.01267  Uiso   1.00
O37    O     0.72180   0.72150   0.24540   0.01267  Uiso   1.00
O38    O     0.59000   0.68230   0.22830   0.01267  Uiso   1.00
O39    O     0.69130   0.60150   0.29980   0.01267  Uiso   1.00
O40    O     0.63330   0.65770   0.09890   0.01267  Uiso   1.00
O41    O     0.71070   0.60110   0.18060   0.01267  Uiso   1.00
O42    O     0.71190   0.54850   0.05460   0.01267  Uiso   1.00
O43    O     0.63710   0.47850   0.14070   0.01267  Uiso   1.00
O44    O     0.52000   0.43440   0.20520   0.01267  Uiso   1.00
O45    O     0.57380   0.56520   0.18840   0.01267  Uiso   1.00
O46    O     0.51910   0.60030   0.29150   0.01267  Uiso   1.00
O47    O     0.71620   0.49600   0.24340   0.01267  Uiso   1.00
O48    O     0.59290   0.48500   0.30890   0.01267  Uiso   1.00
O49    O     0.65480   0.53240   0.41650   0.01267  Uiso   1.00
O50    O     0.47070   0.64330   0.18900   0.01267  Uiso   1.00
O51    O     0.81260   0.58020   0.25690   0.01267  Uiso   1.00
O52    O     0.87980   0.22110   0.82520   0.01267  Uiso   1.00
O53    O     0.89600   0.34670   0.87190   0.01267  Uiso   1.00
O54    O     0.77820   0.27850   0.74540   0.01267  Uiso   1.00
O55    O     0.91000   0.31770   0.72830   0.01267  Uiso   1.00
O56    O     0.80870   0.39850   0.79980   0.01267  Uiso   1.00
O57    O     0.86670   0.34230   0.59890   0.01267  Uiso   1.00
O58    O     0.78930   0.39890   0.68060   0.01267  Uiso   1.00
O59    O     0.78810   0.45150   0.55460   0.01267  Uiso   1.00
O60    O     0.86290   0.52150   0.64070   0.01267  Uiso   1.00
O61    O     0.98000   0.56560   0.70520   0.01267  Uiso   1.00
O62    O     0.92620   0.43480   0.68840   0.01267  Uiso   1.00
O63    O     0.98090   0.39970   0.79150   0.01267  Uiso   1.00
O64    O     0.78380   0.50400   0.74340   0.01267  Uiso   1.00
O65    O     0.90710   0.51500   0.80890   0.01267  Uiso   1.00
O66    O     0.84520   0.46760   0.91650   0.01267  Uiso   1.00
O67    O     0.02930   0.35670   0.68900   0.01267  Uiso   1.00
O68    O     0.68740   0.41980   0.75690   0.01267  Uiso   1.00
